REMARK  Name = ZINC09463785
REMARK  9 active torsions:
REMARK  status: ('A' for Active; 'I' for Inactive)
REMARK    1  A    between atoms: C_1  and  C_2
REMARK    2  A    between atoms: C_2  and  N_3
REMARK    3  A    between atoms: C_14  and  N_16
REMARK    4  A    between atoms: C_17  and  C_19
REMARK    5  A    between atoms: C_19  and  S_20
REMARK    6  A    between atoms: S_20  and  C_21
REMARK    7  A    between atoms: C_24  and  C_27
REMARK    8  A    between atoms: N_25  and  N_26
REMARK    9  A    between atoms: C_32  and  C_33
REMARK                            x       y       z     vdW  Elec       q    Type
REMARK                         _______ _______ _______ _____ _____    ______ ____
ROOT
ATOM      1  N   UNL     1      -0.627   8.857   0.061  0.00  0.00    -0.285 N 
ATOM      2  C   UNL     1      -0.057  10.073   0.169  0.00  0.00    +0.227 C 
ATOM      3  O   UNL     1       1.151  10.179   0.168  0.00  0.00    -0.275 OA
ATOM      4  H   UNL     1      -1.592   8.777  -0.003  0.00  0.00    +0.155 HD
ENDROOT
BRANCH   1  16
ATOM      5  N   UNL     1       2.719   4.437  -0.147  0.00  0.00    -0.340 N 
ATOM      6  C   UNL     1       3.801   4.948  -0.840  0.00  0.00    +0.050 A 
ATOM      7  C   UNL     1       5.007   4.381  -1.244  0.00  0.00    +0.026 A 
ATOM      8  C   UNL     1       5.927   5.138  -1.936  0.00  0.00    +0.002 A 
ATOM      9  C   UNL     1       5.668   6.468  -2.231  0.00  0.00    +0.001 A 
ATOM     10  C   UNL     1       4.477   7.045  -1.844  0.00  0.00    +0.010 A 
ATOM     11  C   UNL     1       3.538   6.292  -1.144  0.00  0.00    +0.008 A 
ATOM     12  C   UNL     1       2.205   6.593  -0.591  0.00  0.00    +0.009 A 
ATOM     13  C   UNL     1       1.748   5.412   0.013  0.00  0.00    +0.050 A 
ATOM     14  C   UNL     1       0.499   5.398   0.626  0.00  0.00    +0.028 A 
ATOM     15  C   UNL     1      -0.279   6.535   0.639  0.00  0.00    +0.025 A 
ATOM     16  C   UNL     1       0.174   7.707   0.041  0.00  0.00    +0.034 A 
ATOM     17  C   UNL     1       1.414   7.739  -0.573  0.00  0.00    +0.034 A 
BRANCH   5  19
ATOM     18  C   UNL     1       3.183   2.984   1.764  0.00  0.00    +0.027 C 
ATOM     19  C   UNL     1       2.613   3.062   0.347  0.00  0.00    +0.119 C 
ENDBRANCH   5  19
ENDBRANCH   1  16
BRANCH   2  20
ATOM     20  C   UNL     1      -0.921  11.302   0.292  0.00  0.00    +0.173 C 
BRANCH  20  21
ATOM     21  S   UNL     1       0.132  12.769   0.419  0.00  0.00    -0.075 S 
BRANCH  21  22
ATOM     22  C   UNL     1      -1.102  14.021   0.547  0.00  0.00    +0.209 A 
ATOM     23  N   UNL     1      -2.404  13.837   0.536  0.00  0.00    -0.121 NA
ATOM     24  N   UNL     1      -3.010  14.964   0.651  0.00  0.00    -0.127 NA
ATOM     25  C   UNL     1      -2.133  15.938   0.734  0.00  0.00    +0.182 A 
ATOM     26  N   UNL     1      -0.884  15.363   0.670  0.00  0.00    -0.224 N 
BRANCH  25  27
ATOM     27  C   UNL     1      -2.431  17.379   0.871  0.00  0.00    +0.024 A 
ATOM     28  C   UNL     1      -1.798  18.135   1.859  0.00  0.00    +0.012 A 
ATOM     29  C   UNL     1      -2.081  19.480   1.981  0.00  0.00    +0.001 A 
ATOM     30  C   UNL     1      -2.989  20.080   1.126  0.00  0.00    +0.000 A 
ATOM     31  C   UNL     1      -3.620  19.336   0.145  0.00  0.00    +0.004 A 
ATOM     32  C   UNL     1      -3.342  17.991   0.009  0.00  0.00    -0.040 A 
ATOM     33  C   UNL     1      -4.026  17.183  -1.064  0.00  0.00    +0.044 C 
ENDBRANCH  25  27
BRANCH  26  34
ATOM     34  N   UNL     1       0.322  16.003   0.719  0.00  0.00    -0.295 N 
ATOM     35  H   UNL     1       0.594  16.332  -0.196  0.00  0.00    +0.163 HD
ATOM     36  H   UNL     1       0.302  16.761   1.385  0.00  0.00    +0.163 HD
ENDBRANCH  26  34
ENDBRANCH  21  22
ENDBRANCH  20  21
ENDBRANCH   2  20
TORSDOF 7
