REMARK  Name = ZINC18140290
REMARK  8 active torsions:
REMARK  status: ('A' for Active; 'I' for Inactive)
REMARK    1  A    between atoms: C_3  and  C_8
REMARK    2  A    between atoms: C_4  and  O_7
REMARK    3  A    between atoms: N_9  and  C_10
REMARK    4  A    between atoms: C_13  and  C_16
REMARK    5  A    between atoms: C_16  and  C_26
REMARK    6  A    between atoms: C_29  and  N_32
REMARK    7  A    between atoms: C_33  and  C_34
REMARK    8  A    between atoms: C_35  and  O_40
REMARK                            x       y       z     vdW  Elec       q    Type
REMARK                         _______ _______ _______ _____ _____    ______ ____
ROOT
ATOM      1  C   UNL     1       9.637   4.418  -0.068  0.00  0.00    +0.111 C 
ATOM      2  N   UNL     1       9.910   4.930  -1.415  0.00  0.00    -0.294 N 
ATOM      3  C   UNL     1      11.069   4.408  -1.850  0.00  0.00    +0.246 C 
ATOM      4  O   UNL     1      11.572   4.638  -2.933  0.00  0.00    -0.270 OA
ATOM      5  C   UNL     1      11.645   3.516  -0.825  0.00  0.00    +0.043 A 
ATOM      6  C   UNL     1      10.787   3.504   0.277  0.00  0.00    -0.003 A 
ATOM      7  C   UNL     1      11.088   2.746   1.384  0.00  0.00    +0.007 A 
ATOM      8  C   UNL     1      12.248   1.989   1.409  0.00  0.00    +0.000 A 
ATOM      9  C   UNL     1      13.105   1.993   0.323  0.00  0.00    +0.001 A 
ATOM     10  C   UNL     1      12.812   2.751  -0.793  0.00  0.00    +0.013 A 
ATOM     11  H   UNL     1       9.346   5.545  -1.911  0.00  0.00    +0.151 HD
ENDROOT
BRANCH   1  15
ATOM     12  C   UNL     1       5.963   2.230  -0.044  0.00  0.00    +0.064 A 
ATOM     13  C   UNL     1       6.119   3.330  -0.890  0.00  0.00    +0.028 A 
ATOM     14  C   UNL     1       7.306   4.031  -0.892  0.00  0.00    +0.008 A 
ATOM     15  C   UNL     1       8.342   3.647  -0.059  0.00  0.00    -0.015 A 
ATOM     16  C   UNL     1       8.195   2.558   0.781  0.00  0.00    +0.008 A 
ATOM     17  C   UNL     1       7.011   1.851   0.798  0.00  0.00    +0.028 A 
BRANCH  12  19
ATOM     18  C   UNL     1       3.650   2.166  -0.022  0.00  0.00    +0.123 C 
ATOM     19  N   UNL     1       4.787   1.530  -0.036  0.00  0.00    -0.255 NA
BRANCH  18  22
ATOM     20  C   UNL     1      -0.017   1.381   0.010  0.00  0.00    +0.001 A 
ATOM     21  C   UNL     1       1.164   2.092   0.002  0.00  0.00    +0.013 A 
ATOM     22  C   UNL     1       2.386   1.414  -0.013  0.00  0.00    +0.034 A 
ATOM     23  C   UNL     1       2.400   0.011  -0.021  0.00  0.00    +0.125 A 
ATOM     24  C   UNL     1       1.203  -0.688  -0.013  0.00  0.00    +0.046 A 
ATOM     25  C   UNL     1       0.002  -0.004   0.002  0.00  0.00    +0.004 A 
BRANCH  23  26
ATOM     26  O   UNL     1       3.580  -0.660  -0.036  0.00  0.00    -0.506 OA
ATOM     27  H   UNL     1       3.930  -0.859   0.843  0.00  0.00    +0.292 HD
ENDBRANCH  23  26
ENDBRANCH  18  22
ENDBRANCH  12  19
ENDBRANCH   1  15
BRANCH   1  28
ATOM     28  C   UNL     1       9.568   5.557   0.916  0.00  0.00    -0.015 A 
ATOM     29  C   UNL     1       9.988   5.366   2.221  0.00  0.00    +0.008 A 
ATOM     30  C   UNL     1       9.927   6.404   3.127  0.00  0.00    +0.028 A 
ATOM     31  C   UNL     1       9.441   7.651   2.725  0.00  0.00    +0.064 A 
ATOM     32  C   UNL     1       9.019   7.836   1.407  0.00  0.00    +0.028 A 
ATOM     33  C   UNL     1       9.090   6.790   0.510  0.00  0.00    +0.008 A 
BRANCH  31  34
ATOM     34  N   UNL     1       9.378   8.685   3.619  0.00  0.00    -0.255 NA
ATOM     35  C   UNL     1       9.787   9.873   3.271  0.00  0.00    +0.123 C 
BRANCH  35  36
ATOM     36  C   UNL     1       9.719  10.984   4.231  0.00  0.00    +0.034 A 
ATOM     37  C   UNL     1       9.220  10.770   5.526  0.00  0.00    +0.125 A 
ATOM     38  C   UNL     1       9.161  11.825   6.422  0.00  0.00    +0.046 A 
ATOM     39  C   UNL     1       9.592  13.082   6.043  0.00  0.00    +0.004 A 
ATOM     40  C   UNL     1      10.084  13.299   4.766  0.00  0.00    +0.001 A 
ATOM     41  C   UNL     1      10.156  12.260   3.863  0.00  0.00    +0.013 A 
BRANCH  37  42
ATOM     42  O   UNL     1       8.798   9.535   5.897  0.00  0.00    -0.506 OA
ATOM     43  H   UNL     1       9.490   8.983   6.287  0.00  0.00    +0.292 HD
ENDBRANCH  37  42
ENDBRANCH  35  36
ENDBRANCH  31  34
ENDBRANCH   1  28
TORSDOF 8
