REMARK  Name = ZINC03186036
REMARK  6 active torsions:
REMARK  status: ('A' for Active; 'I' for Inactive)
REMARK    1  A    between atoms: C_4  and  N_7
REMARK    2  A    between atoms: C_9  and  C_19
REMARK    3  A    between atoms: C_10  and  C_12
REMARK    4  A    between atoms: N_20  and  N_21
REMARK    5  A    between atoms: C_22  and  C_24
REMARK    6  A    between atoms: C_29  and  N_30
REMARK                            x       y       z     vdW  Elec       q    Type
REMARK                         _______ _______ _______ _____ _____    ______ ____
ROOT
ATOM      1  N   UNL     1       4.150  -0.315   0.459  0.00  0.00    -0.239 N 
ATOM      2  C   UNL     1       4.680   0.574  -0.406  0.00  0.00    +0.124 A 
ATOM      3  C   UNL     1       3.713   1.490  -0.716  0.00  0.00    +0.040 A 
ATOM      4  C   UNL     1       2.517   1.110   0.039  0.00  0.00    +0.102 A 
ATOM      5  N   UNL     1       2.820   0.028   0.723  0.00  0.00    -0.166 NA
ENDROOT
BRANCH   4   6
ATOM      6  C   UNL     1       1.209   1.808   0.029  0.00  0.00    +0.003 A 
ATOM      7  C   UNL     1       0.530   2.038   1.224  0.00  0.00    +0.011 A 
ATOM      8  C   UNL     1      -0.690   2.684   1.209  0.00  0.00    +0.020 A 
ATOM      9  C   UNL     1      -1.234   3.112   0.010  0.00  0.00    +0.041 A 
ATOM     10  C   UNL     1      -0.563   2.886  -1.180  0.00  0.00    +0.020 A 
ATOM     11  C   UNL     1       0.654   2.236  -1.176  0.00  0.00    +0.011 A 
ATOM     12 CL   UNL     1      -2.765   3.929  -0.002  0.00  0.00    -0.084 Cl
ENDBRANCH   4   6
BRANCH   1  16
ATOM     13  C   UNL     1       6.163  -3.578   2.093  0.00  0.00    +0.000 A 
ATOM     14  C   UNL     1       4.844  -3.341   2.432  0.00  0.00    +0.002 A 
ATOM     15  C   UNL     1       4.174  -2.261   1.892  0.00  0.00    +0.028 A 
ATOM     16  C   UNL     1       4.827  -1.411   1.008  0.00  0.00    +0.065 A 
ATOM     17  C   UNL     1       6.150  -1.655   0.666  0.00  0.00    +0.028 A 
ATOM     18  C   UNL     1       6.816  -2.734   1.213  0.00  0.00    +0.002 A 
ENDBRANCH   1  16
BRANCH   3  19
ATOM     19  C   UNL     1       3.850   2.639  -1.630  0.00  0.00    +0.142 C 
ATOM     20  N   UNL     1       2.876   3.488  -1.755  0.00  0.00    -0.187 NA
BRANCH  20  21
ATOM     21  N   UNL     1       3.005   4.580  -2.623  0.00  0.00    -0.203 N 
ATOM     22  C   UNL     1       1.994   5.462  -2.753  0.00  0.00    +0.265 C 
ATOM     23  O   UNL     1       0.969   5.309  -2.116  0.00  0.00    -0.268 OA
ATOM     24  H   UNL     1       3.823   4.702  -3.131  0.00  0.00    +0.178 HD
BRANCH  22  25
ATOM     25  C   UNL     1       2.130   6.610  -3.666  0.00  0.00    +0.059 A 
ATOM     26  C   UNL     1       3.253   6.724  -4.490  0.00  0.00    +0.015 A 
ATOM     27  C   UNL     1       3.372   7.797  -5.346  0.00  0.00    +0.001 A 
ATOM     28  C   UNL     1       2.389   8.773  -5.386  0.00  0.00    +0.002 A 
ATOM     29  C   UNL     1       1.276   8.678  -4.575  0.00  0.00    +0.023 A 
ATOM     30  C   UNL     1       1.136   7.600  -3.709  0.00  0.00    +0.037 A 
BRANCH  30  31
ATOM     31  N   UNL     1       0.018   7.503  -2.891  0.00  0.00    -0.357 N 
ATOM     32  H   UNL     1       0.063   6.993  -2.067  0.00  0.00    +0.142 HD
ATOM     33  H   UNL     1      -0.808   7.944  -3.144  0.00  0.00    +0.142 HD
ENDBRANCH  30  31
ENDBRANCH  22  25
ENDBRANCH  20  21
ENDBRANCH   3  19
TORSDOF 6
