REMARK  Name = ZINC49069022
REMARK  14 active torsions:
REMARK  status: ('A' for Active; 'I' for Inactive)
REMARK    1  A    between atoms: C_1  and  C_2
REMARK    2  A    between atoms: C_2  and  C_3
REMARK    3  A    between atoms: C_2  and  C_4
REMARK    4  A    between atoms: C_4  and  C_5
REMARK    5  A    between atoms: C_5  and  C_7
REMARK    6  A    between atoms: C_5  and  N_34
REMARK    7  A    between atoms: C_7  and  O_8
REMARK    8  A    between atoms: O_8  and  C_9
REMARK    9  A    between atoms: C_11  and  C_15
REMARK   10  A    between atoms: C_20  and  O_32
REMARK   11  A    between atoms: C_21  and  O_30
REMARK   12  A    between atoms: C_27  and  N_29
REMARK   13  A    between atoms: O_30  and  C_31
REMARK   14  A    between atoms: O_32  and  C_33
REMARK                            x       y       z     vdW  Elec       q    Type
REMARK                         _______ _______ _______ _____ _____    ______ ____
ROOT
ATOM      1  C   UNL     1      -2.224  -1.712   9.339  0.00  0.00    +0.075 A 
ATOM      2  C   UNL     1      -1.923  -2.269  10.575  0.00  0.00    +0.037 A 
ATOM      3  C   UNL     1      -2.865  -2.175  11.596  0.00  0.00    -0.002 A 
ATOM      4  C   UNL     1      -2.656  -2.723  12.937  0.00  0.00    +0.012 A 
ATOM      5  C   UNL     1      -1.480  -3.388  13.286  0.00  0.00    +0.060 A 
ATOM      6  C   UNL     1      -1.329  -3.887  14.562  0.00  0.00    +0.162 A 
ATOM      7  C   UNL     1      -2.349  -3.731  15.507  0.00  0.00    +0.164 A 
ATOM      8  C   UNL     1      -3.517  -3.078  15.179  0.00  0.00    +0.077 A 
ATOM      9  C   UNL     1      -3.692  -2.562  13.888  0.00  0.00    +0.075 A 
ATOM     10  N   UNL     1      -4.825  -1.922  13.553  0.00  0.00    -0.254 NA
ATOM     11  C   UNL     1      -5.045  -1.420  12.369  0.00  0.00    +0.123 A 
ATOM     12  C   UNL     1      -4.094  -1.516  11.337  0.00  0.00    +0.040 A 
ATOM     13  C   UNL     1      -4.314  -0.981  10.053  0.00  0.00    +0.126 A 
ATOM     14  N   UNL     1      -3.384  -1.093   9.122  0.00  0.00    -0.232 NA
ENDROOT
BRANCH   1  17
ATOM     15  C   UNL     1      -0.547  -1.359   5.993  0.00  0.00    +0.139 A 
ATOM     16  C   UNL     1      -1.509  -1.247   6.989  0.00  0.00    +0.058 A 
ATOM     17  C   UNL     1      -1.233  -1.803   8.240  0.00  0.00    +0.022 A 
ATOM     18  C   UNL     1      -0.012  -2.445   8.440  0.00  0.00    +0.121 A 
ATOM     19  N   UNL     1       0.872  -2.527   7.466  0.00  0.00    -0.259 NA
ATOM     20  C   UNL     1       0.642  -2.018   6.271  0.00  0.00    +0.156 A 
BRANCH  15  21
ATOM     21  O   UNL     1      -0.769  -0.833   4.759  0.00  0.00    -0.492 OA
BRANCH  21  22
ATOM     22  C   UNL     1       0.267  -0.995   3.788  0.00  0.00    +0.213 C 
BRANCH  22  23
ATOM     23  C   UNL     1      -0.161  -0.344   2.472  0.00  0.00    -0.037 C 
BRANCH  23  24
ATOM     24  N   UNL     1      -0.290   1.107   2.663  0.00  0.00    +0.382 N 
ATOM     25  H   UNL     1       0.616   1.503   2.861  0.00  0.00    -0.090 HD
ATOM     26  H   UNL     1      -0.664   1.525   1.824  0.00  0.00    -0.090 HD
ATOM     27  H   UNL     1      -0.913   1.290   3.435  0.00  0.00    -0.090 HD
ENDBRANCH  23  24
BRANCH  23  28
ATOM     28  C   UNL     1       0.892  -0.625   1.398  0.00  0.00    -0.010 C 
BRANCH  28  30
ATOM     29  C   UNL     1       1.512  -0.241  -0.992  0.00  0.00    +0.007 C 
ATOM     30  C   UNL     1       0.402  -0.090   0.051  0.00  0.00    -0.019 C 
ATOM     31  C   UNL     1      -0.828  -0.883  -0.395  0.00  0.00    +0.007 C 
ENDBRANCH  28  30
ENDBRANCH  23  28
ENDBRANCH  22  23
ENDBRANCH  21  22
ENDBRANCH  15  21
ENDBRANCH   1  17
BRANCH  13  32
ATOM     32  N   UNL     1      -5.503  -0.332   9.768  0.00  0.00    -0.343 N 
ATOM     33  H   UNL     1      -6.184  -0.246  10.453  0.00  0.00    +0.144 HD
ATOM     34  H   UNL     1      -5.654   0.036   8.883  0.00  0.00    +0.144 HD
ENDBRANCH  13  32
BRANCH   7  35
ATOM     35  O   UNL     1      -2.187  -4.229  16.761  0.00  0.00    -0.491 OA
ATOM     36  C   UNL     1      -3.264  -4.037  17.680  0.00  0.00    +0.277 C 
ENDBRANCH   7  35
BRANCH   6  37
ATOM     37  O   UNL     1      -0.183  -4.534  14.903  0.00  0.00    -0.491 OA
ATOM     38  C   UNL     1       0.818  -4.660  13.891  0.00  0.00    +0.277 C 
ENDBRANCH   6  37
TORSDOF 10
