REMARK  Name = ZINC42027112
REMARK  4 active torsions:
REMARK  status: ('A' for Active; 'I' for Inactive)
REMARK    1  A    between atoms: C_1  and  C_2
REMARK    2  A    between atoms: C_6  and  N_20
REMARK    3  A    between atoms: C_7  and  C_8
REMARK    4  A    between atoms: N_12  and  C_13
REMARK                            x       y       z     vdW  Elec       q    Type
REMARK                         _______ _______ _______ _____ _____    ______ ____
ROOT
ATOM      1  C   UNL     1       0.019  -0.052   2.312  0.00  0.00    +0.189 A 
ATOM      2  N   UNL     1      -0.330   1.218   2.365  0.00  0.00    -0.108 NA
ATOM      3  N   UNL     1      -0.664   1.544   3.561  0.00  0.00    -0.022 NA
ATOM      4  N   UNL     1      -0.558   0.532   4.353  0.00  0.00    -0.039 NA
ATOM      5  N   UNL     1      -0.115  -0.552   3.575  0.00  0.00    -0.193 N 
ENDROOT
BRANCH   1  12
ATOM      6  C   UNL     1      -1.664  -0.111  -0.039  0.00  0.00    +0.044 C 
ATOM      7  C   UNL     1      -0.339  -0.830  -0.026  0.00  0.00    -0.038 A 
ATOM      8  C   UNL     1       0.083  -1.520  -1.144  0.00  0.00    +0.004 A 
ATOM      9  C   UNL     1       1.299  -2.182  -1.138  0.00  0.00    +0.002 A 
ATOM     10  C   UNL     1       2.101  -2.158  -0.014  0.00  0.00    +0.023 A 
ATOM     11  C   UNL     1       1.691  -1.470   1.119  0.00  0.00    +0.036 A 
ATOM     12  C   UNL     1       0.463  -0.793   1.114  0.00  0.00    +0.045 A 
BRANCH  11  13
ATOM     13  N   UNL     1       2.499  -1.446   2.254  0.00  0.00    -0.357 N 
ATOM     14  H   UNL     1       3.298  -1.994   2.292  0.00  0.00    +0.142 HD
ATOM     15  H   UNL     1       2.261  -0.881   3.006  0.00  0.00    +0.142 HD
ENDBRANCH  11  13
ENDBRANCH   1  12
BRANCH   5  16
ATOM     16  C   UNL     1       0.137  -1.862   4.004  0.00  0.00    +0.069 A 
ATOM     17  C   UNL     1      -0.264  -2.938   3.223  0.00  0.00    +0.029 A 
ATOM     18  C   UNL     1      -0.014  -4.229   3.648  0.00  0.00    +0.017 A 
ATOM     19  C   UNL     1       0.635  -4.449   4.850  0.00  0.00    +0.018 A 
ATOM     20  C   UNL     1       1.034  -3.378   5.630  0.00  0.00    +0.017 A 
ATOM     21  C   UNL     1       0.792  -2.086   5.207  0.00  0.00    +0.029 A 
ATOM     22 BR   UNL     1       0.975  -6.217   5.429  0.00  0.00    -0.050 Br
ENDBRANCH   5  16
TORSDOF 3
