REMARK  Name = ZINC35578417
REMARK  7 active torsions:
REMARK  status: ('A' for Active; 'I' for Inactive)
REMARK    1  A    between atoms: C_1  and  C_2
REMARK    2  A    between atoms: C_10  and  C_25
REMARK    3  A    between atoms: C_12  and  N_24
REMARK    4  A    between atoms: N_13  and  C_17
REMARK    5  A    between atoms: C_28  and  C_31
REMARK    6  A    between atoms: C_31  and  C_32
REMARK    7  A    between atoms: C_31  and  C_33
REMARK                            x       y       z     vdW  Elec       q    Type
REMARK                         _______ _______ _______ _____ _____    ______ ____
ROOT
ATOM      1  C   UNL     1       0.873   0.457  -1.129  0.00  0.00    +0.007 C 
ATOM      2  C   UNL     1       0.574  -1.025  -0.896  0.00  0.00    -0.011 C 
ATOM      3  C   UNL     1      -0.928  -1.213  -0.671  0.00  0.00    +0.022 C 
ATOM      4  C   UNL     1      -1.229  -2.702  -0.473  0.00  0.00    +0.108 C 
ATOM      5  N   UNL     1      -0.387  -3.213   0.617  0.00  0.00    -0.300 N 
ATOM      6  C   UNL     1       1.065  -3.005   0.545  0.00  0.00    +0.108 C 
ATOM      7  C   UNL     1       1.340  -1.513   0.336  0.00  0.00    +0.022 C 
ATOM      8  C   UNL     1      -0.952  -3.877   1.692  0.00  0.00    +0.220 A 
ATOM      9  N   UNL     1      -0.145  -4.315   2.654  0.00  0.00    -0.214 NA
ATOM     10  C   UNL     1      -0.603  -4.960   3.719  0.00  0.00    +0.089 A 
ATOM     11  C   UNL     1      -1.995  -5.183   3.820  0.00  0.00    +0.086 A 
ATOM     12  C   UNL     1      -2.841  -5.793   4.738  0.00  0.00    +0.131 A 
ATOM     13  N   UNL     1      -4.098  -5.681   4.266  0.00  0.00    -0.216 N 
ATOM     14  N   UNL     1      -4.090  -5.001   3.043  0.00  0.00    -0.144 NA
ATOM     15  C   UNL     1      -2.853  -4.681   2.731  0.00  0.00    +0.189 A 
ATOM     16  N   UNL     1      -2.259  -4.037   1.708  0.00  0.00    -0.193 NA
ENDROOT
BRANCH  13  17
ATOM     17  C   UNL     1      -5.244  -6.173   4.904  0.00  0.00    +0.068 A 
ATOM     18  C   UNL     1      -5.182  -7.356   5.629  0.00  0.00    +0.030 A 
ATOM     19  C   UNL     1      -6.313  -7.839   6.258  0.00  0.00    +0.040 A 
ATOM     20  C   UNL     1      -7.508  -7.145   6.166  0.00  0.00    +0.124 A 
ATOM     21  C   UNL     1      -7.572  -5.965   5.444  0.00  0.00    +0.040 A 
ATOM     22  C   UNL     1      -6.442  -5.475   4.818  0.00  0.00    +0.030 A 
ATOM     23  F   UNL     1      -8.613  -7.619   6.782  0.00  0.00    -0.205 F 
ENDBRANCH  13  17
BRANCH  10  24
ATOM     24  C   UNL     1       0.320  -5.436   4.774  0.00  0.00    +0.001 A 
ATOM     25  C   UNL     1       0.204  -6.733   5.274  0.00  0.00    +0.010 A 
ATOM     26  C   UNL     1       1.068  -7.170   6.257  0.00  0.00    +0.004 A 
ATOM     27  C   UNL     1       2.048  -6.325   6.747  0.00  0.00    -0.045 A 
ATOM     28  C   UNL     1       2.168  -5.038   6.255  0.00  0.00    +0.004 A 
ATOM     29  C   UNL     1       1.314  -4.591   5.268  0.00  0.00    +0.010 A 
BRANCH  27  30
ATOM     30  C   UNL     1       2.988  -6.809   7.821  0.00  0.00    +0.013 C 
ATOM     31  C   UNL     1       4.427  -6.741   7.307  0.00  0.00    +0.012 C 
ATOM     32  C   UNL     1       2.846  -5.923   9.060  0.00  0.00    +0.012 C 
ENDBRANCH  27  30
ENDBRANCH  10  24
BRANCH  12  33
ATOM     33  N   UNL     1      -2.463  -6.403   5.919  0.00  0.00    -0.342 N 
ATOM     34  H   UNL     1      -1.556  -6.301   6.248  0.00  0.00    +0.144 HD
ATOM     35  H   UNL     1      -3.104  -6.933   6.418  0.00  0.00    +0.144 HD
ENDBRANCH  12  33
TORSDOF 4
