REMARK  Name = ZINC02979784
REMARK  8 active torsions:
REMARK  status: ('A' for Active; 'I' for Inactive)
REMARK    1  A    between atoms: C_1  and  C_2
REMARK    2  A    between atoms: C_5  and  S_8
REMARK    3  A    between atoms: S_8  and  N_11
REMARK    4  A    between atoms: N_11  and  C_12
REMARK    5  A    between atoms: N_11  and  C_25
REMARK    6  A    between atoms: C_12  and  C_13
REMARK    7  A    between atoms: N_15  and  C_16
REMARK    8  A    between atoms: C_19  and  C_22
REMARK                            x       y       z     vdW  Elec       q    Type
REMARK                         _______ _______ _______ _____ _____    ______ ____
ROOT
ATOM      1  N   UNL     1      -6.026   7.476   0.386  0.00  0.00    -0.193 N 
ENDROOT
BRANCH   1   2
ATOM      2  C   UNL     1      -5.746   8.048   1.629  0.00  0.00    +0.070 A 
ATOM      3  C   UNL     1      -4.446   8.048   2.119  0.00  0.00    +0.026 A 
ATOM      4  C   UNL     1      -4.171   8.619   3.345  0.00  0.00    +0.002 A 
ATOM      5  C   UNL     1      -5.190   9.182   4.092  0.00  0.00    +0.002 A 
ATOM      6  C   UNL     1      -6.486   9.181   3.611  0.00  0.00    +0.022 A 
ATOM      7  C   UNL     1      -6.768   8.615   2.382  0.00  0.00    +0.064 A 
ATOM      8 CL   UNL     1      -8.396   8.612   1.778  0.00  0.00    -0.082 Cl
ENDBRANCH   1   2
BRANCH   1   9
ATOM      9  S   UNL     1      -6.081   8.425  -0.970  0.00  0.00    +0.075 S 
ATOM     10  O   UNL     1      -5.291   9.574  -0.693  0.00  0.00    -0.150 OA
ATOM     11  O   UNL     1      -5.821   7.571  -2.075  0.00  0.00    -0.150 OA
BRANCH   9  16
ATOM     12  C   UNL     1     -11.768  10.348  -1.575  0.00  0.00    +0.044 C 
ATOM     13  C   UNL     1     -10.347   9.868  -1.424  0.00  0.00    -0.050 A 
ATOM     14  C   UNL     1      -9.441  10.610  -0.690  0.00  0.00    +0.005 A 
ATOM     15  C   UNL     1      -8.138  10.170  -0.552  0.00  0.00    +0.029 A 
ATOM     16  C   UNL     1      -7.742   8.987  -1.147  0.00  0.00    +0.109 A 
ATOM     17  C   UNL     1      -8.646   8.247  -1.885  0.00  0.00    +0.029 A 
ATOM     18  C   UNL     1      -9.950   8.685  -2.020  0.00  0.00    +0.005 A 
ENDBRANCH   9  16
ENDBRANCH   1   9
BRANCH   1  19
ATOM     19  C   UNL     1      -6.272   6.035   0.281  0.00  0.00    +0.227 C 
BRANCH  19  20
ATOM     20  C   UNL     1      -4.958   5.309   0.158  0.00  0.00    +0.236 C 
ATOM     21  O   UNL     1      -3.918   5.933   0.157  0.00  0.00    -0.274 OA
ATOM     22  N   UNL     1      -4.938   3.966   0.048  0.00  0.00    -0.284 N 
ATOM     23  H   UNL     1      -5.770   3.472  -0.018  0.00  0.00    +0.155 HD
BRANCH  22  24
ATOM     24  C   UNL     1      -3.721   3.286   0.030  0.00  0.00    +0.033 A 
ATOM     25  C   UNL     1      -2.613   3.861  -0.586  0.00  0.00    +0.024 A 
ATOM     26  C   UNL     1      -1.410   3.192  -0.605  0.00  0.00    +0.015 A 
ATOM     27  C   UNL     1      -1.301   1.935  -0.006  0.00  0.00    +0.037 A 
ATOM     28  C   UNL     1      -2.417   1.357   0.607  0.00  0.00    +0.015 A 
ATOM     29  C   UNL     1      -3.616   2.034   0.627  0.00  0.00    +0.024 A 
BRANCH  27  30
ATOM     30  C   UNL     1      -0.013   1.215  -0.025  0.00  0.00    +0.242 C 
ATOM     31  O   UNL     1       0.955   1.716  -0.563  0.00  0.00    -0.270 OA
ATOM     32  N   UNL     1       0.091   0.004   0.558  0.00  0.00    -0.325 N 
ATOM     33  H   UNL     1       0.939  -0.467   0.549  0.00  0.00    +0.145 HD
ATOM     34  H   UNL     1      -0.681  -0.396   0.988  0.00  0.00    +0.145 HD
ENDBRANCH  27  30
ENDBRANCH  22  24
ENDBRANCH  19  20
ENDBRANCH   1  19
TORSDOF 7
