REMARK  Name = ZINC03018569
REMARK  15 active torsions:
REMARK  status: ('A' for Active; 'I' for Inactive)
REMARK    1  A    between atoms: C_1  and  C_2
REMARK    2  A    between atoms: C_2  and  C_3
REMARK    3  A    between atoms: C_3  and  C_5
REMARK    4  A    between atoms: C_3  and  S_12
REMARK    5  A    between atoms: N_7  and  C_8
REMARK    6  A    between atoms: N_7  and  C_10
REMARK    7  A    between atoms: C_8  and  C_9
REMARK    8  A    between atoms: C_10  and  C_11
REMARK    9  A    between atoms: S_12  and  C_13
REMARK   10  A    between atoms: C_17  and  C_31
REMARK   11  A    between atoms: C_18  and  C_20
REMARK   12  A    between atoms: N_22  and  C_23
REMARK   13  A    between atoms: C_26  and  C_30
REMARK   14  A    between atoms: C_28  and  C_29
REMARK   15  A    between atoms: N_34  and  N_35
REMARK                            x       y       z     vdW  Elec       q    Type
REMARK                         _______ _______ _______ _____ _____    ______ ____
ROOT
ATOM      1  C   UNL     1       7.960  -3.320   0.211  0.00  0.00    +0.190 A 
ATOM      2  N   UNL     1       7.577  -2.062   0.141  0.00  0.00    -0.215 NA
ATOM      3  C   UNL     1       6.306  -1.733  -0.020  0.00  0.00    +0.117 A 
ATOM      4  C   UNL     1       5.287  -2.710  -0.127  0.00  0.00    +0.077 A 
ATOM      5  C   UNL     1       3.989  -2.219  -0.289  0.00  0.00    -0.017 A 
ATOM      6  C   UNL     1       3.775  -0.873  -0.346  0.00  0.00    +0.080 A 
ATOM      7  S   UNL     1       5.418  -0.202  -0.157  0.00  0.00    -0.064 S 
ATOM      8  C   UNL     1       2.830  -3.174  -0.406  0.00  0.00    +0.046 C 
ATOM      9  C   UNL     1       5.749  -4.113  -0.044  0.00  0.00    +0.280 A 
ATOM     10  O   UNL     1       4.958  -5.036  -0.123  0.00  0.00    -0.265 OA
ATOM     11  N   UNL     1       7.066  -4.346   0.121  0.00  0.00    -0.209 N 
ENDROOT
BRANCH   6  12
ATOM     12  C   UNL     1       2.509  -0.156  -0.513  0.00  0.00    +0.255 C 
ATOM     13  O   UNL     1       1.468  -0.778  -0.629  0.00  0.00    -0.269 OA
ATOM     14  N   UNL     1       2.496   1.191  -0.540  0.00  0.00    -0.281 N 
ATOM     15  H   UNL     1       3.442   1.751  -0.518  0.00  0.00    +0.155 HD
BRANCH  14  16
ATOM     16  C   UNL     1       1.279   1.877  -0.595  0.00  0.00    +0.037 A 
ATOM     17  C   UNL     1       0.207   1.339  -1.296  0.00  0.00    +0.024 A 
ATOM     18  C   UNL     1      -0.992   2.022  -1.352  0.00  0.00    +0.005 A 
ATOM     19  C   UNL     1      -1.130   3.235  -0.702  0.00  0.00    -0.050 A 
ATOM     20  C   UNL     1      -0.065   3.774  -0.004  0.00  0.00    +0.008 A 
ATOM     21  C   UNL     1       1.139   3.098   0.052  0.00  0.00    -0.029 A 
ATOM     22  C   UNL     1       2.299   3.686   0.815  0.00  0.00    +0.045 C 
ATOM     23  C   UNL     1      -2.441   3.975  -0.761  0.00  0.00    +0.044 C 
ENDBRANCH  14  16
ENDBRANCH   6  12
BRANCH  11  24
ATOM     24  N   UNL     1       7.514  -5.634   0.200  0.00  0.00    -0.293 N 
ATOM     25  H   UNL     1       6.801  -6.469   0.129  0.00  0.00    +0.163 HD
ATOM     26  H   UNL     1       8.586  -5.836   0.336  0.00  0.00    +0.163 HD
ENDBRANCH  11  24
BRANCH   1  27
ATOM     27  S   UNL     1       9.670  -3.687   0.427  0.00  0.00    -0.073 S 
BRANCH  27  28
ATOM     28  C   UNL     1      10.326  -2.014   0.643  0.00  0.00    +0.140 C 
BRANCH  28  29
ATOM     29  C   UNL     1       9.777  -1.420   1.914  0.00  0.00    +0.229 C 
ATOM     30  O   UNL     1       9.412  -2.146   2.815  0.00  0.00    -0.274 OA
ATOM     31  N   UNL     1       9.691  -0.082   2.050  0.00  0.00    -0.301 N 
BRANCH  31  32
ATOM     32  C   UNL     1       9.157   0.496   3.286  0.00  0.00    +0.104 C 
ATOM     33  C   UNL     1      10.300   0.726   4.277  0.00  0.00    +0.024 C 
ENDBRANCH  31  32
BRANCH  31  34
ATOM     34  C   UNL     1      10.131   0.795   0.962  0.00  0.00    +0.104 C 
ATOM     35  C   UNL     1       8.955   1.072   0.022  0.00  0.00    +0.024 C 
ENDBRANCH  31  34
ENDBRANCH  28  29
BRANCH  28  37
ATOM     36  C   UNL     1      12.416  -2.562  -0.611  0.00  0.00    +0.005 C 
ATOM     37  C   UNL     1      11.852  -2.072   0.724  0.00  0.00    +0.020 C 
ENDBRANCH  28  37
ENDBRANCH  27  28
ENDBRANCH   1  27
TORSDOF 9
