REMARK  Name = ZINC04546842
REMARK  6 active torsions:
REMARK  status: ('A' for Active; 'I' for Inactive)
REMARK    1  A    between atoms: C_1  and  C_2
REMARK    2  A    between atoms: C_2  and  N_51
REMARK    3  A    between atoms: C_5  and  C_6
REMARK    4  A    between atoms: C_16  and  C_24
REMARK    5  A    between atoms: C_18  and  C_22
REMARK    6  A    between atoms: C_19  and  N_21
REMARK                            x       y       z     vdW  Elec       q    Type
REMARK                         _______ _______ _______ _____ _____    ______ ____
ROOT
ATOM      1  C   UNL     1      -2.478  -0.078  -0.091  0.00  0.00    -0.039 C 
ATOM      2  C   UNL     1      -2.456   1.436  -0.080  0.00  0.00    -0.021 C 
ATOM      3  C   UNL     1      -1.300   2.116   0.020  0.00  0.00    +0.016 C 
ATOM      4  C   UNL     1      -3.752   2.139  -0.177  0.00  0.00    +0.130 C 
ATOM      5  C   UNL     1      -4.853   1.451  -0.488  0.00  0.00    -0.031 C 
ATOM      6  C   UNL     1      -4.811  -0.038  -0.723  0.00  0.00    -0.042 C 
ATOM      7  C   UNL     1      -6.184   2.155  -0.607  0.00  0.00    +0.095 C 
ATOM      8  C   UNL     1      -6.131   3.491   0.093  0.00  0.00    +0.098 C 
ATOM      9  C   UNL     1      -4.940   4.075   0.377  0.00  0.00    +0.199 C 
ATOM     10  O   UNL     1      -3.783   3.474   0.051  0.00  0.00    -0.441 OA
ATOM     11  N   UNL     1      -3.463  -0.471  -1.124  0.00  0.00    +0.385 N 
ATOM     12  H   UNL     1      -3.216  -0.016  -2.011  0.00  0.00    -0.081 HD
ENDROOT
BRANCH   3  13
ATOM     13  C   UNL     1      -0.042   1.397   0.283  0.00  0.00    +0.010 A 
ATOM     14  C   UNL     1      -0.039   0.265   1.103  0.00  0.00    +0.011 A 
ATOM     15  C   UNL     1       1.141  -0.408   1.341  0.00  0.00    +0.001 A 
ATOM     16  C   UNL     1       2.322   0.035   0.770  0.00  0.00    +0.003 A 
ATOM     17  C   UNL     1       2.329   1.155  -0.042  0.00  0.00    +0.039 A 
ATOM     18  C   UNL     1       1.155   1.839  -0.290  0.00  0.00    +0.131 A 
ATOM     19  F   UNL     1       1.163   2.932  -1.084  0.00  0.00    -0.205 F 
ENDBRANCH   3  13
BRANCH   7  20
ATOM     20  C   UNL     1      -6.516   2.350  -2.063  0.00  0.00    +0.000 A 
ATOM     21  C   UNL     1      -5.672   3.088  -2.872  0.00  0.00    +0.007 A 
ATOM     22  C   UNL     1      -5.976   3.267  -4.209  0.00  0.00    +0.000 A 
ATOM     23  C   UNL     1      -7.125   2.709  -4.738  0.00  0.00    +0.003 A 
ATOM     24  C   UNL     1      -7.970   1.970  -3.932  0.00  0.00    +0.038 A 
ATOM     25  C   UNL     1      -7.664   1.787  -2.594  0.00  0.00    +0.127 A 
ATOM     26  F   UNL     1      -8.487   1.061  -1.805  0.00  0.00    -0.205 F 
ENDBRANCH   7  20
BRANCH   9  27
ATOM     27  N   UNL     1      -4.917   5.295   1.006  0.00  0.00    -0.328 N 
ATOM     28  H   UNL     1      -4.069   5.718   1.213  0.00  0.00    +0.145 HD
ATOM     29  H   UNL     1      -5.749   5.734   1.244  0.00  0.00    +0.145 HD
ENDBRANCH   9  27
BRANCH  11  31
ATOM     30  C   UNL     1      -2.101  -2.338  -1.936  0.00  0.00    -0.017 C 
ATOM     31  C   UNL     1      -3.441  -1.939  -1.313  0.00  0.00    -0.081 C 
ENDBRANCH  11  31
BRANCH   8  32
ATOM     32  C   UNL     1      -7.349   4.153   0.451  0.00  0.00    +0.101 C 
ATOM     33  N   UNL     1      -8.315   4.679   0.735  0.00  0.00    -0.191 NA
ENDBRANCH   8  32
TORSDOF 5
