REMARK  Name = CHEMBL565263
REMARK  6 active torsions:
REMARK  status: ('A' for Active; 'I' for Inactive)
REMARK    1  A    between atoms: C_1  and  C_2
REMARK    2  A    between atoms: C_2  and  C_4
REMARK    3  A    between atoms: C_2  and  N_30
REMARK    4  A    between atoms: N_10  and  C_11
REMARK    5  A    between atoms: N_19  and  C_20
REMARK    6  A    between atoms: C_35  and  N_37
REMARK                            x       y       z     vdW  Elec       q    Type
REMARK                         _______ _______ _______ _____ _____    ______ ____
ROOT
ATOM      1  C   UNL     1       0.869  -0.427  -0.800  0.00  0.00    +0.111 C 
ATOM      2  C   UNL     1       2.333   0.002  -0.644  0.00  0.00    +0.133 C 
ATOM      3  N   UNL     1       3.006  -0.138  -1.943  0.00  0.00    -0.282 N 
ATOM      4  C   UNL     1       2.438   0.549  -3.112  0.00  0.00    +0.128 C 
ATOM      5  C   UNL     1       0.974   0.120  -3.269  0.00  0.00    +0.124 C 
ATOM      6  N   UNL     1       0.299   0.256  -1.970  0.00  0.00    -0.322 N 
ATOM      7  C   UNL     1       4.123  -0.882  -2.060  0.00  0.00    +0.307 C 
ATOM      8  O   UNL     1       4.532  -1.519  -1.109  0.00  0.00    -0.252 OA
ATOM      9  N   UNL     1       4.787  -0.920  -3.233  0.00  0.00    -0.269 N 
ATOM     10  H   UNL     1       4.493  -0.369  -3.975  0.00  0.00    +0.156 HD
ENDROOT
BRANCH   9  11
ATOM     11  C   UNL     1       5.898  -1.753  -3.379  0.00  0.00    +0.042 A 
ATOM     12  C   UNL     1       6.104  -2.797  -2.503  0.00  0.00    +0.024 A 
ATOM     13  C   UNL     1       7.209  -3.633  -2.640  0.00  0.00    +0.002 A 
ATOM     14  C   UNL     1       8.114  -3.443  -3.639  0.00  0.00    +0.008 A 
ATOM     15  C   UNL     1       7.941  -2.390  -4.553  0.00  0.00    -0.016 A 
ATOM     16  C   UNL     1       6.817  -1.536  -4.428  0.00  0.00    +0.003 A 
ATOM     17  C   UNL     1       6.642  -0.488  -5.345  0.00  0.00    +0.010 A 
ATOM     18  C   UNL     1       7.549  -0.309  -6.345  0.00  0.00    +0.001 A 
ATOM     19  C   UNL     1       8.651  -1.152  -6.473  0.00  0.00    +0.001 A 
ATOM     20  C   UNL     1       8.859  -2.171  -5.594  0.00  0.00    +0.008 A 
ENDBRANCH   9  11
BRANCH   6  21
ATOM     21  C   UNL     1      -0.857   1.022  -1.849  0.00  0.00    +0.033 A 
ATOM     22  C   UNL     1      -0.857   2.206  -1.111  0.00  0.00    +0.040 A 
ATOM     23  C   UNL     1      -2.023   2.936  -1.016  0.00  0.00    +0.084 A 
ATOM     24  N   UNL     1      -3.128   2.527  -1.612  0.00  0.00    -0.367 N 
ATOM     25  C   UNL     1      -3.168   1.413  -2.318  0.00  0.00    +0.084 A 
ATOM     26  C   UNL     1      -2.044   0.629  -2.467  0.00  0.00    +0.040 A 
ATOM     27  H   UNL     1      -3.933   3.061  -1.528  0.00  0.00    +0.165 HD
ENDBRANCH   6  21
BRANCH   1  29
ATOM     28  C   UNL     1       0.698  -0.731   1.673  0.00  0.00    +0.030 C 
ATOM     29  C   UNL     1       0.083  -0.040   0.454  0.00  0.00    +0.092 C 
BRANCH  29  30
ATOM     30  N   UNL     1      -1.312  -0.462   0.306  0.00  0.00    -0.309 N 
ATOM     31  C   UNL     1      -2.310   0.189   1.010  0.00  0.00    +0.217 A 
ATOM     32  N   UNL     1      -1.986   1.194   1.811  0.00  0.00    -0.223 NA
ATOM     33  C   UNL     1      -2.913   1.840   2.501  0.00  0.00    +0.118 A 
ATOM     34  C   UNL     1      -4.236   1.456   2.380  0.00  0.00    +0.066 A 
ATOM     35  C   UNL     1      -4.546   0.395   1.530  0.00  0.00    +0.144 A 
ATOM     36  N   UNL     1      -3.566  -0.206   0.864  0.00  0.00    -0.197 NA
ATOM     37  H   UNL     1      -1.536  -1.196  -0.287  0.00  0.00    +0.149 HD
BRANCH  35  38
ATOM     38  N   UNL     1      -5.865  -0.027   1.378  0.00  0.00    -0.283 N 
ATOM     39  C   UNL     1      -6.961   0.506   1.991  0.00  0.00    +0.206 A 
ATOM     40  N   UNL     1      -8.033  -0.130   1.620  0.00  0.00    -0.235 NA
ATOM     41  C   UNL     1      -7.702  -1.115   0.745  0.00  0.00    +0.089 A 
ATOM     42  C   UNL     1      -6.309  -1.060   0.572  0.00  0.00    +0.075 A 
ATOM     43  C   UNL     1      -5.682  -1.955  -0.282  0.00  0.00    +0.028 A 
ATOM     44  C   UNL     1      -6.429  -2.894  -0.962  0.00  0.00    +0.002 A 
ATOM     45  C   UNL     1      -7.805  -2.950  -0.797  0.00  0.00    +0.002 A 
ATOM     46  C   UNL     1      -8.444  -2.075   0.052  0.00  0.00    +0.030 A 
ENDBRANCH  35  38
ENDBRANCH  29  30
ENDBRANCH   1  29
TORSDOF 5
