REMARK  Name = CHEMBL248108
REMARK  6 active torsions:
REMARK  status: ('A' for Active; 'I' for Inactive)
REMARK    1  A    between atoms: C_3  and  C_8
REMARK    2  A    between atoms: C_8  and  N_9
REMARK    3  A    between atoms: C_13  and  N_18
REMARK    4  A    between atoms: C_21  and  C_28
REMARK    5  A    between atoms: C_28  and  N_29
REMARK    6  A    between atoms: C_32  and  N_35
REMARK                            x       y       z     vdW  Elec       q    Type
REMARK                         _______ _______ _______ _____ _____    ______ ____
ROOT
ATOM      1  N   UNL     1       3.488   6.680   4.944  0.00  0.00    -0.298 N 
ATOM      2  C   UNL     1       2.740   7.823   4.743  0.00  0.00    +0.151 A 
ATOM      3  C   UNL     1       2.541   8.743   5.798  0.00  0.00    +0.110 A 
ATOM      4  C   UNL     1       2.950   8.789   7.117  0.00  0.00    -0.003 A 
ATOM      5  C   UNL     1       2.429   9.964   7.661  0.00  0.00    +0.027 A 
ATOM      6  C   UNL     1       1.728  10.601   6.686  0.00  0.00    +0.113 A 
ATOM      7  N   UNL     1       1.787   9.874   5.555  0.00  0.00    -0.235 N 
ATOM      8  N   UNL     1       1.254  10.055   4.270  0.00  0.00    -0.155 NA
ATOM      9  C   UNL     1       1.476   9.167   3.341  0.00  0.00    +0.245 A 
ATOM     10  N   UNL     1       2.206   8.074   3.559  0.00  0.00    -0.217 NA
ATOM     11  H   UNL     1       3.827   6.471   5.829  0.00  0.00    +0.154 HD
ENDROOT
BRANCH   1  16
ATOM     12  N   UNL     1       4.787   3.253   0.813  0.00  0.00    -0.259 N 
ATOM     13  C   UNL     1       4.256   4.128   1.728  0.00  0.00    +0.069 A 
ATOM     14  C   UNL     1       3.031   4.783   1.833  0.00  0.00    +0.030 A 
ATOM     15  C   UNL     1       2.789   5.615   2.888  0.00  0.00    +0.025 A 
ATOM     16  C   UNL     1       3.757   5.821   3.871  0.00  0.00    +0.033 A 
ATOM     17  C   UNL     1       4.979   5.184   3.791  0.00  0.00    +0.034 A 
ATOM     18  C   UNL     1       5.240   4.328   2.714  0.00  0.00    +0.021 A 
ATOM     19  C   UNL     1       6.387   3.516   2.322  0.00  0.00    +0.143 A 
ATOM     20  N   UNL     1       6.080   2.903   1.214  0.00  0.00    -0.178 NA
BRANCH  12  21
ATOM     21  C   UNL     1       4.106   2.762  -0.387  0.00  0.00    +0.179 C 
BRANCH  21  24
ATOM     22  C   UNL     1       1.339   0.427   0.682  0.00  0.00    +0.003 A 
ATOM     23  C   UNL     1       2.036   1.581   0.376  0.00  0.00    +0.005 A 
ATOM     24  C   UNL     1       3.348   1.503  -0.054  0.00  0.00    -0.023 A 
ATOM     25  C   UNL     1       3.962   0.272  -0.180  0.00  0.00    +0.043 A 
ATOM     26  C   UNL     1       3.265  -0.884   0.126  0.00  0.00    +0.124 A 
ATOM     27  C   UNL     1       1.952  -0.805   0.557  0.00  0.00    +0.038 A 
ATOM     28  F   UNL     1       3.865  -2.088   0.003  0.00  0.00    -0.205 F 
ENDBRANCH  21  24
ENDBRANCH  12  21
ENDBRANCH   1  16
BRANCH   4  29
ATOM     29  C   UNL     1       3.795   7.766   7.832  0.00  0.00    +0.121 C 
BRANCH  29  30
ATOM     30  N   UNL     1       2.963   6.611   8.196  0.00  0.00    -0.298 NA
ATOM     31  C   UNL     1       1.979   6.975   9.223  0.00  0.00    +0.083 C 
ATOM     32  C   UNL     1       1.039   5.793   9.472  0.00  0.00    -0.001 C 
ATOM     33  C   UNL     1       1.858   4.583   9.928  0.00  0.00    -0.073 C 
ATOM     34  C   UNL     1       2.907   4.255   8.862  0.00  0.00    -0.001 C 
ATOM     35  C   UNL     1       3.793   5.481   8.631  0.00  0.00    +0.083 C 
BRANCH  33  36
ATOM     36  N   UNL     1       0.968   3.429  10.112  0.00  0.00    +0.380 N 
ATOM     37  H   UNL     1       0.510   3.215   9.239  0.00  0.00    -0.090 HD
ATOM     38  H   UNL     1       1.508   2.631  10.413  0.00  0.00    -0.090 HD
ATOM     39  H   UNL     1       0.274   3.647  10.811  0.00  0.00    -0.090 HD
ENDBRANCH  33  36
ENDBRANCH  29  30
ENDBRANCH   4  29
TORSDOF 6
