REMARK  Name = CHEMBL302481
REMARK  9 active torsions:
REMARK  status: ('A' for Active; 'I' for Inactive)
REMARK    1  A    between atoms: C_1  and  C_2
REMARK    2  A    between atoms: C_2  and  C_3
REMARK    3  A    between atoms: C_2  and  C_4
REMARK    4  A    between atoms: C_2  and  N_5
REMARK    5  A    between atoms: C_7  and  C_15
REMARK    6  A    between atoms: C_13  and  N_14
REMARK    7  A    between atoms: C_18  and  O_21
REMARK    8  A    between atoms: O_21  and  C_22
REMARK    9  A    between atoms: C_25  and  O_28
REMARK                            x       y       z     vdW  Elec       q    Type
REMARK                         _______ _______ _______ _____ _____    ______ ____
ROOT
ATOM      1  N   UNL     1       0.542  -0.444  -1.278  0.00  0.00    -0.326 N 
ATOM      2  C   UNL     1       1.086   0.362  -2.242  0.00  0.00    +0.097 A 
ATOM      3  C   UNL     1       1.701  -0.401  -3.179  0.00  0.00    +0.012 A 
ATOM      4  C   UNL     1       1.525  -1.798  -2.762  0.00  0.00    +0.066 A 
ATOM      5  C   UNL     1       0.795  -1.759  -1.561  0.00  0.00    +0.147 A 
ATOM      6  N   UNL     1       0.498  -2.910  -0.960  0.00  0.00    -0.218 NA
ATOM      7  C   UNL     1       0.882  -4.057  -1.477  0.00  0.00    +0.225 A 
ATOM      8  N   UNL     1       1.572  -4.138  -2.600  0.00  0.00    -0.220 NA
ATOM      9  C   UNL     1       1.909  -3.043  -3.277  0.00  0.00    +0.129 A 
ENDROOT
BRANCH   3  10
ATOM     10  C   UNL     1       2.413   0.081  -4.387  0.00  0.00    -0.015 A 
ATOM     11  C   UNL     1       3.695  -0.386  -4.676  0.00  0.00    +0.012 A 
ATOM     12  C   UNL     1       4.354   0.064  -5.801  0.00  0.00    +0.047 A 
ATOM     13  C   UNL     1       3.743   0.980  -6.645  0.00  0.00    +0.128 A 
ATOM     14  C   UNL     1       2.466   1.447  -6.361  0.00  0.00    +0.047 A 
ATOM     15  C   UNL     1       1.799   0.997  -5.241  0.00  0.00    +0.012 A 
BRANCH  13  16
ATOM     16  O   UNL     1       4.395   1.422  -7.753  0.00  0.00    -0.456 OA
BRANCH  16  17
ATOM     17  C   UNL     1       4.774   2.727  -7.792  0.00  0.00    +0.129 A 
ATOM     18  C   UNL     1       5.323   3.255  -8.952  0.00  0.00    +0.050 A 
ATOM     19  C   UNL     1       5.709   4.580  -8.992  0.00  0.00    +0.049 A 
ATOM     20  C   UNL     1       5.548   5.383  -7.873  0.00  0.00    +0.117 A 
ATOM     21  C   UNL     1       5.000   4.856  -6.713  0.00  0.00    +0.049 A 
ATOM     22  C   UNL     1       4.608   3.531  -6.675  0.00  0.00    +0.050 A 
BRANCH  20  23
ATOM     23  O   UNL     1       5.928   6.689  -7.912  0.00  0.00    -0.507 OA
ATOM     24  H   UNL     1       5.230   7.293  -8.202  0.00  0.00    +0.292 HD
ENDBRANCH  20  23
ENDBRANCH  16  17
ENDBRANCH  13  16
ENDBRANCH   3  10
BRANCH   1  26
ATOM     25  C   UNL     1      -0.273   1.562  -0.140  0.00  0.00    +0.034 C 
ATOM     26  C   UNL     1      -0.199   0.034  -0.108  0.00  0.00    +0.039 C 
ATOM     27  C   UNL     1       0.517  -0.416   1.167  0.00  0.00    +0.034 C 
ATOM     28  C   UNL     1      -1.615  -0.546  -0.130  0.00  0.00    +0.034 C 
ENDBRANCH   1  26
BRANCH   9  29
ATOM     29  N   UNL     1       2.633  -3.131  -4.453  0.00  0.00    -0.343 N 
ATOM     30  H   UNL     1       2.880  -2.325  -4.932  0.00  0.00    +0.144 HD
ATOM     31  H   UNL     1       2.893  -3.999  -4.798  0.00  0.00    +0.144 HD
ENDBRANCH   9  29
TORSDOF 6
