REMARK  Name = CHEMBL49860
REMARK  13 active torsions:
REMARK  status: ('A' for Active; 'I' for Inactive)
REMARK    1  A    between atoms: C_3  and  O_31
REMARK    2  A    between atoms: C_4  and  N_30
REMARK    3  A    between atoms: C_6  and  C_7
REMARK    4  A    between atoms: C_7  and  C_8
REMARK    5  A    between atoms: C_8  and  C_9
REMARK    6  A    between atoms: C_8  and  N_29
REMARK    7  A    between atoms: N_11  and  C_12
REMARK    8  A    between atoms: C_12  and  C_18
REMARK    9  A    between atoms: N_20  and  C_21
REMARK   10  A    between atoms: C_21  and  C_22
REMARK   11  A    between atoms: C_21  and  C_26
REMARK   12  A    between atoms: C_22  and  C_23
REMARK   13  A    between atoms: O_31  and  P_32
REMARK                            x       y       z     vdW  Elec       q    Type
REMARK                         _______ _______ _______ _____ _____    ______ ____
ROOT
ATOM      1  C   UNL     1      -3.121  -1.896  -1.265  0.00  0.00    +0.200 C 
ATOM      2  O   UNL     1      -3.308  -3.089  -1.379  0.00  0.00    -0.278 OA
ATOM      3  N   UNL     1      -4.170  -1.054  -1.184  0.00  0.00    -0.303 N 
ATOM      4  H   UNL     1      -4.023  -0.109  -1.023  0.00  0.00    +0.150 HD
ENDROOT
BRANCH   3   5
ATOM      5  C   UNL     1      -5.534  -1.567  -1.338  0.00  0.00    +0.110 C 
ATOM      6  C   UNL     1      -5.835  -2.563  -0.217  0.00  0.00    +0.035 C 
ATOM      7  C   UNL     1      -5.704  -1.862   1.137  0.00  0.00    +0.003 C 
ATOM      8  C   UNL     1      -6.696  -0.700   1.208  0.00  0.00    +0.000 C 
ATOM      9  C   UNL     1      -6.396   0.296   0.086  0.00  0.00    +0.003 C 
ATOM     10  C   UNL     1      -6.527  -0.405  -1.268  0.00  0.00    +0.035 C 
BRANCH   5  11
ATOM     11  C   UNL     1      -5.663  -2.257  -2.671  0.00  0.00    +0.237 C 
ATOM     12  O   UNL     1      -6.366  -3.240  -2.780  0.00  0.00    -0.273 OA
ATOM     13  N   UNL     1      -4.998  -1.783  -3.743  0.00  0.00    -0.302 N 
ATOM     14  H   UNL     1      -4.493  -0.958  -3.675  0.00  0.00    +0.150 HD
BRANCH  13  15
ATOM     15  C   UNL     1      -5.035  -2.515  -5.012  0.00  0.00    +0.167 C 
BRANCH  15  16
ATOM     16  C   UNL     1      -3.974  -3.585  -5.006  0.00  0.00    +0.231 C 
ATOM     17  O   UNL     1      -3.256  -3.722  -4.038  0.00  0.00    -0.274 OA
ATOM     18  N   UNL     1      -3.822  -4.389  -6.077  0.00  0.00    -0.328 N 
ATOM     19  H   UNL     1      -4.396  -4.279  -6.852  0.00  0.00    +0.145 HD
ATOM     20  H   UNL     1      -3.138  -5.077  -6.074  0.00  0.00    +0.145 HD
ENDBRANCH  15  16
BRANCH  15  21
ATOM     21  C   UNL     1      -4.778  -1.546  -6.168  0.00  0.00    +0.127 C 
BRANCH  21  22
ATOM     22  C   UNL     1      -5.905  -0.550  -6.248  0.00  0.00    +0.213 C 
ATOM     23  O   UNL     1      -6.824  -0.609  -5.459  0.00  0.00    -0.276 OA
ATOM     24  N   UNL     1      -5.892   0.407  -7.198  0.00  0.00    -0.329 N 
ATOM     25  H   UNL     1      -5.157   0.454  -7.829  0.00  0.00    +0.145 HD
ATOM     26  H   UNL     1      -6.618   1.048  -7.250  0.00  0.00    +0.145 HD
ENDBRANCH  21  22
ENDBRANCH  15  21
ENDBRANCH  13  15
ENDBRANCH   5  11
ENDBRANCH   3   5
BRANCH   1  27
ATOM     27  C   UNL     1      -1.715  -1.355  -1.215  0.00  0.00    +0.017 C 
BRANCH  27  28
ATOM     28  N   UNL     1      -0.790  -2.342  -1.786  0.00  0.00    +0.386 N 
ATOM     29  H   UNL     1      -1.045  -2.527  -2.745  0.00  0.00    -0.089 HD
ATOM     30  H   UNL     1       0.151  -1.980  -1.753  0.00  0.00    -0.089 HD
ATOM     31  H   UNL     1      -0.840  -3.197  -1.254  0.00  0.00    -0.089 HD
ENDBRANCH  27  28
BRANCH  27  32
ATOM     32  C   UNL     1      -1.328  -1.073   0.238  0.00  0.00    +0.028 C 
BRANCH  32  38
ATOM     33  C   UNL     1       0.131   0.959   0.227  0.00  0.00    +0.007 A 
ATOM     34  C   UNL     1       1.373   1.566   0.264  0.00  0.00    +0.048 A 
ATOM     35  C   UNL     1       2.519   0.793   0.354  0.00  0.00    +0.153 A 
ATOM     36  C   UNL     1       2.417  -0.595   0.406  0.00  0.00    +0.068 A 
ATOM     37  C   UNL     1       1.167  -1.197   0.368  0.00  0.00    +0.030 A 
ATOM     38  C   UNL     1       0.028  -0.418   0.279  0.00  0.00    -0.047 A 
BRANCH  36  39
ATOM     39  N   UNL     1       3.571  -1.381   0.496  0.00  0.00    -0.355 N 
ATOM     40  H   UNL     1       4.444  -0.959   0.522  0.00  0.00    +0.142 HD
ATOM     41  H   UNL     1       3.499  -2.348   0.532  0.00  0.00    +0.142 HD
ENDBRANCH  36  39
BRANCH  35  42
ATOM     42  O   UNL     1       3.741   1.389   0.390  0.00  0.00    -0.399 OA
BRANCH  42  43
ATOM     43  P   UNL     1       4.093   2.076   1.802  0.00  0.00    +0.589 P 
ATOM     44  O   UNL     1       2.963   3.091   2.185  0.00  0.00    -0.211 OA
ATOM     45  O   UNL     1       4.200   0.972   2.909  0.00  0.00    -0.104 OA
ATOM     46  O   UNL     1       5.459   2.835   1.688  0.00  0.00    -0.104 OA
ENDBRANCH  42  43
ENDBRANCH  35  42
ENDBRANCH  32  38
ENDBRANCH  27  32
ENDBRANCH   1  27
TORSDOF 13
