REMARK  Name = CHEMBL379729
REMARK  6 active torsions:
REMARK  status: ('A' for Active; 'I' for Inactive)
REMARK    1  A    between atoms: C_1  and  N_2
REMARK    2  A    between atoms: N_5  and  N_8
REMARK    3  A    between atoms: C_11  and  N_15
REMARK    4  A    between atoms: N_15  and  C_16
REMARK    5  A    between atoms: C_19  and  N_22
REMARK    6  A    between atoms: N_30  and  C_31
REMARK                            x       y       z     vdW  Elec       q    Type
REMARK                         _______ _______ _______ _____ _____    ______ ____
ROOT
ATOM      1  N   UNL     1      -0.447  -3.904   0.927  0.00  0.00    -0.168 N 
ATOM      2  C   UNL     1      -1.470  -4.278   1.791  0.00  0.00    +0.148 A 
ATOM      3  C   UNL     1      -2.372  -5.272   1.427  0.00  0.00    +0.089 A 
ATOM      4  C   UNL     1      -3.379  -5.611   2.327  0.00  0.00    +0.128 A 
ATOM      5  N   UNL     1      -3.440  -4.976   3.496  0.00  0.00    -0.221 NA
ATOM      6  C   UNL     1      -2.566  -4.040   3.804  0.00  0.00    +0.225 A 
ATOM      7  N   UNL     1      -1.597  -3.695   2.981  0.00  0.00    -0.219 NA
ATOM      8  C   UNL     1      -0.457  -4.327  -0.353  0.00  0.00    +0.326 C 
ATOM      9  O   UNL     1      -1.426  -4.916  -0.791  0.00  0.00    -0.251 OA
ATOM     10  N   UNL     1       0.608  -4.096  -1.147  0.00  0.00    -0.265 N 
ATOM     11  H   UNL     1       1.424  -3.732  -0.770  0.00  0.00    +0.157 HD
ENDROOT
BRANCH  10  12
ATOM     12  C   UNL     1       0.535  -4.383  -2.516  0.00  0.00    +0.072 A 
ATOM     13  C   UNL     1       0.078  -5.623  -2.945  0.00  0.00    +0.064 A 
ATOM     14  C   UNL     1       0.007  -5.902  -4.297  0.00  0.00    +0.022 A 
ATOM     15  C   UNL     1       0.391  -4.949  -5.222  0.00  0.00    +0.003 A 
ATOM     16  C   UNL     1       0.847  -3.713  -4.799  0.00  0.00    +0.022 A 
ATOM     17  C   UNL     1       0.914  -3.425  -3.449  0.00  0.00    +0.064 A 
ATOM     18 CL   UNL     1       1.479  -1.871  -2.919  0.00  0.00    -0.082 Cl
ATOM     19 CL   UNL     1      -0.403  -6.820  -1.784  0.00  0.00    -0.082 Cl
ENDBRANCH  10  12
BRANCH   1  24
ATOM     20  C   UNL     1       4.190  -0.955   1.692  0.00  0.00    +0.105 C 
ATOM     21  N   UNL     1       3.098  -1.812   1.210  0.00  0.00    -0.303 NA
ATOM     22  C   UNL     1       1.853  -1.046   1.063  0.00  0.00    +0.101 C 
ATOM     23  C   UNL     1       0.764  -1.954   0.485  0.00  0.00    +0.121 C 
ATOM     24  N   UNL     1       0.568  -3.107   1.375  0.00  0.00    -0.215 NA
ATOM     25  C   UNL     1       1.813  -3.873   1.522  0.00  0.00    +0.121 C 
ATOM     26  C   UNL     1       2.902  -2.965   2.100  0.00  0.00    +0.101 C 
ENDBRANCH   1  24
BRANCH   4  27
ATOM     27  N   UNL     1      -4.303  -6.595   2.011  0.00  0.00    -0.299 N 
ATOM     28  H   UNL     1      -4.268  -7.034   1.147  0.00  0.00    +0.154 HD
BRANCH  27  29
ATOM     29  C   UNL     1      -5.288  -6.955   2.940  0.00  0.00    +0.032 A 
ATOM     30  C   UNL     1      -5.697  -6.045   3.906  0.00  0.00    +0.025 A 
ATOM     31  C   UNL     1      -6.668  -6.400   4.822  0.00  0.00    +0.025 A 
ATOM     32  C   UNL     1      -7.235  -7.667   4.777  0.00  0.00    +0.030 A 
ATOM     33  C   UNL     1      -6.826  -8.577   3.810  0.00  0.00    +0.025 A 
ATOM     34  C   UNL     1      -5.859  -8.220   2.892  0.00  0.00    +0.025 A 
BRANCH  32  35
ATOM     35  N   UNL     1      -8.218  -8.027   5.705  0.00  0.00    -0.326 N 
ATOM     36  C   UNL     1      -8.728  -9.405   5.772  0.00  0.00    +0.133 C 
ATOM     37  C   UNL     1      -8.662  -9.875   7.230  0.00  0.00    +0.178 C 
ATOM     38  O   UNL     1      -9.315  -8.915   8.064  0.00  0.00    -0.377 OA
ATOM     39  C   UNL     1      -8.704  -7.623   8.059  0.00  0.00    +0.178 C 
ATOM     40  C   UNL     1      -8.768  -7.039   6.647  0.00  0.00    +0.133 C 
ENDBRANCH  32  35
ENDBRANCH  27  29
ENDBRANCH   4  27
TORSDOF 5
