REMARK  Name = CHEMBL213356
REMARK  5 active torsions:
REMARK  status: ('A' for Active; 'I' for Inactive)
REMARK    1  A    between atoms: C_1  and  N_2
REMARK    2  A    between atoms: N_5  and  C_8
REMARK    3  A    between atoms: C_11  and  N_14
REMARK    4  A    between atoms: C_27  and  C_29
REMARK    5  A    between atoms: C_31  and  O_36
REMARK                            x       y       z     vdW  Elec       q    Type
REMARK                         _______ _______ _______ _____ _____    ______ ____
ROOT
ATOM      1  N   UNL     1      -2.316  -6.728   4.197  0.00  0.00    -0.284 N 
ATOM      2  C   UNL     1      -1.504  -7.224   5.203  0.00  0.00    +0.221 A 
ATOM      3  N   UNL     1      -0.303  -6.690   5.376  0.00  0.00    -0.222 NA
ATOM      4  C   UNL     1       0.512  -7.129   6.325  0.00  0.00    +0.125 A 
ATOM      5  C   UNL     1       0.079  -8.169   7.142  0.00  0.00    +0.036 A 
ATOM      6  C   UNL     1      -1.204  -8.713   6.930  0.00  0.00    +0.150 A 
ATOM      7  N   UNL     1      -1.958  -8.213   5.962  0.00  0.00    -0.197 NA
ATOM      8  N   UNL     1      -1.651  -9.748   7.733  0.00  0.00    -0.226 N 
ATOM      9  C   UNL     1      -2.932 -10.472   7.709  0.00  0.00    +0.139 C 
ATOM     10  C   UNL     1      -2.816 -11.501   8.845  0.00  0.00    +0.118 C 
ATOM     11  C   UNL     1      -1.445 -11.261   9.427  0.00  0.00    +0.238 C 
ATOM     12  O   UNL     1      -0.960 -11.873  10.355  0.00  0.00    -0.274 OA
ATOM     13  N   UNL     1      -0.842 -10.258   8.752  0.00  0.00    -0.186 N 
ATOM     14  C   UNL     1       0.438  -9.723   8.974  0.00  0.00    +0.066 C 
ATOM     15  C   UNL     1       0.917  -8.716   8.217  0.00  0.00    +0.038 C 
ATOM     16  H   UNL     1      -3.229  -7.045   4.110  0.00  0.00    +0.155 HD
ENDROOT
BRANCH  14  17
ATOM     17  C   UNL     1       1.276 -10.277  10.057  0.00  0.00    +0.020 A 
ATOM     18  C   UNL     1       0.888 -10.127  11.390  0.00  0.00    +0.056 A 
ATOM     19  C   UNL     1       1.678 -10.649  12.399  0.00  0.00    +0.118 A 
ATOM     20  C   UNL     1       2.853 -11.320  12.086  0.00  0.00    +0.047 A 
ATOM     21  C   UNL     1       3.240 -11.471  10.768  0.00  0.00    +0.024 A 
ATOM     22  C   UNL     1       2.457 -10.959   9.751  0.00  0.00    +0.050 A 
ATOM     23 CL   UNL     1       2.942 -11.157   8.097  0.00  0.00    -0.083 Cl
BRANCH  19  24
ATOM     24  O   UNL     1       1.304 -10.504  13.698  0.00  0.00    -0.507 OA
ATOM     25  H   UNL     1       0.749 -11.223  14.030  0.00  0.00    +0.292 HD
ENDBRANCH  19  24
ENDBRANCH  14  17
BRANCH   1  29
ATOM     26  C   UNL     1      -0.839  -3.871   1.542  0.00  0.00    +0.030 A 
ATOM     27  C   UNL     1       0.001  -4.861   2.035  0.00  0.00    +0.025 A 
ATOM     28  C   UNL     1      -0.488  -5.807   2.914  0.00  0.00    +0.025 A 
ATOM     29  C   UNL     1      -1.820  -5.768   3.306  0.00  0.00    +0.034 A 
ATOM     30  C   UNL     1      -2.660  -4.778   2.813  0.00  0.00    +0.025 A 
ATOM     31  C   UNL     1      -2.170  -3.828   1.939  0.00  0.00    +0.025 A 
BRANCH  26  36
ATOM     32  C   UNL     1       0.653  -1.609  -3.198  0.00  0.00    -0.096 C 
ATOM     33  N   UNL     1       0.435  -1.710  -1.748  0.00  0.00    +0.380 N 
ATOM     34  C   UNL     1       1.224  -2.827  -1.213  0.00  0.00    -0.060 C 
ATOM     35  C   UNL     1       1.087  -2.863   0.312  0.00  0.00    +0.086 C 
ATOM     36  N   UNL     1      -0.344  -2.912   0.651  0.00  0.00    -0.333 N 
ATOM     37  C   UNL     1      -1.239  -1.925   0.027  0.00  0.00    +0.086 C 
ATOM     38  C   UNL     1      -0.992  -1.934  -1.485  0.00  0.00    -0.060 C 
ATOM     39  H   UNL     1       0.727  -0.852  -1.305  0.00  0.00    -0.082 HD
ENDBRANCH  26  36
ENDBRANCH   1  29
TORSDOF 4
