REMARK  Name = CHEMBL215952
REMARK  2 active torsions:
REMARK  status: ('A' for Active; 'I' for Inactive)
REMARK    1  A    between atoms: C_1  and  C_2
REMARK    2  A    between atoms: C_7  and  C_8
REMARK                            x       y       z     vdW  Elec       q    Type
REMARK                         _______ _______ _______ _____ _____    ______ ____
ROOT
ATOM      1  C   UNL     1       0.025   0.022   2.495  0.00  0.00    -0.017 A 
ATOM      2  C   UNL     1       0.943   1.063   2.704  0.00  0.00    +0.010 A 
ATOM      3  C   UNL     1       0.967   1.749   3.878  0.00  0.00    +0.029 A 
ATOM      4  C   UNL     1       0.065   1.419   4.901  0.00  0.00    +0.076 A 
ATOM      5  C   UNL     1      -0.868   0.367   4.699  0.00  0.00    +0.019 A 
ATOM      6  C   UNL     1      -0.881  -0.325   3.481  0.00  0.00    +0.020 A 
ATOM      7  C   UNL     1      -1.762   0.057   5.742  0.00  0.00    +0.124 A 
ATOM      8  N   UNL     1      -1.694   0.754   6.856  0.00  0.00    -0.222 NA
ATOM      9  C   UNL     1      -0.806   1.735   7.011  0.00  0.00    +0.213 A 
ATOM     10  N   UNL     1       0.056   2.070   6.070  0.00  0.00    -0.215 NA
ATOM     11  N   UNL     1      -0.787   2.430   8.206  0.00  0.00    -0.327 N 
ATOM     12  H   UNL     1      -1.412   2.200   8.911  0.00  0.00    +0.145 HD
ATOM     13  H   UNL     1      -0.148   3.147   8.340  0.00  0.00    +0.145 HD
ENDROOT
BRANCH   1  20
ATOM     14  C   UNL     1      -0.018   1.503   0.010  0.00  0.00    +0.044 C 
ATOM     15  C   UNL     1       0.002  -0.004   0.002  0.00  0.00    -0.043 A 
ATOM     16  C   UNL     1       0.006  -0.689  -1.196  0.00  0.00    +0.004 A 
ATOM     17  C   UNL     1       0.024  -2.072  -1.206  0.00  0.00    +0.000 A 
ATOM     18  C   UNL     1       0.039  -2.776  -0.015  0.00  0.00    +0.001 A 
ATOM     19  C   UNL     1       0.036  -2.102   1.189  0.00  0.00    +0.009 A 
ATOM     20  C   UNL     1       0.023  -0.709   1.204  0.00  0.00    -0.015 A 
ENDBRANCH   1  20
TORSDOF 1
