REMARK  Name = CHEMBL567880
REMARK  6 active torsions:
REMARK  status: ('A' for Active; 'I' for Inactive)
REMARK    1  A    between atoms: C_1  and  C_2
REMARK    2  A    between atoms: C_2  and  C_3
REMARK    3  A    between atoms: C_2  and  N_18
REMARK    4  A    between atoms: C_9  and  O_11
REMARK    5  A    between atoms: O_11  and  C_12
REMARK    6  A    between atoms: C_23  and  N_25
REMARK                            x       y       z     vdW  Elec       q    Type
REMARK                         _______ _______ _______ _____ _____    ______ ____
ROOT
ATOM      1  C   UNL     1       0.025   1.627   0.120  0.00  0.00    +0.028 C 
ATOM      2  C   UNL     1       0.008   0.097   0.091  0.00  0.00    +0.075 C 
ENDROOT
BRANCH   2   3
ATOM      3  C   UNL     1       0.761  -0.444   1.309  0.00  0.00    +0.027 C 
ATOM      4  C   UNL     1       2.210   0.047   1.274  0.00  0.00    +0.008 C 
ATOM      5  C   UNL     1       2.955  -0.466   2.508  0.00  0.00    +0.019 C 
ATOM      6  C   UNL     1       2.963  -1.998   2.493  0.00  0.00    +0.111 C 
ATOM      7  N   UNL     1       1.579  -2.478   2.381  0.00  0.00    -0.267 N 
ATOM      8  C   UNL     1       0.745  -1.976   1.280  0.00  0.00    +0.116 C 
ATOM      9  C   UNL     1       1.085  -3.362   3.269  0.00  0.00    +0.408 C 
ATOM     10  O   UNL     1      -0.062  -3.751   3.166  0.00  0.00    -0.226 OA
BRANCH   9  11
ATOM     11  O   UNL     1       1.861  -3.814   4.273  0.00  0.00    -0.411 OA
BRANCH  11  12
ATOM     12  C   UNL     1       1.292  -4.625   5.204  0.00  0.00    +0.133 A 
ATOM     13  C   UNL     1       0.950  -4.119   6.450  0.00  0.00    +0.046 A 
ATOM     14  C   UNL     1       0.372  -4.945   7.394  0.00  0.00    +0.004 A 
ATOM     15  C   UNL     1       0.135  -6.275   7.099  0.00  0.00    +0.000 A 
ATOM     16  C   UNL     1       0.475  -6.781   5.859  0.00  0.00    +0.004 A 
ATOM     17  C   UNL     1       1.048  -5.958   4.908  0.00  0.00    +0.046 A 
ENDBRANCH  11  12
ENDBRANCH   9  11
ENDBRANCH   2   3
BRANCH   2  18
ATOM     18  N   UNL     1      -1.377  -0.377   0.124  0.00  0.00    -0.311 N 
ATOM     19  C   UNL     1      -2.101  -0.479  -1.052  0.00  0.00    +0.217 A 
ATOM     20  N   UNL     1      -1.523  -0.149  -2.197  0.00  0.00    -0.223 NA
ATOM     21  C   UNL     1      -2.184  -0.235  -3.342  0.00  0.00    +0.118 A 
ATOM     22  C   UNL     1      -3.495  -0.675  -3.334  0.00  0.00    +0.066 A 
ATOM     23  C   UNL     1      -4.075  -1.015  -2.113  0.00  0.00    +0.144 A 
ATOM     24  N   UNL     1      -3.353  -0.910  -1.004  0.00  0.00    -0.197 NA
ATOM     25  H   UNL     1      -1.788  -0.620   0.969  0.00  0.00    +0.149 HD
BRANCH  23  26
ATOM     26  N   UNL     1      -5.394  -1.463  -2.058  0.00  0.00    -0.283 N 
ATOM     27  C   UNL     1      -6.239  -1.625  -3.117  0.00  0.00    +0.206 A 
ATOM     28  N   UNL     1      -7.393  -2.059  -2.704  0.00  0.00    -0.235 NA
ATOM     29  C   UNL     1      -7.372  -2.206  -1.354  0.00  0.00    +0.089 A 
ATOM     30  C   UNL     1      -6.089  -1.831  -0.920  0.00  0.00    +0.075 A 
ATOM     31  C   UNL     1      -5.771  -1.885   0.429  0.00  0.00    +0.028 A 
ATOM     32  C   UNL     1      -6.715  -2.309   1.340  0.00  0.00    +0.002 A 
ATOM     33  C   UNL     1      -7.982  -2.684   0.917  0.00  0.00    +0.002 A 
ATOM     34  C   UNL     1      -8.318  -2.629  -0.417  0.00  0.00    +0.030 A 
ENDBRANCH  23  26
ENDBRANCH   2  18
TORSDOF 5
