REMARK  Name = CHEMBL568543
REMARK  7 active torsions:
REMARK  status: ('A' for Active; 'I' for Inactive)
REMARK    1  A    between atoms: C_1  and  C_2
REMARK    2  A    between atoms: C_2  and  C_3
REMARK    3  A    between atoms: C_2  and  N_17
REMARK    4  A    between atoms: N_5  and  C_10
REMARK    5  A    between atoms: N_8  and  C_9
REMARK    6  A    between atoms: C_10  and  C_11
REMARK    7  A    between atoms: C_22  and  N_24
REMARK                            x       y       z     vdW  Elec       q    Type
REMARK                         _______ _______ _______ _____ _____    ______ ____
ROOT
ATOM      1  N   UNL     1       0.811  -0.956  -1.293  0.00  0.00    -0.309 N 
ATOM      2  C   UNL     1       1.877  -0.200  -1.748  0.00  0.00    +0.217 A 
ATOM      3  N   UNL     1       2.253   0.869  -1.060  0.00  0.00    -0.223 NA
ATOM      4  C   UNL     1       3.268   1.616  -1.464  0.00  0.00    +0.118 A 
ATOM      5  C   UNL     1       3.943   1.272  -2.621  0.00  0.00    +0.066 A 
ATOM      6  C   UNL     1       3.525   0.142  -3.323  0.00  0.00    +0.144 A 
ATOM      7  N   UNL     1       2.501  -0.565  -2.858  0.00  0.00    -0.197 NA
ATOM      8  H   UNL     1       0.586  -1.790  -1.733  0.00  0.00    +0.149 HD
ENDROOT
BRANCH   6   9
ATOM      9  N   UNL     1       4.175  -0.242  -4.495  0.00  0.00    -0.283 N 
ATOM     10  C   UNL     1       5.307   0.316  -5.013  0.00  0.00    +0.206 A 
ATOM     11  N   UNL     1       5.638  -0.289  -6.115  0.00  0.00    -0.235 NA
ATOM     12  C   UNL     1       4.744  -1.277  -6.383  0.00  0.00    +0.089 A 
ATOM     13  C   UNL     1       3.796  -1.265  -5.346  0.00  0.00    +0.075 A 
ATOM     14  C   UNL     1       2.753  -2.179  -5.351  0.00  0.00    +0.028 A 
ATOM     15  C   UNL     1       2.651  -3.099  -6.374  0.00  0.00    +0.002 A 
ATOM     16  C   UNL     1       3.587  -3.117  -7.398  0.00  0.00    +0.002 A 
ATOM     17  C   UNL     1       4.624  -2.212  -7.414  0.00  0.00    +0.030 A 
ENDBRANCH   6   9
BRANCH   1  19
ATOM     18  C   UNL     1       0.745  -0.869   1.150  0.00  0.00    +0.029 C 
ATOM     19  C   UNL     1       0.024  -0.495  -0.147  0.00  0.00    +0.088 C 
BRANCH  19  20
ATOM     20  C   UNL     1      -1.354  -1.161  -0.174  0.00  0.00    +0.090 C 
ATOM     21  C   UNL     1      -1.187  -2.682  -0.136  0.00  0.00    +0.105 C 
ATOM     22  N   UNL     1      -0.441  -3.120  -1.323  0.00  0.00    -0.295 NA
ATOM     23  C   UNL     1      -1.145  -2.739  -2.555  0.00  0.00    +0.100 C 
ATOM     24  C   UNL     1      -1.312  -1.218  -2.594  0.00  0.00    +0.100 C 
ATOM     25  N   UNL     1      -2.058  -0.779  -1.406  0.00  0.00    -0.298 NA
ATOM     26  C   UNL     1      -2.305   0.668  -1.444  0.00  0.00    +0.105 C 
BRANCH  22  27
ATOM     27  C   UNL     1      -0.194  -4.568  -1.285  0.00  0.00    +0.119 C 
BRANCH  27  28
ATOM     28  C   UNL     1       0.686  -4.958  -2.445  0.00  0.00    -0.033 A 
ATOM     29  C   UNL     1       0.125  -5.228  -3.678  0.00  0.00    +0.005 A 
ATOM     30  C   UNL     1       0.932  -5.586  -4.742  0.00  0.00    +0.000 A 
ATOM     31  C   UNL     1       2.301  -5.674  -4.571  0.00  0.00    +0.000 A 
ATOM     32  C   UNL     1       2.863  -5.403  -3.338  0.00  0.00    +0.000 A 
ATOM     33  C   UNL     1       2.056  -5.041  -2.275  0.00  0.00    +0.005 A 
ENDBRANCH  27  28
ENDBRANCH  22  27
ENDBRANCH  19  20
ENDBRANCH   1  19
TORSDOF 5
