REMARK  Name = CHEMBL565885
REMARK  7 active torsions:
REMARK  status: ('A' for Active; 'I' for Inactive)
REMARK    1  A    between atoms: C_1  and  C_2
REMARK    2  A    between atoms: C_7  and  N_8
REMARK    3  A    between atoms: C_10  and  C_15
REMARK    4  A    between atoms: C_17  and  N_21
REMARK    5  A    between atoms: N_21  and  C_22
REMARK    6  A    between atoms: C_26  and  N_27
REMARK    7  A    between atoms: N_27  and  C_28
REMARK                            x       y       z     vdW  Elec       q    Type
REMARK                         _______ _______ _______ _____ _____    ______ ____
ROOT
ATOM      1  C   UNL     1      -2.115   0.343   0.780  0.00  0.00    +0.045 C 
ATOM      2  C   UNL     1      -0.899  -0.348   0.222  0.00  0.00    -0.029 A 
ATOM      3  C   UNL     1      -0.919  -0.830  -1.083  0.00  0.00    +0.006 A 
ATOM      4  C   UNL     1       0.164  -1.460  -1.620  0.00  0.00    +0.012 A 
ATOM      5  C   UNL     1       1.323  -1.630  -0.850  0.00  0.00    +0.024 A 
ATOM      6  C   UNL     1       1.356  -1.144   0.480  0.00  0.00    +0.008 A 
ATOM      7  C   UNL     1       0.226  -0.492   1.009  0.00  0.00    +0.043 A 
ATOM      8  C   UNL     1       2.533  -1.328   1.229  0.00  0.00    +0.030 A 
ATOM      9  C   UNL     1       3.588  -1.963   0.649  0.00  0.00    +0.113 A 
ATOM     10  N   UNL     1       3.539  -2.411  -0.598  0.00  0.00    -0.240 NA
ATOM     11  C   UNL     1       2.471  -2.276  -1.361  0.00  0.00    +0.131 A 
ENDROOT
BRANCH   7  12
ATOM     12  N   UNL     1       0.240  -0.002   2.315  0.00  0.00    -0.298 N 
ATOM     13  C   UNL     1       0.392   1.358   2.544  0.00  0.00    +0.132 A 
ATOM     14  C   UNL     1       0.580   1.828   3.852  0.00  0.00    +0.041 A 
ATOM     15  C   UNL     1       0.731   3.200   4.059  0.00  0.00    +0.015 A 
ATOM     16  C   UNL     1       0.688   4.041   2.959  0.00  0.00    +0.020 A 
ATOM     17  C   UNL     1       0.499   3.504   1.699  0.00  0.00    +0.113 A 
ATOM     18  N   UNL     1       0.364   2.203   1.526  0.00  0.00    -0.240 NA
ATOM     19  H   UNL     1       0.144  -0.612   3.063  0.00  0.00    +0.154 HD
BRANCH  14  20
ATOM     20  C   UNL     1       0.617   0.885   4.994  0.00  0.00    +0.079 A 
ATOM     21  C   UNL     1       0.955   1.332   6.270  0.00  0.00    +0.072 A 
ATOM     22  C   UNL     1       0.975   0.404   7.309  0.00  0.00    +0.122 A 
ATOM     23  N   UNL     1       0.674  -0.866   7.047  0.00  0.00    -0.221 NA
ATOM     24  C   UNL     1       0.360  -1.250   5.826  0.00  0.00    +0.223 A 
ATOM     25  N   UNL     1       0.323  -0.405   4.817  0.00  0.00    -0.235 NA
BRANCH  22  26
ATOM     26  N   UNL     1       1.304   0.797   8.597  0.00  0.00    -0.332 N 
ATOM     27  C   UNL     1       1.635   2.197   8.873  0.00  0.00    +0.127 C 
ATOM     28  H   UNL     1       1.316   0.144   9.315  0.00  0.00    +0.147 HD
ENDBRANCH  22  26
ENDBRANCH  14  20
ENDBRANCH   7  12
BRANCH  11  29
ATOM     29  N   UNL     1       2.476  -2.765  -2.658  0.00  0.00    -0.299 N 
ATOM     30  H   UNL     1       1.716  -2.605  -3.239  0.00  0.00    +0.154 HD
BRANCH  29  31
ATOM     31  C   UNL     1       3.576  -3.488  -3.128  0.00  0.00    +0.032 A 
ATOM     32  C   UNL     1       4.308  -4.285  -2.257  0.00  0.00    +0.025 A 
ATOM     33  C   UNL     1       5.394  -4.999  -2.725  0.00  0.00    +0.022 A 
ATOM     34  C   UNL     1       5.753  -4.920  -4.059  0.00  0.00    +0.041 A 
ATOM     35  C   UNL     1       5.025  -4.127  -4.929  0.00  0.00    +0.022 A 
ATOM     36  C   UNL     1       3.935  -3.416  -4.468  0.00  0.00    +0.025 A 
ATOM     37 CL   UNL     1       7.119  -5.818  -4.643  0.00  0.00    -0.084 Cl
ENDBRANCH  29  31
ENDBRANCH  11  29
TORSDOF 5
