REMARK  Name = CHEMBL248286
REMARK  11 active torsions:
REMARK  status: ('A' for Active; 'I' for Inactive)
REMARK    1  A    between atoms: C_1  and  N_2
REMARK    2  A    between atoms: N_2  and  C_3
REMARK    3  A    between atoms: N_2  and  C_4
REMARK    4  A    between atoms: C_4  and  C_5
REMARK    5  A    between atoms: C_5  and  O_6
REMARK    6  A    between atoms: O_6  and  C_7
REMARK    7  A    between atoms: C_10  and  C_13
REMARK    8  A    between atoms: C_14  and  C_31
REMARK    9  A    between atoms: N_22  and  C_23
REMARK   10  A    between atoms: C_23  and  C_24
REMARK   11  A    between atoms: C_24  and  N_25
REMARK                            x       y       z     vdW  Elec       q    Type
REMARK                         _______ _______ _______ _____ _____    ______ ____
ROOT
ATOM      1  C   UNL     1      -4.708   0.145   6.828  0.00  0.00    +0.146 A 
ATOM      2  C   UNL     1      -5.997  -0.303   6.938  0.00  0.00    +0.041 A 
ATOM      3  C   UNL     1      -6.507   0.257   8.196  0.00  0.00    +0.088 A 
ATOM      4  C   UNL     1      -7.720   0.196   8.894  0.00  0.00    +0.134 A 
ATOM      5  N   UNL     1      -7.820   0.854  10.045  0.00  0.00    -0.220 NA
ATOM      6  C   UNL     1      -6.802   1.548  10.519  0.00  0.00    +0.227 A 
ATOM      7  N   UNL     1      -5.646   1.632   9.896  0.00  0.00    -0.200 NA
ATOM      8  C   UNL     1      -5.450   1.007   8.737  0.00  0.00    +0.233 A 
ATOM      9  O   UNL     1      -4.405   0.908   7.897  0.00  0.00    -0.436 OA
ATOM     10  N   UNL     1      -8.788  -0.531   8.397  0.00  0.00    -0.327 N 
ATOM     11  H   UNL     1      -8.701  -1.006   7.556  0.00  0.00    +0.148 HD
ENDROOT
BRANCH   1  15
ATOM     12  C   UNL     1      -2.068  -0.746   3.625  0.00  0.00    +0.120 A 
ATOM     13  C   UNL     1      -3.367  -0.334   3.357  0.00  0.00    +0.046 A 
ATOM     14  C   UNL     1      -4.228  -0.044   4.393  0.00  0.00    +0.015 A 
ATOM     15  C   UNL     1      -3.791  -0.165   5.716  0.00  0.00    +0.018 A 
ATOM     16  C   UNL     1      -2.483  -0.579   5.980  0.00  0.00    +0.015 A 
ATOM     17  C   UNL     1      -1.631  -0.872   4.937  0.00  0.00    +0.046 A 
BRANCH  12  18
ATOM     18  O   UNL     1      -1.223  -1.031   2.600  0.00  0.00    -0.494 OA
BRANCH  18  19
ATOM     19  C   UNL     1      -1.736  -0.880   1.275  0.00  0.00    +0.210 C 
BRANCH  19  20
ATOM     20  C   UNL     1      -0.649  -1.244   0.262  0.00  0.00    -0.038 C 
BRANCH  20  22
ATOM     21  C   UNL     1      -1.484  -3.479   0.015  0.00  0.00    -0.096 C 
ATOM     22  N   UNL     1      -0.317  -2.669   0.390  0.00  0.00    +0.378 N 
ATOM     23  C   UNL     1       0.808  -2.992  -0.497  0.00  0.00    -0.096 C 
ATOM     24  H   UNL     1      -0.061  -2.870   1.345  0.00  0.00    -0.082 HD
ENDBRANCH  20  22
ENDBRANCH  19  20
ENDBRANCH  18  19
ENDBRANCH  12  18
ENDBRANCH   1  15
BRANCH   2  25
ATOM     25  C   UNL     1      -6.726  -1.170   5.985  0.00  0.00    -0.014 A 
ATOM     26  C   UNL     1      -7.803  -0.663   5.259  0.00  0.00    +0.008 A 
ATOM     27  C   UNL     1      -8.478  -1.476   4.372  0.00  0.00    +0.001 A 
ATOM     28  C   UNL     1      -8.089  -2.793   4.203  0.00  0.00    +0.000 A 
ATOM     29  C   UNL     1      -7.021  -3.303   4.921  0.00  0.00    +0.001 A 
ATOM     30  C   UNL     1      -6.335  -2.498   5.806  0.00  0.00    +0.008 A 
ENDBRANCH   2  25
BRANCH  10  31
ATOM     31  C   UNL     1     -10.048  -0.582   9.142  0.00  0.00    +0.118 C 
BRANCH  31  32
ATOM     32  C   UNL     1     -11.056  -1.446   8.380  0.00  0.00    +0.103 C 
BRANCH  32  33
ATOM     33  N   UNL     1     -12.320  -1.498   9.126  0.00  0.00    -0.304 NA
ATOM     34  C   UNL     1     -12.961  -0.176   9.168  0.00  0.00    +0.065 C 
ATOM     35  C   UNL     1     -14.241  -0.260  10.003  0.00  0.00    -0.067 C 
ATOM     36  N   UNL     1     -15.151  -1.246   9.407  0.00  0.00    +0.381 N 
ATOM     37  C   UNL     1     -14.506  -2.566   9.394  0.00  0.00    -0.067 C 
ATOM     38  C   UNL     1     -13.229  -2.501   8.554  0.00  0.00    +0.065 C 
ATOM     39  H   UNL     1     -16.000  -1.292   9.950  0.00  0.00    -0.086 HD
ATOM     40  H   UNL     1     -15.372  -0.971   8.461  0.00  0.00    -0.086 HD
ENDBRANCH  32  33
ENDBRANCH  31  32
ENDBRANCH  10  31
TORSDOF 9
