REMARK  Name = CHEMBL1084451
REMARK  8 active torsions:
REMARK  status: ('A' for Active; 'I' for Inactive)
REMARK    1  A    between atoms: C_1  and  C_2
REMARK    2  A    between atoms: C_2  and  N_3
REMARK    3  A    between atoms: C_6  and  C_9
REMARK    4  A    between atoms: C_9  and  N_10
REMARK    5  A    between atoms: C_15  and  C_17
REMARK    6  A    between atoms: C_22  and  O_23
REMARK    7  A    between atoms: O_23  and  C_24
REMARK    8  A    between atoms: C_27  and  N_34
REMARK                            x       y       z     vdW  Elec       q    Type
REMARK                         _______ _______ _______ _____ _____    ______ ____
ROOT
ATOM      1  C   UNL     1       2.834  -6.800  -6.471  0.00  0.00    +0.062 A 
ATOM      2  C   UNL     1       3.562  -7.229  -7.583  0.00  0.00    +0.017 A 
ATOM      3  C   UNL     1       3.700  -8.591  -7.795  0.00  0.00    +0.021 A 
ATOM      4  C   UNL     1       3.119  -9.478  -6.908  0.00  0.00    +0.114 A 
ATOM      5  N   UNL     1       2.435  -9.050  -5.864  0.00  0.00    -0.220 NA
ATOM      6  C   UNL     1       2.279  -7.761  -5.615  0.00  0.00    +0.230 A 
ENDROOT
BRANCH   1  12
ATOM      7  N   UNL     1       1.083  -3.267  -3.775  0.00  0.00    -0.313 N 
ATOM      8  C   UNL     1       1.806  -3.657  -4.889  0.00  0.00    +0.216 A 
ATOM      9  N   UNL     1       2.320  -2.728  -5.683  0.00  0.00    -0.223 NA
ATOM     10  C   UNL     1       3.017  -3.061  -6.758  0.00  0.00    +0.116 A 
ATOM     11  C   UNL     1       3.210  -4.398  -7.053  0.00  0.00    +0.048 A 
ATOM     12  C   UNL     1       2.656  -5.355  -6.198  0.00  0.00    +0.081 A 
ATOM     13  N   UNL     1       1.970  -4.948  -5.132  0.00  0.00    -0.214 NA
ATOM     14  H   UNL     1       0.705  -3.937  -3.184  0.00  0.00    +0.149 HD
BRANCH   7  15
ATOM     15  C   UNL     1       0.890  -1.843  -3.489  0.00  0.00    +0.107 C 
BRANCH  15  19
ATOM     16  N   UNL     1      -0.182  -0.559   0.446  0.00  0.00    +0.380 N 
ATOM     17  C   UNL     1      -1.004  -0.050  -0.658  0.00  0.00    -0.079 C 
ATOM     18  C   UNL     1      -0.246  -0.206  -1.978  0.00  0.00    -0.014 C 
ATOM     19  C   UNL     1       0.063  -1.688  -2.211  0.00  0.00    +0.003 C 
ATOM     20  C   UNL     1       0.857  -2.227  -1.018  0.00  0.00    -0.014 C 
ATOM     21  C   UNL     1       0.058  -1.996   0.266  0.00  0.00    -0.079 C 
ATOM     22  H   UNL     1       0.701  -0.071   0.458  0.00  0.00    -0.082 HD
BRANCH  16  24
ATOM     23  C   UNL     1      -1.021   1.167   1.967  0.00  0.00    -0.017 C 
ATOM     24  C   UNL     1      -0.881  -0.337   1.719  0.00  0.00    -0.082 C 
ENDBRANCH  16  24
ENDBRANCH  15  19
ENDBRANCH   7  15
ENDBRANCH   1  12
BRANCH   6  25
ATOM     25  O   UNL     1       1.573  -7.365  -4.528  0.00  0.00    -0.437 OA
BRANCH  25  26
ATOM     26  C   UNL     1       0.971  -8.324  -3.776  0.00  0.00    +0.138 A 
ATOM     27  C   UNL     1      -0.363  -8.609  -3.958  0.00  0.00    +0.049 A 
ATOM     28  C   UNL     1      -0.995  -9.587  -3.196  0.00  0.00    +0.027 A 
ATOM     29  C   UNL     1      -0.300 -10.295  -2.240  0.00  0.00    +0.041 A 
ATOM     30  C   UNL     1       1.069 -10.027  -2.030  0.00  0.00    +0.007 A 
ATOM     31  C   UNL     1       1.712  -9.034  -2.810  0.00  0.00    +0.026 A 
ATOM     32  C   UNL     1       3.076  -8.771  -2.602  0.00  0.00    +0.012 A 
ATOM     33  C   UNL     1       3.762  -9.475  -1.660  0.00  0.00    +0.001 A 
ATOM     34  C   UNL     1       3.131 -10.455  -0.897  0.00  0.00    +0.001 A 
ATOM     35  C   UNL     1       1.808 -10.729  -1.064  0.00  0.00    +0.010 A 
BRANCH  29  36
ATOM     36  N   UNL     1      -0.948 -11.275  -1.483  0.00  0.00    -0.285 N 
ATOM     37  C   UNL     1      -2.228 -11.669  -1.814  0.00  0.00    +0.198 A 
ATOM     38  N   UNL     1      -3.003 -12.519  -1.078  0.00  0.00    -0.326 N 
ATOM     39  H   UNL     1      -2.755 -12.946  -0.243  0.00  0.00    +0.169 HD
ATOM     40  C   UNL     1      -4.209 -12.657  -1.745  0.00  0.00    +0.067 A 
ATOM     41  C   UNL     1      -5.369 -13.374  -1.495  0.00  0.00    +0.028 A 
ATOM     42  C   UNL     1      -6.426 -13.300  -2.379  0.00  0.00    +0.002 A 
ATOM     43  C   UNL     1      -6.335 -12.514  -3.518  0.00  0.00    +0.002 A 
ATOM     44  C   UNL     1      -5.191 -11.796  -3.783  0.00  0.00    +0.030 A 
ATOM     45  C   UNL     1      -4.112 -11.859  -2.897  0.00  0.00    +0.091 A 
ATOM     46  N   UNL     1      -2.883 -11.279  -2.880  0.00  0.00    -0.214 NA
ATOM     47  H   UNL     1      -0.498 -11.678  -0.724  0.00  0.00    +0.155 HD
ENDBRANCH  29  36
ENDBRANCH  25  26
ENDBRANCH   6  25
TORSDOF 7
