REMARK  Name = CHEMBL591793
REMARK  8 active torsions:
REMARK  status: ('A' for Active; 'I' for Inactive)
REMARK    1  A    between atoms: C_4  and  O_7
REMARK    2  A    between atoms: O_7  and  C_8
REMARK    3  A    between atoms: C_11  and  C_14
REMARK    4  A    between atoms: C_15  and  C_37
REMARK    5  A    between atoms: C_24  and  O_28
REMARK    6  A    between atoms: O_28  and  C_29
REMARK    7  A    between atoms: C_29  and  C_30
REMARK    8  A    between atoms: C_30  and  N_31
REMARK                            x       y       z     vdW  Elec       q    Type
REMARK                         _______ _______ _______ _____ _____    ______ ____
ROOT
ATOM      1  C   UNL     1       4.285  -6.003  -0.549  0.00  0.00    +0.107 A 
ATOM      2  C   UNL     1       5.373  -6.855  -1.056  0.00  0.00    +0.104 A 
ATOM      3  C   UNL     1       4.947  -8.155  -0.844  0.00  0.00    +0.134 A 
ATOM      4  N   UNL     1       3.761  -8.133  -0.265  0.00  0.00    -0.249 N 
ATOM      5  N   UNL     1       3.349  -6.805  -0.088  0.00  0.00    -0.169 NA
ATOM      6  C   UNL     1       3.025  -9.334   0.140  0.00  0.00    +0.150 C 
ATOM      7  C   UNL     1       3.731 -10.053   1.270  0.00  0.00    +0.060 C 
ATOM      8  C   UNL     1       5.117 -10.554   0.925  0.00  0.00    -0.024 A 
ATOM      9  C   UNL     1       5.615 -11.460   1.874  0.00  0.00    +0.009 A 
ATOM     10  C   UNL     1       6.850 -12.043   1.746  0.00  0.00    +0.046 A 
ATOM     11  C   UNL     1       7.648 -11.744   0.650  0.00  0.00    +0.122 A 
ATOM     12  C   UNL     1       7.177 -10.851  -0.293  0.00  0.00    +0.069 A 
ATOM     13  C   UNL     1       5.921 -10.255  -0.151  0.00  0.00    +0.039 A 
ATOM     14  N   UNL     1       5.570  -9.346  -1.150  0.00  0.00    -0.299 N 
ATOM     15  H   UNL     1       5.767  -9.556  -2.076  0.00  0.00    +0.154 HD
ENDROOT
BRANCH   1  19
ATOM     16  C   UNL     1       4.193  -1.751  -0.550  0.00  0.00    +0.128 A 
ATOM     17  C   UNL     1       3.021  -2.470  -0.744  0.00  0.00    +0.047 A 
ATOM     18  C   UNL     1       3.047  -3.848  -0.744  0.00  0.00    +0.014 A 
ATOM     19  C   UNL     1       4.253  -4.521  -0.549  0.00  0.00    +0.003 A 
ATOM     20  C   UNL     1       5.429  -3.796  -0.355  0.00  0.00    +0.014 A 
ATOM     21  C   UNL     1       5.396  -2.418  -0.362  0.00  0.00    +0.047 A 
BRANCH  16  22
ATOM     22  O   UNL     1       4.164  -0.393  -0.551  0.00  0.00    -0.456 OA
BRANCH  22  26
ATOM     23  C   UNL     1       2.840   1.516   2.858  0.00  0.00    +0.000 A 
ATOM     24  C   UNL     1       2.814   0.136   2.786  0.00  0.00    +0.004 A 
ATOM     25  C   UNL     1       3.256  -0.506   1.646  0.00  0.00    +0.046 A 
ATOM     26  C   UNL     1       3.727   0.236   0.572  0.00  0.00    +0.128 A 
ATOM     27  C   UNL     1       3.752   1.621   0.647  0.00  0.00    +0.046 A 
ATOM     28  C   UNL     1       3.309   2.258   1.790  0.00  0.00    +0.004 A 
ENDBRANCH  22  26
ENDBRANCH  16  22
ENDBRANCH   1  19
BRANCH   2  29
ATOM     29  C   UNL     1       6.636  -6.420  -1.659  0.00  0.00    +0.247 C 
ATOM     30  O   UNL     1       7.612  -6.231  -0.957  0.00  0.00    -0.270 OA
ATOM     31  N   UNL     1       6.717  -6.228  -2.991  0.00  0.00    -0.325 N 
ATOM     32  H   UNL     1       5.939  -6.379  -3.551  0.00  0.00    +0.145 HD
ATOM     33  H   UNL     1       7.553  -5.940  -3.390  0.00  0.00    +0.145 HD
ENDBRANCH   2  29
BRANCH  11  34
ATOM     34  O   UNL     1       8.871 -12.319   0.507  0.00  0.00    -0.494 OA
BRANCH  34  35
ATOM     35  C   UNL     1       9.282 -13.231   1.527  0.00  0.00    +0.210 C 
BRANCH  35  36
ATOM     36  C   UNL     1      10.675 -13.772   1.197  0.00  0.00    -0.037 C 
BRANCH  36  37
ATOM     37  N   UNL     1      11.646 -12.670   1.214  0.00  0.00    +0.385 N 
ATOM     38  C   UNL     1      12.951 -13.159   0.749  0.00  0.00    -0.050 C 
ATOM     39  C   UNL     1      13.960 -12.009   0.767  0.00  0.00    +0.141 C 
ATOM     40  O   UNL     1      14.041 -11.473   2.091  0.00  0.00    -0.383 OA
ATOM     41  C   UNL     1      12.788 -11.004   2.598  0.00  0.00    +0.141 C 
ATOM     42  C   UNL     1      11.776 -12.153   2.583  0.00  0.00    -0.050 C 
ATOM     43  H   UNL     1      11.327 -11.932   0.604  0.00  0.00    -0.081 HD
ENDBRANCH  36  37
ENDBRANCH  35  36
ENDBRANCH  34  35
ENDBRANCH  11  34
TORSDOF 8
