REMARK  Name = CHEMBL247878
REMARK  7 active torsions:
REMARK  status: ('A' for Active; 'I' for Inactive)
REMARK    1  A    between atoms: C_1  and  C_2
REMARK    2  A    between atoms: C_2  and  N_3
REMARK    3  A    between atoms: C_9  and  C_11
REMARK    4  A    between atoms: C_14  and  C_17
REMARK    5  A    between atoms: C_18  and  C_34
REMARK    6  A    between atoms: N_26  and  C_27
REMARK    7  A    between atoms: C_27  and  C_28
REMARK                            x       y       z     vdW  Elec       q    Type
REMARK                         _______ _______ _______ _____ _____    ______ ____
ROOT
ATOM      1  C   UNL     1      -4.595  -8.190   0.546  0.00  0.00    +0.146 A 
ATOM      2  C   UNL     1      -5.085  -9.262  -0.152  0.00  0.00    +0.041 A 
ATOM      3  C   UNL     1      -4.728 -10.447   0.636  0.00  0.00    +0.088 A 
ATOM      4  C   UNL     1      -4.920 -11.829   0.500  0.00  0.00    +0.134 A 
ATOM      5  N   UNL     1      -4.439 -12.629   1.448  0.00  0.00    -0.220 NA
ATOM      6  C   UNL     1      -3.798 -12.134   2.491  0.00  0.00    +0.227 A 
ATOM      7  N   UNL     1      -3.597 -10.845   2.657  0.00  0.00    -0.200 NA
ATOM      8  C   UNL     1      -4.040  -9.965   1.763  0.00  0.00    +0.233 A 
ATOM      9  O   UNL     1      -3.980  -8.626   1.664  0.00  0.00    -0.436 OA
ATOM     10  N   UNL     1      -5.592 -12.347  -0.592  0.00  0.00    -0.326 N 
ATOM     11  H   UNL     1      -5.937 -11.752  -1.276  0.00  0.00    +0.148 HD
ENDROOT
BRANCH   1  15
ATOM     12  C   UNL     1      -4.943  -4.135  -0.633  0.00  0.00    +0.037 A 
ATOM     13  C   UNL     1      -6.061  -4.974  -0.674  0.00  0.00    +0.014 A 
ATOM     14  C   UNL     1      -5.950  -6.280  -0.295  0.00  0.00    +0.012 A 
ATOM     15  C   UNL     1      -4.716  -6.781   0.136  0.00  0.00    +0.018 A 
ATOM     16  C   UNL     1      -3.597  -5.941   0.177  0.00  0.00    +0.012 A 
ATOM     17  C   UNL     1      -3.708  -4.636  -0.208  0.00  0.00    +0.014 A 
BRANCH  12  24
ATOM     18  N   UNL     1      -7.627  -0.335   1.036  0.00  0.00    -0.300 NA
ATOM     19  C   UNL     1      -6.454   0.226   0.351  0.00  0.00    +0.103 C 
ATOM     20  C   UNL     1      -6.202  -0.553  -0.944  0.00  0.00    +0.123 C 
ATOM     21  N   UNL     1      -6.107  -1.984  -0.618  0.00  0.00    -0.295 N 
ATOM     22  C   UNL     1      -7.181  -2.588   0.186  0.00  0.00    +0.123 C 
ATOM     23  C   UNL     1      -7.394  -1.728   1.437  0.00  0.00    +0.103 C 
ATOM     24  C   UNL     1      -5.064  -2.723  -1.044  0.00  0.00    +0.247 C 
ATOM     25  O   UNL     1      -4.222  -2.226  -1.767  0.00  0.00    -0.270 OA
BRANCH  18  27
ATOM     26  C   UNL     1      -8.479   1.861   1.707  0.00  0.00    +0.020 C 
ATOM     27  C   UNL     1      -8.005   0.490   2.192  0.00  0.00    +0.081 C 
ENDBRANCH  18  27
ENDBRANCH  12  24
ENDBRANCH   1  15
BRANCH   2  28
ATOM     28  C   UNL     1      -5.822  -9.231  -1.436  0.00  0.00    -0.014 A 
ATOM     29  C   UNL     1      -7.165  -9.609  -1.482  0.00  0.00    +0.008 A 
ATOM     30  C   UNL     1      -7.846  -9.578  -2.681  0.00  0.00    +0.001 A 
ATOM     31  C   UNL     1      -7.201  -9.173  -3.837  0.00  0.00    +0.000 A 
ATOM     32  C   UNL     1      -5.870  -8.797  -3.797  0.00  0.00    +0.001 A 
ATOM     33  C   UNL     1      -5.179  -8.819  -2.603  0.00  0.00    +0.008 A 
ENDBRANCH   2  28
BRANCH  10  34
ATOM     34  C   UNL     1      -5.782 -13.794  -0.716  0.00  0.00    +0.134 C 
BRANCH  34  35
ATOM     35  C   UNL     1      -6.549 -14.099  -2.003  0.00  0.00    +0.135 C 
ATOM     36  C   UNL     1      -6.859 -15.610  -2.083  0.00  0.00    +0.035 C 
ATOM     37  C   UNL     1      -6.640 -15.912  -3.590  0.00  0.00    +0.031 C 
ATOM     38  C   UNL     1      -5.480 -14.940  -3.920  0.00  0.00    +0.160 C 
ATOM     39  O   UNL     1      -5.746 -13.761  -3.140  0.00  0.00    -0.375 OA
ENDBRANCH  34  35
ENDBRANCH  10  34
TORSDOF 6
