REMARK  Name = CHEMBL1084234
REMARK  8 active torsions:
REMARK  status: ('A' for Active; 'I' for Inactive)
REMARK    1  A    between atoms: C_1  and  N_2
REMARK    2  A    between atoms: N_5  and  C_8
REMARK    3  A    between atoms: C_11  and  C_14
REMARK    4  A    between atoms: C_21  and  C_24
REMARK    5  A    between atoms: C_22  and  N_23
REMARK    6  A    between atoms: C_27  and  N_30
REMARK    7  A    between atoms: N_33  and  C_34
REMARK    8  A    between atoms: C_34  and  C_35
REMARK                            x       y       z     vdW  Elec       q    Type
REMARK                         _______ _______ _______ _____ _____    ______ ____
ROOT
ATOM      1  C   UNL     1      -2.286  -6.919   3.958  0.00  0.00    +0.046 A 
ATOM      2  C   UNL     1      -3.493  -6.962   4.666  0.00  0.00    +0.145 A 
ATOM      3  N   UNL     1      -3.592  -8.123   5.266  0.00  0.00    -0.171 NA
ATOM      4  N   UNL     1      -2.457  -8.888   4.977  0.00  0.00    -0.200 N 
ATOM      5  C   UNL     1      -1.643  -8.147   4.160  0.00  0.00    +0.165 A 
ATOM      6  N   UNL     1      -0.479  -8.636   3.718  0.00  0.00    -0.235 NA
ATOM      7  C   UNL     1      -0.075  -9.842   4.047  0.00  0.00    +0.125 A 
ATOM      8  C   UNL     1      -0.868 -10.651   4.879  0.00  0.00    +0.040 A 
ATOM      9  C   UNL     1      -2.077 -10.149   5.351  0.00  0.00    +0.129 A 
ENDROOT
BRANCH   1  13
ATOM     10  C   UNL     1      -0.848  -3.672   1.619  0.00  0.00    +0.030 A 
ATOM     11  C   UNL     1      -2.143  -4.139   1.434  0.00  0.00    +0.024 A 
ATOM     12  C   UNL     1      -2.612  -5.192   2.191  0.00  0.00    +0.010 A 
ATOM     13  C   UNL     1      -1.785  -5.788   3.143  0.00  0.00    -0.013 A 
ATOM     14  C   UNL     1      -0.485  -5.317   3.326  0.00  0.00    +0.010 A 
ATOM     15  C   UNL     1      -0.019  -4.268   2.562  0.00  0.00    +0.024 A 
BRANCH  10  20
ATOM     16  C   UNL     1       0.085   1.494   0.068  0.00  0.00    +0.105 C 
ATOM     17  N   UNL     1       0.101   0.025   0.058  0.00  0.00    -0.302 NA
ATOM     18  C   UNL     1      -1.261  -0.516  -0.045  0.00  0.00    +0.103 C 
ATOM     19  C   UNL     1      -1.190  -2.035  -0.234  0.00  0.00    +0.120 C 
ATOM     20  N   UNL     1      -0.375  -2.604   0.850  0.00  0.00    -0.327 N 
ATOM     21  C   UNL     1       0.951  -2.020   1.103  0.00  0.00    +0.120 C 
ATOM     22  C   UNL     1       0.796  -0.502   1.240  0.00  0.00    +0.103 C 
ENDBRANCH  10  20
ENDBRANCH   1  13
BRANCH   8  23
ATOM     23  C   UNL     1      -0.420 -12.013   5.255  0.00  0.00    -0.013 A 
ATOM     24  C   UNL     1      -0.133 -12.311   6.587  0.00  0.00    +0.010 A 
ATOM     25  C   UNL     1       0.283 -13.579   6.934  0.00  0.00    +0.024 A 
ATOM     26  C   UNL     1       0.417 -14.559   5.958  0.00  0.00    +0.035 A 
ATOM     27  C   UNL     1       0.133 -14.265   4.631  0.00  0.00    +0.024 A 
ATOM     28  C   UNL     1      -0.289 -13.000   4.279  0.00  0.00    +0.010 A 
BRANCH  26  29
ATOM     29  N   UNL     1       0.841 -15.845   6.313  0.00  0.00    -0.269 N 
ATOM     30  C   UNL     1       0.473 -16.373   7.498  0.00  0.00    +0.304 C 
ATOM     31  O   UNL     1      -0.307 -15.775   8.214  0.00  0.00    -0.253 OA
ATOM     32  N   UNL     1       0.969 -17.564   7.888  0.00  0.00    -0.299 N 
ATOM     33  H   UNL     1       1.399 -16.357   5.707  0.00  0.00    +0.156 HD
ATOM     34  H   UNL     1       1.591 -18.041   7.317  0.00  0.00    +0.150 HD
BRANCH  32  35
ATOM     35  C   UNL     1       0.569 -18.137   9.175  0.00  0.00    +0.109 C 
BRANCH  35  36
ATOM     36  C   UNL     1       1.270 -19.483   9.374  0.00  0.00    +0.006 C 
ATOM     37  C   UNL     1       0.779 -20.475   8.319  0.00  0.00    +0.005 C 
ATOM     38  C   UNL     1       1.480 -21.820   8.518  0.00  0.00    +0.000 C 
ATOM     39  C   UNL     1       1.161 -22.360   9.913  0.00  0.00    +0.000 C 
ATOM     40  C   UNL     1       1.652 -21.368  10.969  0.00  0.00    +0.000 C 
ATOM     41  C   UNL     1       0.951 -20.023  10.770  0.00  0.00    +0.005 C 
ENDBRANCH  35  36
ENDBRANCH  32  35
ENDBRANCH  26  29
ENDBRANCH   8  23
BRANCH   9  42
ATOM     42  N   UNL     1      -2.882 -10.911   6.166  0.00  0.00    -0.343 N 
ATOM     43  H   UNL     1      -3.728 -10.556   6.482  0.00  0.00    +0.144 HD
ATOM     44  H   UNL     1      -2.604 -11.803   6.426  0.00  0.00    +0.144 HD
ENDBRANCH   9  42
TORSDOF 7
