REMARK  Name = CHEMBL408070
REMARK  9 active torsions:
REMARK  status: ('A' for Active; 'I' for Inactive)
REMARK    1  A    between atoms: C_1  and  C_2
REMARK    2  A    between atoms: C_5  and  C_31
REMARK    3  A    between atoms: C_7  and  C_8
REMARK    4  A    between atoms: N_10  and  C_11
REMARK    5  A    between atoms: N_17  and  C_18
REMARK    6  A    between atoms: C_21  and  N_24
REMARK    7  A    between atoms: N_27  and  C_30
REMARK    8  A    between atoms: N_33  and  C_34
REMARK    9  A    between atoms: C_38  and  C_40
REMARK                            x       y       z     vdW  Elec       q    Type
REMARK                         _______ _______ _______ _____ _____    ______ ____
ROOT
ATOM      1  C   UNL     1       0.904   0.000   2.486  0.00  0.00    +0.249 C 
ATOM      2  O   UNL     1       1.386   1.114   2.550  0.00  0.00    -0.270 OA
ATOM      3  N   UNL     1       0.474  -0.613   3.607  0.00  0.00    -0.279 N 
ATOM      4  H   UNL     1       0.161  -1.530   3.568  0.00  0.00    +0.155 HD
ENDROOT
BRANCH   3   5
ATOM      5  C   UNL     1       0.479   0.075   4.828  0.00  0.00    +0.070 A 
ATOM      6  C   UNL     1       0.374   1.462   4.864  0.00  0.00    +0.139 A 
ATOM      7  N   UNL     1       0.382   2.078   6.035  0.00  0.00    -0.221 NA
ATOM      8  C   UNL     1       0.489   1.390   7.162  0.00  0.00    +0.220 A 
ATOM      9  N   UNL     1       0.591   0.069   7.166  0.00  0.00    -0.221 NA
ATOM     10  C   UNL     1       0.584  -0.614   6.033  0.00  0.00    +0.139 A 
ATOM     11  N   UNL     1       0.493   2.071   8.371  0.00  0.00    -0.284 N 
ATOM     12  H   UNL     1       0.337   3.028   8.389  0.00  0.00    +0.155 HD
BRANCH  11  13
ATOM     13  C   UNL     1       0.725   1.376   9.565  0.00  0.00    +0.034 A 
ATOM     14  C   UNL     1       1.603   0.300   9.584  0.00  0.00    +0.025 A 
ATOM     15  C   UNL     1       1.831  -0.384  10.761  0.00  0.00    +0.025 A 
ATOM     16  C   UNL     1       1.183   0.003  11.926  0.00  0.00    +0.030 A 
ATOM     17  C   UNL     1       0.305   1.079  11.908  0.00  0.00    +0.025 A 
ATOM     18  C   UNL     1       0.081   1.767  10.731  0.00  0.00    +0.025 A 
BRANCH  16  19
ATOM     19  N   UNL     1       1.414  -0.691  13.119  0.00  0.00    -0.333 N 
ATOM     20  C   UNL     1       0.644  -0.383  14.335  0.00  0.00    +0.086 C 
ATOM     21  C   UNL     1       0.090  -1.694  14.904  0.00  0.00    -0.060 C 
ATOM     22  N   UNL     1       1.193  -2.642  15.108  0.00  0.00    +0.380 N 
ATOM     23  C   UNL     1       1.795  -2.995  13.817  0.00  0.00    -0.060 C 
ATOM     24  C   UNL     1       2.429  -1.753  13.192  0.00  0.00    +0.086 C 
ATOM     25  C   UNL     1       0.678  -3.856  15.755  0.00  0.00    -0.096 C 
ATOM     26  H   UNL     1       1.893  -2.219  15.700  0.00  0.00    -0.082 HD
ENDBRANCH  16  19
ENDBRANCH  11  13
ENDBRANCH   3   5
BRANCH   1  33
ATOM     27  C   UNL     1       1.990   1.257   0.122  0.00  0.00    +0.044 C 
ATOM     28  C   UNL     1       1.309  -0.085   0.030  0.00  0.00    -0.038 A 
ATOM     29  C   UNL     1       1.206  -0.723  -1.191  0.00  0.00    +0.005 A 
ATOM     30  C   UNL     1       0.584  -1.952  -1.284  0.00  0.00    +0.013 A 
ATOM     31  C   UNL     1       0.053  -2.558  -0.142  0.00  0.00    +0.038 A 
ATOM     32  C   UNL     1       0.154  -1.919   1.092  0.00  0.00    +0.026 A 
ATOM     33  C   UNL     1       0.788  -0.682   1.180  0.00  0.00    +0.041 A 
BRANCH  31  34
ATOM     34  C   UNL     1      -0.614  -3.873  -0.244  0.00  0.00    +0.248 C 
ATOM     35  O   UNL     1      -1.075  -4.399   0.750  0.00  0.00    -0.270 OA
ATOM     36  N   UNL     1      -0.711  -4.489  -1.439  0.00  0.00    -0.281 N 
ATOM     37  H   UNL     1      -0.275  -4.108  -2.217  0.00  0.00    +0.155 HD
BRANCH  36  38
ATOM     38  C   UNL     1      -1.438  -5.677  -1.556  0.00  0.00    +0.034 A 
ATOM     39  C   UNL     1      -1.020  -6.665  -2.438  0.00  0.00    +0.023 A 
ATOM     40  C   UNL     1      -1.741  -7.838  -2.552  0.00  0.00    +0.002 A 
ATOM     41  C   UNL     1      -2.878  -8.028  -1.788  0.00  0.00    +0.012 A 
ATOM     42  C   UNL     1      -3.297  -7.047  -0.909  0.00  0.00    +0.057 A 
ATOM     43  C   UNL     1      -2.578  -5.874  -0.787  0.00  0.00    +0.035 A 
BRANCH  42  44
ATOM     44  C   UNL     1      -4.537  -7.259  -0.080  0.00  0.00    +0.417 C 
ATOM     45  F   UNL     1      -5.085  -8.512  -0.372  0.00  0.00    -0.166 F 
ATOM     46  F   UNL     1      -4.205  -7.200   1.278  0.00  0.00    -0.166 F 
ATOM     47  F   UNL     1      -5.472  -6.261  -0.374  0.00  0.00    -0.166 F 
ENDBRANCH  42  44
ENDBRANCH  36  38
ENDBRANCH  31  34
ENDBRANCH   1  33
TORSDOF 7
