REMARK  Name = CHEMBL237127
REMARK  6 active torsions:
REMARK  status: ('A' for Active; 'I' for Inactive)
REMARK    1  A    between atoms: C_1  and  C_2
REMARK    2  A    between atoms: C_5  and  O_26
REMARK    3  A    between atoms: C_7  and  N_8
REMARK    4  A    between atoms: N_8  and  C_9
REMARK    5  A    between atoms: C_17  and  C_19
REMARK    6  A    between atoms: C_22  and  C_24
REMARK                            x       y       z     vdW  Elec       q    Type
REMARK                         _______ _______ _______ _____ _____    ______ ____
ROOT
ATOM      1  C   UNL     1      -0.046  -0.757   3.585  0.00  0.00    +0.042 A 
ATOM      2  C   UNL     1      -0.015  -2.143   3.553  0.00  0.00    +0.041 A 
ATOM      3  C   UNL     1      -0.087  -2.860   4.739  0.00  0.00    +0.085 A 
ATOM      4  N   UNL     1      -0.184  -2.263   5.904  0.00  0.00    -0.361 N 
ATOM      5  C   UNL     1      -0.219  -0.929   6.010  0.00  0.00    +0.049 A 
ATOM      6  C   UNL     1      -0.145  -0.125   4.847  0.00  0.00    +0.019 A 
ATOM      7  C   UNL     1      -0.176   1.273   4.958  0.00  0.00    +0.012 A 
ATOM      8  C   UNL     1      -0.273   1.855   6.183  0.00  0.00    +0.011 A 
ATOM      9  C   UNL     1      -0.341   1.071   7.345  0.00  0.00    +0.003 A 
ATOM     10  C   UNL     1      -0.323  -0.309   7.265  0.00  0.00    +0.036 A 
ATOM     11  H   UNL     1      -0.232  -2.802   6.709  0.00  0.00    +0.165 HD
ENDROOT
BRANCH   9  12
ATOM     12  C   UNL     1      -0.445   1.729   8.670  0.00  0.00    +0.079 A 
ATOM     13  C   UNL     1      -0.584   3.103   8.764  0.00  0.00    +0.075 A 
ATOM     14  S   UNL     1      -0.657   3.347  10.428  0.00  0.00    -0.072 S 
ATOM     15  C   UNL     1      -0.504   1.644  10.939  0.00  0.00    +0.141 A 
ATOM     16  N   UNL     1      -0.412   1.017   9.772  0.00  0.00    -0.236 NA
BRANCH  15  17
ATOM     17  C   UNL     1      -0.488   1.084  12.291  0.00  0.00    +0.285 C 
ATOM     18  O   UNL     1      -0.589   1.817  13.253  0.00  0.00    -0.294 OA
ENDBRANCH  15  17
ENDBRANCH   9  12
BRANCH   1  19
ATOM     19  N   UNL     1       0.025  -0.013   2.416  0.00  0.00    -0.314 N 
ATOM     20  H   UNL     1      -0.079   0.951   2.447  0.00  0.00    +0.152 HD
BRANCH  19  27
ATOM     21  C   UNL     1      -1.521   0.810   0.175  0.00  0.00    +0.045 C 
ATOM     22  C   UNL     1      -0.488  -0.282   0.072  0.00  0.00    -0.029 A 
ATOM     23  C   UNL     1      -0.267  -0.911  -1.138  0.00  0.00    +0.009 A 
ATOM     24  C   UNL     1       0.680  -1.913  -1.236  0.00  0.00    +0.046 A 
ATOM     25  C   UNL     1       1.411  -2.291  -0.118  0.00  0.00    +0.119 A 
ATOM     26  C   UNL     1       1.192  -1.663   1.097  0.00  0.00    +0.069 A 
ATOM     27  C   UNL     1       0.245  -0.653   1.193  0.00  0.00    +0.038 A 
BRANCH  25  28
ATOM     28  O   UNL     1       2.341  -3.277  -0.216  0.00  0.00    -0.507 OA
ATOM     29  H   UNL     1       3.226  -2.962  -0.444  0.00  0.00    +0.292 HD
ENDBRANCH  25  28
ENDBRANCH  19  27
ENDBRANCH   1  19
TORSDOF 5
