REMARK  Name = CHEMBL108841
REMARK  8 active torsions:
REMARK  status: ('A' for Active; 'I' for Inactive)
REMARK    1  A    between atoms: C_1  and  C_2
REMARK    2  A    between atoms: C_7  and  N_8
REMARK    3  A    between atoms: C_17  and  O_24
REMARK    4  A    between atoms: C_18  and  O_22
REMARK    5  A    between atoms: O_22  and  C_23
REMARK    6  A    between atoms: O_24  and  C_25
REMARK    7  A    between atoms: C_25  and  C_26
REMARK    8  A    between atoms: C_26  and  N_27
REMARK                            x       y       z     vdW  Elec       q    Type
REMARK                         _______ _______ _______ _____ _____    ______ ____
ROOT
ATOM      1  N   UNL     1      -0.697  -1.317   1.570  0.00  0.00    -0.296 N 
ATOM      2  C   UNL     1      -0.984  -1.772   2.844  0.00  0.00    +0.149 A 
ATOM      3  C   UNL     1      -1.028  -0.835   3.964  0.00  0.00    +0.106 A 
ATOM      4  C   UNL     1      -0.838   0.519   4.090  0.00  0.00    +0.142 A 
ATOM      5  N   UNL     1      -1.008   0.830   5.378  0.00  0.00    -0.243 NA
ATOM      6  C   UNL     1      -1.292  -0.252   6.061  0.00  0.00    +0.204 A 
ATOM      7  N   UNL     1      -1.316  -1.308   5.231  0.00  0.00    -0.294 N 
ATOM      8  C   UNL     1      -1.557  -2.667   5.400  0.00  0.00    +0.077 A 
ATOM      9  C   UNL     1      -1.850  -3.174   6.659  0.00  0.00    +0.077 A 
ATOM     10  C   UNL     1      -2.089  -4.526   6.823  0.00  0.00    +0.164 A 
ATOM     11  C   UNL     1      -2.037  -5.387   5.726  0.00  0.00    +0.164 A 
ATOM     12  C   UNL     1      -1.747  -4.895   4.470  0.00  0.00    +0.079 A 
ATOM     13  C   UNL     1      -1.504  -3.527   4.292  0.00  0.00    +0.094 A 
ATOM     14  N   UNL     1      -1.224  -3.049   3.050  0.00  0.00    -0.228 NA
ATOM     15  H   UNL     1      -0.599  -0.366   1.405  0.00  0.00    +0.154 HD
ENDROOT
BRANCH   1  22
ATOM     16  C   UNL     1       1.885  -1.629   0.418  0.00  0.00    +0.046 C 
ATOM     17  C   UNL     1       0.695  -2.411  -0.072  0.00  0.00    -0.028 A 
ATOM     18  C   UNL     1       0.840  -3.316  -1.106  0.00  0.00    +0.005 A 
ATOM     19  C   UNL     1      -0.252  -4.035  -1.556  0.00  0.00    +0.002 A 
ATOM     20  C   UNL     1      -1.493  -3.852  -0.973  0.00  0.00    +0.022 A 
ATOM     21  C   UNL     1      -1.646  -2.948   0.061  0.00  0.00    +0.062 A 
ATOM     22  C   UNL     1      -0.548  -2.228   0.519  0.00  0.00    +0.054 A 
ATOM     23 CL   UNL     1      -3.204  -2.718   0.791  0.00  0.00    -0.082 Cl
ENDBRANCH   1  22
BRANCH  11  24
ATOM     24  O   UNL     1      -2.273  -6.715   5.895  0.00  0.00    -0.491 OA
ATOM     25  C   UNL     1      -2.204  -7.540   4.731  0.00  0.00    +0.277 C 
ENDBRANCH  11  24
BRANCH  10  26
ATOM     26  O   UNL     1      -2.376  -5.019   8.058  0.00  0.00    -0.487 OA
BRANCH  26  27
ATOM     27  C   UNL     1      -2.413  -4.083   9.137  0.00  0.00    +0.244 C 
BRANCH  27  28
ATOM     28  C   UNL     1      -2.748  -4.817  10.437  0.00  0.00    +0.125 C 
BRANCH  28  29
ATOM     29  N   UNL     1      -1.659  -5.745  10.770  0.00  0.00    -0.295 NA
ATOM     30  C   UNL     1      -2.116  -6.776  11.714  0.00  0.00    +0.112 C 
ATOM     31  C   UNL     1      -0.970  -7.754  11.986  0.00  0.00    +0.175 C 
ATOM     32  O   UNL     1       0.161  -7.031  12.480  0.00  0.00    -0.377 OA
ATOM     33  C   UNL     1       0.632  -6.020  11.585  0.00  0.00    +0.175 C 
ATOM     34  C   UNL     1      -0.497  -5.024  11.309  0.00  0.00    +0.112 C 
ENDBRANCH  28  29
ENDBRANCH  27  28
ENDBRANCH  26  27
ENDBRANCH  10  26
TORSDOF 6
