REMARK  Name = CHEMBL209908
REMARK  9 active torsions:
REMARK  status: ('A' for Active; 'I' for Inactive)
REMARK    1  A    between atoms: C_1  and  C_2
REMARK    2  A    between atoms: C_6  and  C_44
REMARK    3  A    between atoms: C_7  and  O_8
REMARK    4  A    between atoms: O_8  and  C_9
REMARK    5  A    between atoms: N_11  and  C_12
REMARK    6  A    between atoms: C_15  and  C_18
REMARK    7  A    between atoms: N_30  and  C_31
REMARK    8  A    between atoms: C_34  and  N_37
REMARK    9  A    between atoms: N_40  and  C_43
REMARK                            x       y       z     vdW  Elec       q    Type
REMARK                         _______ _______ _______ _____ _____    ______ ____
ROOT
ATOM      1  C   UNL     1      -1.269   0.228   3.006  0.00  0.00    +0.418 C 
ATOM      2  O   UNL     1      -2.353   0.003   2.505  0.00  0.00    -0.225 OA
ATOM      3  N   UNL     1      -1.187   0.965   4.131  0.00  0.00    -0.189 N 
ATOM      4  C   UNL     1       0.042   1.136   4.762  0.00  0.00    +0.140 A 
ATOM      5  C   UNL     1       0.510   0.185   5.669  0.00  0.00    +0.064 A 
ATOM      6  C   UNL     1       1.736   0.396   6.272  0.00  0.00    +0.118 A 
ATOM      7  N   UNL     1       2.425   1.487   5.973  0.00  0.00    -0.223 NA
ATOM      8  C   UNL     1       1.955   2.373   5.108  0.00  0.00    +0.221 A 
ATOM      9  N   UNL     1       0.788   2.204   4.505  0.00  0.00    -0.198 NA
ATOM     10  N   UNL     1       2.706   3.502   4.822  0.00  0.00    -0.284 N 
ATOM     11  H   UNL     1       2.395   4.135   4.157  0.00  0.00    +0.155 HD
ENDROOT
BRANCH   3  12
ATOM     12  C   UNL     1      -2.337   1.557   4.666  0.00  0.00    +0.046 A 
ATOM     13  C   UNL     1      -3.356   0.761   5.173  0.00  0.00    +0.024 A 
ATOM     14  C   UNL     1      -4.490   1.342   5.700  0.00  0.00    +0.010 A 
ATOM     15  C   UNL     1      -4.613   2.731   5.724  0.00  0.00    -0.018 A 
ATOM     16  C   UNL     1      -3.589   3.528   5.215  0.00  0.00    +0.010 A 
ATOM     17  C   UNL     1      -2.454   2.942   4.694  0.00  0.00    +0.024 A 
BRANCH  15  18
ATOM     18  C   UNL     1      -5.832   3.359   6.289  0.00  0.00    -0.018 A 
ATOM     19  C   UNL     1      -6.854   2.563   6.803  0.00  0.00    +0.008 A 
ATOM     20  C   UNL     1      -7.986   3.153   7.328  0.00  0.00    +0.001 A 
ATOM     21  C   UNL     1      -8.107   4.531   7.345  0.00  0.00    +0.000 A 
ATOM     22  C   UNL     1      -7.095   5.325   6.836  0.00  0.00    +0.001 A 
ATOM     23  C   UNL     1      -5.956   4.747   6.314  0.00  0.00    +0.008 A 
ENDBRANCH  15  18
ENDBRANCH   3  12
BRANCH  10  24
ATOM     24  C   UNL     1       3.914   3.728   5.494  0.00  0.00    +0.034 A 
ATOM     25  C   UNL     1       4.735   2.658   5.826  0.00  0.00    +0.025 A 
ATOM     26  C   UNL     1       5.926   2.881   6.488  0.00  0.00    +0.025 A 
ATOM     27  C   UNL     1       6.303   4.175   6.823  0.00  0.00    +0.030 A 
ATOM     28  C   UNL     1       5.481   5.245   6.491  0.00  0.00    +0.025 A 
ATOM     29  C   UNL     1       4.293   5.022   5.824  0.00  0.00    +0.025 A 
BRANCH  27  30
ATOM     30  N   UNL     1       7.509   4.401   7.495  0.00  0.00    -0.333 N 
ATOM     31  C   UNL     1       7.862   5.742   7.986  0.00  0.00    +0.086 C 
ATOM     32  C   UNL     1       8.275   5.628   9.457  0.00  0.00    -0.060 C 
ATOM     33  N   UNL     1       9.347   4.633   9.587  0.00  0.00    +0.380 N 
ATOM     34  C   UNL     1       8.845   3.305   9.213  0.00  0.00    -0.060 C 
ATOM     35  C   UNL     1       8.458   3.303   7.735  0.00  0.00    +0.086 C 
ATOM     36  C   UNL     1       9.818   4.603  10.979  0.00  0.00    -0.096 C 
ATOM     37  H   UNL     1      10.113   4.885   8.981  0.00  0.00    -0.082 HD
ENDBRANCH  27  30
ENDBRANCH  10  24
BRANCH   1  38
ATOM     38  O   UNL     1      -0.150  -0.259   2.436  0.00  0.00    -0.410 OA
BRANCH  38  45
ATOM     39  C   UNL     1      -0.073   1.118  -0.030  0.00  0.00    +0.047 C 
ATOM     40  C   UNL     1      -0.250  -0.375   0.061  0.00  0.00    -0.008 A 
ATOM     41  C   UNL     1      -0.377  -1.128  -1.090  0.00  0.00    +0.007 A 
ATOM     42  C   UNL     1      -0.541  -2.498  -1.007  0.00  0.00    +0.001 A 
ATOM     43  C   UNL     1      -0.578  -3.119   0.228  0.00  0.00    +0.007 A 
ATOM     44  C   UNL     1      -0.451  -2.371   1.382  0.00  0.00    -0.008 A 
ATOM     45  C   UNL     1      -0.281  -0.996   1.301  0.00  0.00    +0.139 A 
ATOM     46  C   UNL     1      -0.493  -3.048   2.728  0.00  0.00    +0.047 C 
ENDBRANCH  38  45
ENDBRANCH   1  38
TORSDOF 6
