REMARK  Name = CHEMBL591793
REMARK  8 active torsions:
REMARK  status: ('A' for Active; 'I' for Inactive)
REMARK    1  A    between atoms: C_4  and  O_7
REMARK    2  A    between atoms: O_7  and  C_8
REMARK    3  A    between atoms: C_11  and  C_14
REMARK    4  A    between atoms: C_15  and  C_37
REMARK    5  A    between atoms: C_24  and  O_28
REMARK    6  A    between atoms: O_28  and  C_29
REMARK    7  A    between atoms: C_29  and  C_30
REMARK    8  A    between atoms: C_30  and  N_31
REMARK                            x       y       z     vdW  Elec       q    Type
REMARK                         _______ _______ _______ _____ _____    ______ ____
ROOT
ATOM      1  C   UNL     1       4.387  -6.094  -1.199  0.00  0.00    +0.107 A 
ATOM      2  C   UNL     1       5.496  -6.967  -1.616  0.00  0.00    +0.104 A 
ATOM      3  C   UNL     1       5.059  -8.257  -1.366  0.00  0.00    +0.134 A 
ATOM      4  N   UNL     1       3.847  -8.209  -0.846  0.00  0.00    -0.249 N 
ATOM      5  N   UNL     1       3.429  -6.875  -0.749  0.00  0.00    -0.169 NA
ATOM      6  C   UNL     1       3.091  -9.392  -0.422  0.00  0.00    +0.150 C 
ATOM      7  C   UNL     1       3.741 -10.059   0.771  0.00  0.00    +0.060 C 
ATOM      8  C   UNL     1       5.141 -10.574   0.515  0.00  0.00    -0.024 A 
ATOM      9  C   UNL     1       5.591 -11.436   1.527  0.00  0.00    +0.009 A 
ATOM     10  C   UNL     1       6.831 -12.023   1.484  0.00  0.00    +0.046 A 
ATOM     11  C   UNL     1       7.681 -11.773   0.415  0.00  0.00    +0.122 A 
ATOM     12  C   UNL     1       7.257 -10.923  -0.588  0.00  0.00    +0.069 A 
ATOM     13  C   UNL     1       5.996 -10.322  -0.534  0.00  0.00    +0.039 A 
ATOM     14  N   UNL     1       5.694  -9.459  -1.588  0.00  0.00    -0.299 N 
ATOM     15  H   UNL     1       5.935  -9.711  -2.493  0.00  0.00    +0.154 HD
ENDROOT
BRANCH   1  19
ATOM     16  C   UNL     1       4.301  -1.846  -1.396  0.00  0.00    +0.128 A 
ATOM     17  C   UNL     1       3.138  -2.574  -1.613  0.00  0.00    +0.047 A 
ATOM     18  C   UNL     1       3.163  -3.951  -1.550  0.00  0.00    +0.014 A 
ATOM     19  C   UNL     1       4.357  -4.613  -1.268  0.00  0.00    +0.003 A 
ATOM     20  C   UNL     1       5.523  -3.880  -1.050  0.00  0.00    +0.014 A 
ATOM     21  C   UNL     1       5.493  -2.503  -1.120  0.00  0.00    +0.047 A 
BRANCH  16  22
ATOM     22  O   UNL     1       4.274  -0.490  -1.458  0.00  0.00    -0.456 OA
BRANCH  22  26
ATOM     23  C   UNL     1       3.010   1.578   1.880  0.00  0.00    +0.000 A 
ATOM     24  C   UNL     1       3.158   0.204   1.934  0.00  0.00    +0.004 A 
ATOM     25  C   UNL     1       3.580  -0.490   0.818  0.00  0.00    +0.046 A 
ATOM     26  C   UNL     1       3.857   0.192  -0.359  0.00  0.00    +0.128 A 
ATOM     27  C   UNL     1       3.708   1.570  -0.410  0.00  0.00    +0.046 A 
ATOM     28  C   UNL     1       3.284   2.260   0.709  0.00  0.00    +0.004 A 
ENDBRANCH  22  26
ENDBRANCH  16  22
ENDBRANCH   1  19
BRANCH   2  29
ATOM     29  C   UNL     1       6.788  -6.558  -2.176  0.00  0.00    +0.247 C 
ATOM     30  O   UNL     1       7.729  -6.337  -1.437  0.00  0.00    -0.270 OA
ATOM     31  N   UNL     1       6.933  -6.427  -3.510  0.00  0.00    -0.325 N 
ATOM     32  H   UNL     1       6.182  -6.603  -4.099  0.00  0.00    +0.145 HD
ATOM     33  H   UNL     1       7.787  -6.156  -3.881  0.00  0.00    +0.145 HD
ENDBRANCH   2  29
BRANCH  11  34
ATOM     34  O   UNL     1       8.909 -12.353   0.357  0.00  0.00    -0.491 OA
BRANCH  34  35
ATOM     35  C   UNL     1       9.269 -13.218   1.436  0.00  0.00    +0.244 C 
BRANCH  35  36
ATOM     36  C   UNL     1      10.675 -13.772   1.197  0.00  0.00    +0.125 C 
BRANCH  36  37
ATOM     37  N   UNL     1      11.646 -12.670   1.214  0.00  0.00    -0.295 NA
ATOM     38  C   UNL     1      12.904 -13.066   0.565  0.00  0.00    +0.112 C 
ATOM     39  C   UNL     1      13.862 -11.873   0.551  0.00  0.00    +0.175 C 
ATOM     40  O   UNL     1      14.065 -11.415   1.891  0.00  0.00    -0.377 OA
ATOM     41  C   UNL     1      12.860 -11.020   2.553  0.00  0.00    +0.175 C 
ATOM     42  C   UNL     1      11.891 -12.205   2.587  0.00  0.00    +0.112 C 
ENDBRANCH  36  37
ENDBRANCH  35  36
ENDBRANCH  34  35
ENDBRANCH  11  34
TORSDOF 8
