REMARK  Name = CHEMBL567886
REMARK  4 active torsions:
REMARK  status: ('A' for Active; 'I' for Inactive)
REMARK    1  A    between atoms: C_6  and  C_11
REMARK    2  A    between atoms: C_17  and  C_19
REMARK    3  A    between atoms: C_19  and  N_20
REMARK    4  A    between atoms: C_25  and  N_27
REMARK                            x       y       z     vdW  Elec       q    Type
REMARK                         _______ _______ _______ _____ _____    ______ ____
ROOT
ATOM      1  C   UNL     1       4.977  -2.713  -0.059  0.00  0.00    +0.247 C 
ATOM      2  O   UNL     1       6.015  -2.091  -0.173  0.00  0.00    -0.270 OA
ATOM      3  N   UNL     1       5.003  -4.057   0.036  0.00  0.00    -0.297 N 
ATOM      4  C   UNL     1       3.755  -4.832   0.039  0.00  0.00    +0.108 C 
ATOM      5  C   UNL     1       3.835  -5.901  -1.054  0.00  0.00    +0.019 C 
ATOM      6  C   UNL     1       5.097  -6.742  -0.848  0.00  0.00    +0.008 C 
ATOM      7  C   UNL     1       6.333  -5.846  -0.957  0.00  0.00    +0.024 C 
ATOM      8  C   UNL     1       6.281  -4.776   0.131  0.00  0.00    +0.113 C 
ENDROOT
BRANCH   1  14
ATOM      9  C   UNL     1      -0.922  -0.318   0.923  0.00  0.00    +0.001 A 
ATOM     10  C   UNL     1      -0.713  -1.383   1.797  0.00  0.00    +0.001 A 
ATOM     11  C   UNL     1       0.462  -2.069   1.795  0.00  0.00    +0.008 A 
ATOM     12  C   UNL     1       1.482  -1.700   0.900  0.00  0.00    -0.017 A 
ATOM     13  C   UNL     1       2.705  -2.387   0.872  0.00  0.00    +0.021 A 
ATOM     14  C   UNL     1       3.686  -1.995  -0.024  0.00  0.00    +0.037 A 
ATOM     15  C   UNL     1       3.462  -0.918  -0.901  0.00  0.00    +0.013 A 
ATOM     16  C   UNL     1       2.285  -0.242  -0.887  0.00  0.00    +0.009 A 
ATOM     17  C   UNL     1       1.269  -0.616   0.011  0.00  0.00    -0.018 A 
ATOM     18  C   UNL     1       0.042   0.067   0.043  0.00  0.00    +0.008 A 
ENDBRANCH   1  14
BRANCH   7  19
ATOM     19  C   UNL     1       7.595  -6.693  -0.784  0.00  0.00    +0.109 C 
BRANCH  19  20
ATOM     20  N   UNL     1       8.778  -5.858  -1.007  0.00  0.00    -0.313 N 
ATOM     21  C   UNL     1      10.043  -6.409  -0.903  0.00  0.00    +0.217 A 
ATOM     22  N   UNL     1      10.166  -7.695  -0.607  0.00  0.00    -0.223 NA
ATOM     23  C   UNL     1      11.360  -8.257  -0.500  0.00  0.00    +0.118 A 
ATOM     24  C   UNL     1      12.491  -7.487  -0.701  0.00  0.00    +0.066 A 
ATOM     25  C   UNL     1      12.329  -6.137  -1.011  0.00  0.00    +0.144 A 
ATOM     26  N   UNL     1      11.101  -5.639  -1.108  0.00  0.00    -0.197 NA
ATOM     27  H   UNL     1       8.674  -4.919  -1.227  0.00  0.00    +0.149 HD
BRANCH  25  28
ATOM     28  N   UNL     1      13.440  -5.322  -1.222  0.00  0.00    -0.283 N 
ATOM     29  C   UNL     1      14.748  -5.706  -1.164  0.00  0.00    +0.206 A 
ATOM     30  N   UNL     1      15.522  -4.692  -1.413  0.00  0.00    -0.235 NA
ATOM     31  C   UNL     1      14.768  -3.586  -1.648  0.00  0.00    +0.089 A 
ATOM     32  C   UNL     1      13.423  -3.974  -1.535  0.00  0.00    +0.075 A 
ATOM     33  C   UNL     1      12.414  -3.043  -1.731  0.00  0.00    +0.028 A 
ATOM     34  C   UNL     1      12.736  -1.738  -2.040  0.00  0.00    +0.002 A 
ATOM     35  C   UNL     1      14.063  -1.350  -2.157  0.00  0.00    +0.002 A 
ATOM     36  C   UNL     1      15.077  -2.259  -1.958  0.00  0.00    +0.030 A 
ENDBRANCH  25  28
ENDBRANCH  19  20
ENDBRANCH   7  19
TORSDOF 4
