REMARK  Name = CHEMBL186564
REMARK  5 active torsions:
REMARK  status: ('A' for Active; 'I' for Inactive)
REMARK    1  A    between atoms: C_1  and  C_2
REMARK    2  A    between atoms: C_7  and  N_8
REMARK    3  A    between atoms: C_9  and  C_11
REMARK    4  A    between atoms: C_19  and  C_24
REMARK    5  A    between atoms: C_21  and  C_23
REMARK                            x       y       z     vdW  Elec       q    Type
REMARK                         _______ _______ _______ _____ _____    ______ ____
ROOT
ATOM      1  C   UNL     1      -0.457   0.108   4.800  0.00  0.00    +0.095 A 
ATOM      2  C   UNL     1      -0.818  -0.327   6.067  0.00  0.00    +0.133 A 
ATOM      3  N   UNL     1      -0.823   0.577   7.013  0.00  0.00    -0.232 NA
ATOM      4  C   UNL     1      -0.500   1.834   6.768  0.00  0.00    +0.165 A 
ATOM      5  S   UNL     1      -0.144   1.837   5.123  0.00  0.00    -0.047 S 
ATOM      6  N   UNL     1      -0.458   2.894   7.653  0.00  0.00    -0.263 N 
ATOM      7  C   UNL     1      -0.781   2.697   8.987  0.00  0.00    +0.221 A 
ATOM      8  N   UNL     1      -1.123   1.484   9.397  0.00  0.00    -0.219 NA
ATOM      9  C   UNL     1      -1.437   1.262  10.662  0.00  0.00    +0.044 A 
ATOM     10  C   UNL     1      -1.405   2.316  11.562  0.00  0.00    +0.046 A 
ATOM     11  C   UNL     1      -1.043   3.571  11.099  0.00  0.00    +0.044 A 
ATOM     12  N   UNL     1      -0.736   3.724   9.822  0.00  0.00    -0.219 NA
ATOM     13  C   UNL     1      -0.994   4.746  12.041  0.00  0.00    +0.066 C 
ATOM     14  C   UNL     1      -1.824  -0.121  11.120  0.00  0.00    +0.066 C 
ATOM     15  H   UNL     1      -0.203   3.776   7.341  0.00  0.00    +0.157 HD
ENDROOT
BRANCH   1  17
ATOM     16  N   UNL     1       0.026  -0.015   2.417  0.00  0.00    -0.280 N 
ATOM     17  C   UNL     1      -0.354  -0.641   3.548  0.00  0.00    +0.256 C 
ATOM     18  O   UNL     1      -0.613  -1.831   3.528  0.00  0.00    -0.269 OA
ATOM     19  H   UNL     1       0.301   0.915   2.446  0.00  0.00    +0.155 HD
BRANCH  16  26
ATOM     20  C   UNL     1      -2.321   0.099   0.812  0.00  0.00    +0.046 C 
ATOM     21  C   UNL     1      -1.101  -0.676   0.386  0.00  0.00    -0.028 A 
ATOM     22  C   UNL     1      -1.099  -1.354  -0.818  0.00  0.00    +0.005 A 
ATOM     23  C   UNL     1       0.020  -2.066  -1.210  0.00  0.00    +0.002 A 
ATOM     24  C   UNL     1       1.140  -2.103  -0.399  0.00  0.00    +0.022 A 
ATOM     25  C   UNL     1       1.144  -1.427   0.806  0.00  0.00    +0.062 A 
ATOM     26  C   UNL     1       0.023  -0.705   1.200  0.00  0.00    +0.055 A 
ATOM     27 CL   UNL     1       2.550  -1.474   1.824  0.00  0.00    -0.082 Cl
ENDBRANCH  16  26
ENDBRANCH   1  17
TORSDOF 2
