REMARK  Name = CHEMBL308432
REMARK  7 active torsions:
REMARK  status: ('A' for Active; 'I' for Inactive)
REMARK    1  A    between atoms: C_1  and  C_2
REMARK    2  A    between atoms: C_7  and  N_8
REMARK    3  A    between atoms: C_9  and  C_11
REMARK    4  A    between atoms: N_23  and  C_24
REMARK    5  A    between atoms: C_24  and  C_25
REMARK    6  A    between atoms: C_25  and  C_26
REMARK    7  A    between atoms: N_30  and  C_31
REMARK                            x       y       z     vdW  Elec       q    Type
REMARK                         _______ _______ _______ _____ _____    ______ ____
ROOT
ATOM      1  C   UNL     1      -0.460   0.114   4.810  0.00  0.00    +0.038 A 
ATOM      2  C   UNL     1      -0.172   1.486   4.844  0.00  0.00    +0.015 A 
ATOM      3  C   UNL     1      -0.261   2.200   5.993  0.00  0.00    +0.029 A 
ATOM      4  C   UNL     1      -0.651   1.583   7.208  0.00  0.00    +0.080 A 
ATOM      5  C   UNL     1      -0.937   0.197   7.148  0.00  0.00    +0.041 A 
ATOM      6  C   UNL     1      -0.853  -0.525   5.990  0.00  0.00    +0.030 A 
ATOM      7  S   UNL     1      -1.373  -0.172   8.831  0.00  0.00    -0.052 S 
ATOM      8  C   UNL     1      -1.155   1.477   9.485  0.00  0.00    +0.167 A 
ATOM      9  N   UNL     1      -0.785   2.154   8.421  0.00  0.00    -0.225 NA
ATOM     10  N   UNL     1      -1.333   1.926  10.781  0.00  0.00    -0.248 N 
ATOM     11  C   UNL     1      -1.117   3.222  11.081  0.00  0.00    +0.305 C 
ATOM     12  O   UNL     1      -0.766   3.997  10.212  0.00  0.00    -0.252 OA
ATOM     13  N   UNL     1      -1.290   3.660  12.344  0.00  0.00    -0.299 N 
ATOM     14  H   UNL     1      -1.614   1.308  11.475  0.00  0.00    +0.158 HD
ATOM     15  H   UNL     1      -1.571   3.042  13.037  0.00  0.00    +0.150 HD
ENDROOT
BRANCH   1  17
ATOM     16  N   UNL     1       0.025  -0.015   2.417  0.00  0.00    -0.280 N 
ATOM     17  C   UNL     1      -0.355  -0.641   3.548  0.00  0.00    +0.248 C 
ATOM     18  O   UNL     1      -0.612  -1.830   3.528  0.00  0.00    -0.270 OA
ATOM     19  H   UNL     1       0.299   0.915   2.446  0.00  0.00    +0.155 HD
BRANCH  16  26
ATOM     20  C   UNL     1      -2.321   0.099   0.811  0.00  0.00    +0.046 C 
ATOM     21  C   UNL     1      -1.101  -0.677   0.386  0.00  0.00    -0.028 A 
ATOM     22  C   UNL     1      -1.099  -1.355  -0.818  0.00  0.00    +0.005 A 
ATOM     23  C   UNL     1       0.020  -2.067  -1.210  0.00  0.00    +0.002 A 
ATOM     24  C   UNL     1       1.140  -2.102  -0.399  0.00  0.00    +0.022 A 
ATOM     25  C   UNL     1       1.144  -1.426   0.806  0.00  0.00    +0.062 A 
ATOM     26  C   UNL     1       0.023  -0.705   1.200  0.00  0.00    +0.055 A 
ATOM     27 CL   UNL     1       2.550  -1.471   1.823  0.00  0.00    -0.082 Cl
ENDBRANCH  16  26
ENDBRANCH   1  17
BRANCH  13  28
ATOM     28  C   UNL     1      -1.055   5.069  12.669  0.00  0.00    +0.104 C 
BRANCH  28  29
ATOM     29  C   UNL     1      -1.321   5.300  14.158  0.00  0.00    +0.003 C 
BRANCH  29  30
ATOM     30  C   UNL     1      -1.075   6.771  14.498  0.00  0.00    -0.068 C 
ATOM     31  C   UNL     1      -1.348   7.030  16.000  0.00  0.00    -0.017 C 
ATOM     32  C   UNL     1      -0.482   8.291  16.263  0.00  0.00    -0.020 C 
ATOM     33  C   UNL     1       0.752   8.058  15.366  0.00  0.00    -0.079 C 
ATOM     34  N   UNL     1       0.351   7.112  14.308  0.00  0.00    +0.380 N 
ATOM     35  C   UNL     1       0.539   7.735  12.991  0.00  0.00    -0.096 C 
ATOM     36  H   UNL     1       0.911   6.276  14.371  0.00  0.00    -0.082 HD
ENDBRANCH  29  30
ENDBRANCH  28  29
ENDBRANCH  13  28
TORSDOF 5
