REMARK  Name = CHEMBL247667
REMARK  9 active torsions:
REMARK  status: ('A' for Active; 'I' for Inactive)
REMARK    1  A    between atoms: C_4  and  C_7
REMARK    2  A    between atoms: C_7  and  C_8
REMARK    3  A    between atoms: C_8  and  N_9
REMARK    4  A    between atoms: C_12  and  C_33
REMARK    5  A    between atoms: C_13  and  C_19
REMARK    6  A    between atoms: C_22  and  O_25
REMARK    7  A    between atoms: O_25  and  C_26
REMARK    8  A    between atoms: C_26  and  C_27
REMARK    9  A    between atoms: C_27  and  N_28
REMARK                            x       y       z     vdW  Elec       q    Type
REMARK                         _______ _______ _______ _____ _____    ______ ____
ROOT
ATOM      1  N   UNL     1       5.527  -1.533   1.400  0.00  0.00    -0.328 N 
ATOM      2  C   UNL     1       6.074  -2.006   2.579  0.00  0.00    +0.134 A 
ATOM      3  C   UNL     1       7.300  -2.686   2.580  0.00  0.00    +0.088 A 
ATOM      4  C   UNL     1       8.275  -3.079   1.555  0.00  0.00    +0.041 A 
ATOM      5  C   UNL     1       9.275  -3.730   2.227  0.00  0.00    +0.146 A 
ATOM      6  O   UNL     1       8.987  -3.760   3.543  0.00  0.00    -0.436 OA
ATOM      7  C   UNL     1       7.818  -3.149   3.800  0.00  0.00    +0.233 A 
ATOM      8  N   UNL     1       7.120  -2.922   4.911  0.00  0.00    -0.200 NA
ATOM      9  C   UNL     1       5.972  -2.280   4.866  0.00  0.00    +0.227 A 
ATOM     10  N   UNL     1       5.453  -1.823   3.741  0.00  0.00    -0.220 NA
ATOM     11  H   UNL     1       5.990  -1.673   0.559  0.00  0.00    +0.147 HD
ENDROOT
BRANCH   5  12
ATOM     12  C   UNL     1      10.480  -4.309   1.605  0.00  0.00    +0.018 A 
ATOM     13  C   UNL     1      11.740  -4.069   2.161  0.00  0.00    +0.015 A 
ATOM     14  C   UNL     1      12.864  -4.613   1.577  0.00  0.00    +0.046 A 
ATOM     15  C   UNL     1      12.746  -5.399   0.438  0.00  0.00    +0.120 A 
ATOM     16  C   UNL     1      11.496  -5.641  -0.118  0.00  0.00    +0.046 A 
ATOM     17  C   UNL     1      10.366  -5.105   0.462  0.00  0.00    +0.015 A 
BRANCH  15  18
ATOM     18  O   UNL     1      13.856  -5.933  -0.135  0.00  0.00    -0.494 OA
BRANCH  18  19
ATOM     19  C   UNL     1      13.663  -6.731  -1.304  0.00  0.00    +0.210 C 
BRANCH  19  20
ATOM     20  C   UNL     1      15.017  -7.241  -1.802  0.00  0.00    -0.037 C 
BRANCH  20  21
ATOM     21  N   UNL     1      15.596  -8.149  -0.803  0.00  0.00    +0.382 N 
ATOM     22  C   UNL     1      14.802  -9.402  -0.729  0.00  0.00    -0.079 C 
ATOM     23  C   UNL     1      15.799 -10.418  -0.115  0.00  0.00    -0.020 C 
ATOM     24  C   UNL     1      17.143 -10.020  -0.768  0.00  0.00    -0.020 C 
ATOM     25  C   UNL     1      16.957  -8.558  -1.213  0.00  0.00    -0.079 C 
ATOM     26  H   UNL     1      15.624  -7.700   0.101  0.00  0.00    -0.082 HD
ENDBRANCH  20  21
ENDBRANCH  19  20
ENDBRANCH  18  19
ENDBRANCH  15  18
ENDBRANCH   5  12
BRANCH   4  27
ATOM     27  C   UNL     1       8.194  -2.825   0.100  0.00  0.00    -0.014 A 
ATOM     28  C   UNL     1       7.210  -3.450  -0.667  0.00  0.00    +0.008 A 
ATOM     29  C   UNL     1       7.140  -3.209  -2.024  0.00  0.00    +0.001 A 
ATOM     30  C   UNL     1       8.043  -2.349  -2.624  0.00  0.00    +0.000 A 
ATOM     31  C   UNL     1       9.021  -1.727  -1.869  0.00  0.00    +0.001 A 
ATOM     32  C   UNL     1       9.098  -1.955  -0.511  0.00  0.00    +0.008 A 
ENDBRANCH   4  27
BRANCH   1  33
ATOM     33  C   UNL     1       4.248  -0.819   1.421  0.00  0.00    +0.107 C 
BRANCH  33  34
ATOM     34  C   UNL     1       3.871  -0.406  -0.003  0.00  0.00    +0.054 C 
BRANCH  34  38
ATOM     35  C   UNL     1       0.141   1.675   0.055  0.00  0.00    +0.000 A 
ATOM     36  C   UNL     1       1.325   2.375   0.194  0.00  0.00    +0.000 A 
ATOM     37  C   UNL     1       2.532   1.701   0.175  0.00  0.00    +0.004 A 
ATOM     38  C   UNL     1       2.555   0.328   0.018  0.00  0.00    -0.046 A 
ATOM     39  C   UNL     1       1.371  -0.372  -0.119  0.00  0.00    +0.004 A 
ATOM     40  C   UNL     1       0.164   0.302  -0.102  0.00  0.00    +0.000 A 
ENDBRANCH  34  38
ENDBRANCH  33  34
ENDBRANCH   1  33
TORSDOF 9
