REMARK  Name = CHEMBL187120
REMARK  5 active torsions:
REMARK  status: ('A' for Active; 'I' for Inactive)
REMARK    1  A    between atoms: C_1  and  C_2
REMARK    2  A    between atoms: C_7  and  N_8
REMARK    3  A    between atoms: C_17  and  C_18
REMARK    4  A    between atoms: N_19  and  C_23
REMARK    5  A    between atoms: C_21  and  C_22
REMARK                            x       y       z     vdW  Elec       q    Type
REMARK                         _______ _______ _______ _____ _____    ______ ____
ROOT
ATOM      1  N   UNL     1       0.080   0.152   2.372  0.00  0.00    -0.229 NA
ATOM      2  C   UNL     1      -1.067   0.415   2.958  0.00  0.00    +0.145 C 
ATOM      3  N   UNL     1      -2.312   0.007   2.418  0.00  0.00    -0.316 N 
ATOM      4  C   UNL     1      -3.317  -0.223   3.432  0.00  0.00    +0.160 C 
ATOM      5  C   UNL     1      -3.608   1.137   4.144  0.00  0.00    +0.219 C 
ATOM      6  N   UNL     1      -2.387   1.491   4.818  0.00  0.00    -0.303 N 
ATOM      7  C   UNL     1      -1.158   1.155   4.233  0.00  0.00    +0.103 A 
ATOM      8  C   UNL     1      -0.200   1.633   5.051  0.00  0.00    +0.142 A 
ATOM      9  N   UNL     1      -0.807   2.205   6.099  0.00  0.00    -0.240 NA
ATOM     10  C   UNL     1      -2.110   2.121   5.958  0.00  0.00    +0.109 A 
ATOM     11  C   UNL     1      -3.129   2.640   6.939  0.00  0.00    +0.086 C 
ATOM     12  N   UNL     1      -4.791   0.713   4.885  0.00  0.00    -0.234 N 
ATOM     13  N   UNL     1      -5.494  -0.096   3.950  0.00  0.00    -0.190 NA
ATOM     14  C   UNL     1      -4.701  -0.648   3.082  0.00  0.00    +0.057 C 
ATOM     15  C   UNL     1      -5.104  -1.546   1.940  0.00  0.00    +0.064 C 
ATOM     16  C   UNL     1      -5.165   1.042   6.263  0.00  0.00    +0.154 C 
ATOM     17  H   UNL     1      -2.473  -0.106   1.468  0.00  0.00    +0.148 HD
ENDROOT
BRANCH   1  24
ATOM     18  C   UNL     1      -0.048   1.654  -0.037  0.00  0.00    +0.046 C 
ATOM     19  C   UNL     1       0.042   0.150  -0.024  0.00  0.00    -0.024 A 
ATOM     20  C   UNL     1       0.071  -0.551  -1.211  0.00  0.00    +0.005 A 
ATOM     21  C   UNL     1       0.153  -1.932  -1.202  0.00  0.00    +0.002 A 
ATOM     22  C   UNL     1       0.208  -2.621  -0.003  0.00  0.00    +0.022 A 
ATOM     23  C   UNL     1       0.181  -1.933   1.193  0.00  0.00    +0.067 A 
ATOM     24  C   UNL     1       0.102  -0.537   1.191  0.00  0.00    +0.087 A 
ATOM     25 CL   UNL     1       0.249  -2.799   2.697  0.00  0.00    -0.081 Cl
ENDBRANCH   1  24
TORSDOF 1
