REMARK  Name = CHEMBL566284
REMARK  7 active torsions:
REMARK  status: ('A' for Active; 'I' for Inactive)
REMARK    1  A    between atoms: C_1  and  C_2
REMARK    2  A    between atoms: C_2  and  C_4
REMARK    3  A    between atoms: C_2  and  N_25
REMARK    4  A    between atoms: N_10  and  C_11
REMARK    5  A    between atoms: N_14  and  C_15
REMARK    6  A    between atoms: C_30  and  N_32
REMARK    7  A    between atoms: C_39  and  C_41
REMARK                            x       y       z     vdW  Elec       q    Type
REMARK                         _______ _______ _______ _____ _____    ______ ____
ROOT
ATOM      1  N   UNL     1      -0.238  -0.269   1.010  0.00  0.00    -0.309 N 
ATOM      2  C   UNL     1      -1.040  -0.471   2.120  0.00  0.00    +0.217 A 
ATOM      3  N   UNL     1      -2.356  -0.403   1.987  0.00  0.00    -0.223 NA
ATOM      4  C   UNL     1      -3.155  -0.591   3.026  0.00  0.00    +0.118 A 
ATOM      5  C   UNL     1      -2.602  -0.863   4.264  0.00  0.00    +0.066 A 
ATOM      6  C   UNL     1      -1.213  -0.929   4.372  0.00  0.00    +0.144 A 
ATOM      7  N   UNL     1      -0.472  -0.734   3.287  0.00  0.00    -0.197 NA
ATOM      8  H   UNL     1       0.727  -0.320   1.093  0.00  0.00    +0.149 HD
ENDROOT
BRANCH   6   9
ATOM      9  N   UNL     1      -0.612  -1.199   5.600  0.00  0.00    -0.283 N 
ATOM     10  C   UNL     1      -1.253  -1.427   6.782  0.00  0.00    +0.206 A 
ATOM     11  N   UNL     1      -0.386  -1.647   7.725  0.00  0.00    -0.235 NA
ATOM     12  C   UNL     1       0.873  -1.575   7.216  0.00  0.00    +0.090 A 
ATOM     13  C   UNL     1       0.746  -1.292   5.845  0.00  0.00    +0.075 A 
ATOM     14  C   UNL     1       1.879  -1.164   5.052  0.00  0.00    +0.029 A 
ATOM     15  C   UNL     1       3.121  -1.316   5.600  0.00  0.00    +0.012 A 
ATOM     16  C   UNL     1       3.264  -1.601   6.962  0.00  0.00    +0.003 A 
ATOM     17  C   UNL     1       2.143  -1.725   7.773  0.00  0.00    +0.040 A 
BRANCH  16  18
ATOM     18  C   UNL     1       4.618  -1.764   7.544  0.00  0.00    +0.076 A 
ATOM     19  C   UNL     1       5.757  -1.527   6.768  0.00  0.00    +0.048 A 
ATOM     20  C   UNL     1       6.999  -1.692   7.354  0.00  0.00    +0.116 A 
ATOM     21  N   UNL     1       7.072  -2.065   8.623  0.00  0.00    -0.223 NA
ATOM     22  C   UNL     1       5.976  -2.283   9.334  0.00  0.00    +0.213 A 
ATOM     23  N   UNL     1       4.768  -2.132   8.814  0.00  0.00    -0.215 NA
ATOM     24  N   UNL     1       6.097  -2.672  10.657  0.00  0.00    -0.327 N 
ATOM     25  H   UNL     1       6.976  -2.783  11.052  0.00  0.00    +0.145 HD
ATOM     26  H   UNL     1       5.302  -2.835  11.189  0.00  0.00    +0.145 HD
ENDBRANCH  16  18
ENDBRANCH   6   9
BRANCH   1  28
ATOM     27  C   UNL     1      -1.124   1.524  -0.398  0.00  0.00    +0.029 C 
ATOM     28  C   UNL     1      -0.848   0.023  -0.290  0.00  0.00    +0.089 C 
BRANCH  28  29
ATOM     29  C   UNL     1       0.107  -0.402  -1.408  0.00  0.00    +0.094 C 
ATOM     30  C   UNL     1      -0.579  -0.214  -2.765  0.00  0.00    +0.130 C 
ATOM     31  N   UNL     1       0.296  -0.766  -3.811  0.00  0.00    -0.283 N 
ATOM     32  C   UNL     1       0.809  -2.134  -3.639  0.00  0.00    +0.124 C 
ATOM     33  C   UNL     1       1.440  -2.246  -2.247  0.00  0.00    +0.103 C 
ATOM     34  N   UNL     1       0.467  -1.815  -1.235  0.00  0.00    -0.298 NA
ATOM     35  C   UNL     1      -0.729  -2.669  -1.258  0.00  0.00    +0.105 C 
ATOM     36  C   UNL     1       0.619  -0.038  -4.898  0.00  0.00    +0.307 C 
ATOM     37  O   UNL     1       0.114   1.055  -5.070  0.00  0.00    -0.252 OA
ATOM     38  N   UNL     1       1.502  -0.520  -5.795  0.00  0.00    -0.269 N 
ATOM     39  H   UNL     1       1.854  -1.419  -5.693  0.00  0.00    +0.156 HD
BRANCH  38  40
ATOM     40  C   UNL     1       1.910   0.272  -6.869  0.00  0.00    +0.042 A 
ATOM     41  C   UNL     1       1.735   1.639  -6.831  0.00  0.00    +0.024 A 
ATOM     42  C   UNL     1       2.137   2.438  -7.897  0.00  0.00    +0.002 A 
ATOM     43  C   UNL     1       2.713   1.895  -9.004  0.00  0.00    +0.008 A 
ATOM     44  C   UNL     1       2.910   0.506  -9.083  0.00  0.00    -0.016 A 
ATOM     45  C   UNL     1       2.510  -0.318  -8.002  0.00  0.00    +0.003 A 
ATOM     46  C   UNL     1       2.712  -1.705  -8.080  0.00  0.00    +0.010 A 
ATOM     47  C   UNL     1       3.294  -2.240  -9.188  0.00  0.00    +0.001 A 
ATOM     48  C   UNL     1       3.694  -1.430 -10.249  0.00  0.00    +0.001 A 
ATOM     49  C   UNL     1       3.502  -0.083 -10.214  0.00  0.00    +0.008 A 
ENDBRANCH  38  40
ENDBRANCH  28  29
ENDBRANCH   1  28
TORSDOF 5
