REMARK  Name = CHEMBL567241
REMARK  5 active torsions:
REMARK  status: ('A' for Active; 'I' for Inactive)
REMARK    1  A    between atoms: C_1  and  N_2
REMARK    2  A    between atoms: C_7  and  C_8
REMARK    3  A    between atoms: C_8  and  N_9
REMARK    4  A    between atoms: C_14  and  N_16
REMARK    5  A    between atoms: C_25  and  C_27
REMARK                            x       y       z     vdW  Elec       q    Type
REMARK                         _______ _______ _______ _____ _____    ______ ____
ROOT
ATOM      1  C   UNL     1       0.102   0.564  -0.368  0.00  0.00    -0.096 C 
ATOM      2  N   UNL     1      -0.185  -0.865  -0.183  0.00  0.00    +0.383 N 
ATOM      3  C   UNL     1      -1.633  -1.056  -0.035  0.00  0.00    -0.059 C 
ATOM      4  C   UNL     1      -2.147  -0.187   1.119  0.00  0.00    +0.089 C 
ATOM      5  N   UNL     1      -1.366  -0.504   2.324  0.00  0.00    -0.301 N 
ATOM      6  C   UNL     1       0.102  -0.497   2.222  0.00  0.00    +0.094 C 
ATOM      7  C   UNL     1       0.509  -1.351   1.017  0.00  0.00    -0.034 C 
ATOM      8  C   UNL     1      -1.978  -0.793   3.490  0.00  0.00    +0.247 C 
ATOM      9  O   UNL     1      -3.189  -0.727   3.574  0.00  0.00    -0.270 OA
ATOM     10  H   UNL     1       0.139  -1.379  -0.989  0.00  0.00    -0.082 HD
ENDROOT
BRANCH   8  11
ATOM     11  C   UNL     1      -1.177  -1.191   4.666  0.00  0.00    +0.037 A 
ATOM     12  C   UNL     1      -1.528  -2.343   5.393  0.00  0.00    +0.013 A 
ATOM     13  C   UNL     1      -0.808  -2.729   6.477  0.00  0.00    +0.009 A 
ATOM     14  C   UNL     1       0.306  -1.974   6.887  0.00  0.00    -0.018 A 
ATOM     15  C   UNL     1       1.067  -2.353   8.005  0.00  0.00    +0.008 A 
ATOM     16  C   UNL     1       2.140  -1.603   8.378  0.00  0.00    +0.001 A 
ATOM     17  C   UNL     1       2.498  -0.460   7.667  0.00  0.00    +0.001 A 
ATOM     18  C   UNL     1       1.786  -0.060   6.578  0.00  0.00    +0.008 A 
ATOM     19  C   UNL     1       0.671  -0.810   6.162  0.00  0.00    -0.017 A 
ATOM     20  C   UNL     1      -0.082  -0.430   5.041  0.00  0.00    +0.021 A 
ENDBRANCH   8  11
BRANCH   7  21
ATOM     21  C   UNL     1       2.021  -1.250   0.807  0.00  0.00    +0.090 C 
BRANCH  21  22
ATOM     22  N   UNL     1       2.394  -1.968  -0.414  0.00  0.00    -0.315 N 
ATOM     23  C   UNL     1       3.719  -2.015  -0.812  0.00  0.00    +0.217 A 
ATOM     24  N   UNL     1       4.637  -1.410  -0.072  0.00  0.00    -0.223 NA
ATOM     25  C   UNL     1       5.914  -1.435  -0.421  0.00  0.00    +0.118 A 
ATOM     26  C   UNL     1       6.289  -2.102  -1.572  0.00  0.00    +0.066 A 
ATOM     27  C   UNL     1       5.299  -2.728  -2.329  0.00  0.00    +0.144 A 
ATOM     28  N   UNL     1       4.038  -2.668  -1.919  0.00  0.00    -0.197 NA
ATOM     29  H   UNL     1       1.712  -2.409  -0.944  0.00  0.00    +0.149 HD
BRANCH  27  30
ATOM     30  N   UNL     1       5.630  -3.412  -3.498  0.00  0.00    -0.283 N 
ATOM     31  C   UNL     1       6.881  -3.558  -4.023  0.00  0.00    +0.206 A 
ATOM     32  N   UNL     1       6.825  -4.254  -5.120  0.00  0.00    -0.235 NA
ATOM     33  C   UNL     1       5.537  -4.604  -5.377  0.00  0.00    +0.089 A 
ATOM     34  C   UNL     1       4.753  -4.074  -4.338  0.00  0.00    +0.075 A 
ATOM     35  C   UNL     1       3.381  -4.279  -4.332  0.00  0.00    +0.028 A 
ATOM     36  C   UNL     1       2.792  -5.006  -5.346  0.00  0.00    +0.002 A 
ATOM     37  C   UNL     1       3.562  -5.534  -6.371  0.00  0.00    +0.002 A 
ATOM     38  C   UNL     1       4.924  -5.334  -6.398  0.00  0.00    +0.030 A 
ENDBRANCH  27  30
ENDBRANCH  21  22
ENDBRANCH   7  21
TORSDOF 4
