REMARK  Name = CHEMBL568101
REMARK  6 active torsions:
REMARK  status: ('A' for Active; 'I' for Inactive)
REMARK    1  A    between atoms: C_1  and  C_2
REMARK    2  A    between atoms: C_2  and  C_3
REMARK    3  A    between atoms: C_2  and  N_23
REMARK    4  A    between atoms: N_8  and  C_9
REMARK    5  A    between atoms: N_12  and  C_13
REMARK    6  A    between atoms: C_28  and  N_30
REMARK                            x       y       z     vdW  Elec       q    Type
REMARK                         _______ _______ _______ _____ _____    ______ ____
ROOT
ATOM      1  C   UNL     1       1.720  -0.307   0.368  0.00  0.00    +0.094 C 
ATOM      2  C   UNL     1       3.222  -0.405   0.657  0.00  0.00    +0.130 C 
ATOM      3  N   UNL     1       3.402  -0.851   2.047  0.00  0.00    -0.283 N 
ATOM      4  C   UNL     1       2.679  -2.052   2.491  0.00  0.00    +0.124 C 
ATOM      5  C   UNL     1       1.199  -1.890   2.130  0.00  0.00    +0.103 C 
ATOM      6  N   UNL     1       1.078  -1.587   0.698  0.00  0.00    -0.298 NA
ATOM      7  C   UNL     1       1.626  -2.677  -0.119  0.00  0.00    +0.105 C 
ATOM      8  C   UNL     1       4.210  -0.178   2.890  0.00  0.00    +0.307 C 
ATOM      9  O   UNL     1       4.872   0.756   2.482  0.00  0.00    -0.252 OA
ATOM     10  N   UNL     1       4.282  -0.540   4.186  0.00  0.00    -0.269 N 
ATOM     11  H   UNL     1       3.837  -1.346   4.490  0.00  0.00    +0.156 HD
ENDROOT
BRANCH  10  12
ATOM     12  C   UNL     1       4.999   0.248   5.094  0.00  0.00    +0.035 A 
ATOM     13  C   UNL     1       5.025   1.638   4.934  0.00  0.00    +0.024 A 
ATOM     14  C   UNL     1       5.714   2.428   5.801  0.00  0.00    +0.010 A 
ATOM     15  C   UNL     1       6.412   1.848   6.874  0.00  0.00    -0.018 A 
ATOM     16  C   UNL     1       7.132   2.639   7.785  0.00  0.00    +0.008 A 
ATOM     17  C   UNL     1       7.798   2.046   8.814  0.00  0.00    +0.001 A 
ATOM     18  C   UNL     1       7.777   0.663   8.979  0.00  0.00    +0.001 A 
ATOM     19  C   UNL     1       7.091  -0.136   8.117  0.00  0.00    +0.008 A 
ATOM     20  C   UNL     1       6.391   0.441   7.043  0.00  0.00    -0.016 A 
ATOM     21  C   UNL     1       5.668  -0.353   6.137  0.00  0.00    +0.031 A 
ENDBRANCH  10  12
BRANCH   1  23
ATOM     22  C   UNL     1       2.065   1.393  -1.430  0.00  0.00    +0.029 C 
ATOM     23  C   UNL     1       1.505   0.005  -1.114  0.00  0.00    +0.089 C 
BRANCH  23  24
ATOM     24  N   UNL     1       0.071  -0.024  -1.416  0.00  0.00    -0.309 N 
ATOM     25  C   UNL     1      -0.359  -0.288  -2.704  0.00  0.00    +0.217 A 
ATOM     26  N   UNL     1       0.538  -0.518  -3.651  0.00  0.00    -0.223 NA
ATOM     27  C   UNL     1       0.164  -0.775  -4.895  0.00  0.00    +0.118 A 
ATOM     28  C   UNL     1      -1.184  -0.802  -5.204  0.00  0.00    +0.066 A 
ATOM     29  C   UNL     1      -2.104  -0.556  -4.186  0.00  0.00    +0.144 A 
ATOM     30  N   UNL     1      -1.659  -0.310  -2.959  0.00  0.00    -0.197 NA
ATOM     31  H   UNL     1      -0.576   0.143  -0.713  0.00  0.00    +0.149 HD
BRANCH  29  32
ATOM     32  N   UNL     1      -3.472  -0.572  -4.451  0.00  0.00    -0.283 N 
ATOM     33  C   UNL     1      -4.060  -0.820  -5.657  0.00  0.00    +0.206 A 
ATOM     34  N   UNL     1      -5.354  -0.755  -5.544  0.00  0.00    -0.235 NA
ATOM     35  C   UNL     1      -5.689  -0.462  -4.260  0.00  0.00    +0.089 A 
ATOM     36  C   UNL     1      -4.488  -0.345  -3.539  0.00  0.00    +0.075 A 
ATOM     37  C   UNL     1      -4.520  -0.052  -2.184  0.00  0.00    +0.028 A 
ATOM     38  C   UNL     1      -5.731   0.121  -1.547  0.00  0.00    +0.002 A 
ATOM     39  C   UNL     1      -6.919   0.003  -2.254  0.00  0.00    +0.002 A 
ATOM     40  C   UNL     1      -6.907  -0.279  -3.601  0.00  0.00    +0.030 A 
ENDBRANCH  29  32
ENDBRANCH  23  24
ENDBRANCH   1  23
TORSDOF 4
