REMARK  Name = CHEMBL568543
REMARK  7 active torsions:
REMARK  status: ('A' for Active; 'I' for Inactive)
REMARK    1  A    between atoms: C_1  and  C_2
REMARK    2  A    between atoms: C_2  and  C_3
REMARK    3  A    between atoms: C_2  and  N_17
REMARK    4  A    between atoms: N_5  and  C_10
REMARK    5  A    between atoms: N_8  and  C_9
REMARK    6  A    between atoms: C_10  and  C_11
REMARK    7  A    between atoms: C_22  and  N_24
REMARK                            x       y       z     vdW  Elec       q    Type
REMARK                         _______ _______ _______ _____ _____    ______ ____
ROOT
ATOM      1  C   UNL     1      -0.019   1.526   0.010  0.00  0.00    +0.026 C 
ATOM      2  C   UNL     1       0.002  -0.004   0.002  0.00  0.00    +0.058 C 
ENDROOT
BRANCH   2   3
ATOM      3  C   UNL     1      -1.433  -0.534   0.013  0.00  0.00    -0.034 C 
ATOM      4  C   UNL     1      -2.110  -0.145   1.329  0.00  0.00    +0.071 C 
ATOM      5  N   UNL     1      -3.495  -0.639   1.329  0.00  0.00    -0.301 NA
ATOM      6  C   UNL     1      -4.246  -0.084   0.194  0.00  0.00    +0.066 C 
ATOM      7  C   UNL     1      -3.552  -0.473  -1.113  0.00  0.00    -0.063 C 
ATOM      8  N   UNL     1      -2.178   0.048  -1.111  0.00  0.00    +0.383 N 
ATOM      9  C   UNL     1      -1.518  -0.310  -2.374  0.00  0.00    -0.096 C 
ATOM     10  H   UNL     1      -2.200   1.052  -1.016  0.00  0.00    -0.082 HD
BRANCH   5  11
ATOM     11  C   UNL     1      -4.162  -0.334   2.602  0.00  0.00    +0.119 C 
BRANCH  11  12
ATOM     12  C   UNL     1      -5.481  -1.060   2.663  0.00  0.00    -0.033 A 
ATOM     13  C   UNL     1      -6.626  -0.456   2.178  0.00  0.00    +0.005 A 
ATOM     14  C   UNL     1      -7.836  -1.122   2.234  0.00  0.00    +0.000 A 
ATOM     15  C   UNL     1      -7.902  -2.392   2.775  0.00  0.00    +0.000 A 
ATOM     16  C   UNL     1      -6.757  -2.997   3.260  0.00  0.00    +0.000 A 
ATOM     17  C   UNL     1      -5.546  -2.333   3.199  0.00  0.00    +0.005 A 
ENDBRANCH  11  12
ENDBRANCH   5  11
ENDBRANCH   2   3
BRANCH   2  18
ATOM     18  N   UNL     1       0.711  -0.489   1.189  0.00  0.00    -0.312 N 
ATOM     19  C   UNL     1       2.090  -0.603   1.173  0.00  0.00    +0.217 A 
ATOM     20  N   UNL     1       2.754  -0.263   0.078  0.00  0.00    -0.223 NA
ATOM     21  C   UNL     1       4.074  -0.357   0.026  0.00  0.00    +0.118 A 
ATOM     22  C   UNL     1       4.763  -0.818   1.133  0.00  0.00    +0.066 A 
ATOM     23  C   UNL     1       4.036  -1.168   2.270  0.00  0.00    +0.144 A 
ATOM     24  N   UNL     1       2.714  -1.043   2.255  0.00  0.00    -0.197 NA
ATOM     25  H   UNL     1       0.213  -0.731   1.986  0.00  0.00    +0.149 HD
BRANCH  23  26
ATOM     26  N   UNL     1       4.689  -1.637   3.409  0.00  0.00    -0.283 N 
ATOM     27  C   UNL     1       6.035  -1.802   3.560  0.00  0.00    +0.206 A 
ATOM     28  N   UNL     1       6.297  -2.258   4.750  0.00  0.00    -0.235 NA
ATOM     29  C   UNL     1       5.141  -2.418   5.445  0.00  0.00    +0.089 A 
ATOM     30  C   UNL     1       4.093  -2.017   4.598  0.00  0.00    +0.075 A 
ATOM     31  C   UNL     1       2.782  -2.068   5.048  0.00  0.00    +0.028 A 
ATOM     32  C   UNL     1       2.511  -2.508   6.326  0.00  0.00    +0.002 A 
ATOM     33  C   UNL     1       3.542  -2.901   7.167  0.00  0.00    +0.002 A 
ATOM     34  C   UNL     1       4.849  -2.865   6.736  0.00  0.00    +0.030 A 
ENDBRANCH  23  26
ENDBRANCH   2  18
TORSDOF 5
