REMARK  Name = CHEMBL330903
REMARK  3 active torsions:
REMARK  status: ('A' for Active; 'I' for Inactive)
REMARK    1  A    between atoms: C_1  and  C_2
REMARK    2  A    between atoms: C_2  and  C_27
REMARK    3  A    between atoms: N_18  and  C_19
REMARK                            x       y       z     vdW  Elec       q    Type
REMARK                         _______ _______ _______ _____ _____    ______ ____
ROOT
ATOM      1  C   UNL     1      -7.306   4.351   3.283  0.00  0.00    +0.025 C 
ATOM      2  C   UNL     1      -6.001   3.554   3.320  0.00  0.00    +0.067 C 
ATOM      3  C   UNL     1      -6.179   2.330   2.451  0.00  0.00    -0.019 A 
ATOM      4  C   UNL     1      -6.511   2.442   1.120  0.00  0.00    +0.007 A 
ATOM      5  C   UNL     1      -6.669   1.307   0.341  0.00  0.00    +0.028 A 
ATOM      6  C   UNL     1      -6.495   0.050   0.897  0.00  0.00    +0.068 A 
ATOM      7  C   UNL     1      -6.157  -0.083   2.255  0.00  0.00    +0.103 A 
ATOM      8  C   UNL     1      -5.997   1.077   3.041  0.00  0.00    +0.069 A 
ATOM      9  C   UNL     1      -5.644   0.987   4.463  0.00  0.00    +0.253 C 
ATOM     10  O   UNL     1      -5.489  -0.111   4.960  0.00  0.00    -0.270 OA
ATOM     11  N   UNL     1      -5.487   2.073   5.232  0.00  0.00    -0.252 N 
ATOM     12  C   UNL     1      -5.636   3.327   4.771  0.00  0.00    +0.229 C 
ATOM     13  O   UNL     1      -5.480   4.272   5.515  0.00  0.00    -0.274 OA
ATOM     14  N   UNL     1      -6.054  -1.401   2.515  0.00  0.00    -0.214 NA
ATOM     15  C   UNL     1      -6.302  -2.089   1.426  0.00  0.00    +0.198 A 
ATOM     16  N   UNL     1      -6.581  -1.239   0.395  0.00  0.00    -0.326 N 
ATOM     17  H   UNL     1      -6.799  -1.490  -0.516  0.00  0.00    +0.169 HD
ATOM     18  N   UNL     1      -6.284  -3.464   1.336  0.00  0.00    -0.283 N 
ATOM     19  C   UNL     1      -4.909   4.421   2.691  0.00  0.00    +0.025 C 
ATOM     20  H   UNL     1      -5.254   1.948   6.166  0.00  0.00    +0.158 HD
ATOM     21  H   UNL     1      -6.395  -3.895   0.474  0.00  0.00    +0.155 HD
ENDROOT
BRANCH  18  22
ATOM     22  C   UNL     1      -6.105  -4.238   2.488  0.00  0.00    +0.071 A 
ATOM     23  C   UNL     1      -4.833  -4.417   3.016  0.00  0.00    +0.064 A 
ATOM     24  C   UNL     1      -4.660  -5.183   4.154  0.00  0.00    +0.022 A 
ATOM     25  C   UNL     1      -5.752  -5.769   4.767  0.00  0.00    +0.003 A 
ATOM     26  C   UNL     1      -7.020  -5.593   4.244  0.00  0.00    +0.022 A 
ATOM     27  C   UNL     1      -7.201  -4.825   3.110  0.00  0.00    +0.064 A 
ATOM     28 CL   UNL     1      -8.794  -4.598   2.458  0.00  0.00    -0.082 Cl
ATOM     29 CL   UNL     1      -3.461  -3.681   2.248  0.00  0.00    -0.082 Cl
ENDBRANCH  18  22
TORSDOF 1
