REMARK  Name = CHEMBL320967
REMARK  3 active torsions:
REMARK  status: ('A' for Active; 'I' for Inactive)
REMARK    1  A    between atoms: C_1  and  C_2
REMARK    2  A    between atoms: C_7  and  N_8
REMARK    3  A    between atoms: C_17  and  N_22
REMARK                            x       y       z     vdW  Elec       q    Type
REMARK                         _______ _______ _______ _____ _____    ______ ____
ROOT
ATOM      1  N   UNL     1       0.037  -0.018   2.419  0.00  0.00    -0.296 N 
ATOM      2  C   UNL     1      -0.352  -0.661   3.580  0.00  0.00    +0.149 A 
ATOM      3  C   UNL     1      -0.446   0.084   4.834  0.00  0.00    +0.106 A 
ATOM      4  C   UNL     1      -0.225   1.390   5.193  0.00  0.00    +0.142 A 
ATOM      5  N   UNL     1      -0.475   1.494   6.501  0.00  0.00    -0.243 NA
ATOM      6  C   UNL     1      -0.840   0.330   6.977  0.00  0.00    +0.204 A 
ATOM      7  N   UNL     1      -0.837  -0.576   5.984  0.00  0.00    -0.294 N 
ATOM      8  C   UNL     1      -1.130  -1.933   5.912  0.00  0.00    +0.075 A 
ATOM      9  C   UNL     1      -1.526  -2.625   7.047  0.00  0.00    +0.051 A 
ATOM     10  C   UNL     1      -1.817  -3.978   6.968  0.00  0.00    +0.032 A 
ATOM     11  C   UNL     1      -1.714  -4.647   5.751  0.00  0.00    +0.025 A 
ATOM     12  C   UNL     1      -1.322  -3.972   4.618  0.00  0.00    +0.032 A 
ATOM     13  C   UNL     1      -1.024  -2.605   4.683  0.00  0.00    +0.090 A 
ATOM     14  N   UNL     1      -0.644  -1.943   3.557  0.00  0.00    -0.228 NA
ATOM     15  H   UNL     1       0.176   0.942   2.420  0.00  0.00    +0.154 HD
ENDROOT
BRANCH   1  22
ATOM     16  C   UNL     1       2.683  -0.241   1.397  0.00  0.00    +0.046 C 
ATOM     17  C   UNL     1       1.506  -0.886   0.711  0.00  0.00    -0.028 A 
ATOM     18  C   UNL     1       1.696  -1.616  -0.447  0.00  0.00    +0.005 A 
ATOM     19  C   UNL     1       0.617  -2.208  -1.077  0.00  0.00    +0.002 A 
ATOM     20  C   UNL     1      -0.655  -2.073  -0.552  0.00  0.00    +0.022 A 
ATOM     21  C   UNL     1      -0.852  -1.344   0.606  0.00  0.00    +0.062 A 
ATOM     22  C   UNL     1       0.232  -0.752   1.245  0.00  0.00    +0.054 A 
ATOM     23 CL   UNL     1      -2.449  -1.174   1.265  0.00  0.00    -0.082 Cl
ENDBRANCH   1  22
BRANCH  10  24
ATOM     24  N   UNL     1      -2.216  -4.673   8.113  0.00  0.00    -0.325 N 
ATOM     25  C   UNL     1      -2.460  -3.967   9.381  0.00  0.00    +0.133 C 
ATOM     26  C   UNL     1      -3.832  -4.393   9.916  0.00  0.00    +0.178 C 
ATOM     27  O   UNL     1      -3.896  -5.821   9.961  0.00  0.00    -0.377 OA
ATOM     28  C   UNL     1      -3.779  -6.453   8.684  0.00  0.00    +0.178 C 
ATOM     29  C   UNL     1      -2.409  -6.131   8.085  0.00  0.00    +0.133 C 
ENDBRANCH  10  24
TORSDOF 2
