REMARK  Name = CHEMBL68104
REMARK  4 active torsions:
REMARK  status: ('A' for Active; 'I' for Inactive)
REMARK    1  A    between atoms: C_1  and  C_2
REMARK    2  A    between atoms: C_7  and  N_8
REMARK    3  A    between atoms: C_9  and  C_11
REMARK    4  A    between atoms: N_23  and  C_24
REMARK                            x       y       z     vdW  Elec       q    Type
REMARK                         _______ _______ _______ _____ _____    ______ ____
ROOT
ATOM      1  C   UNL     1      -0.185   0.078   4.862  0.00  0.00    +0.038 A 
ATOM      2  C   UNL     1       0.109   1.449   4.902  0.00  0.00    +0.015 A 
ATOM      3  C   UNL     1      -0.021   2.168   6.044  0.00  0.00    +0.029 A 
ATOM      4  C   UNL     1      -0.461   1.558   7.245  0.00  0.00    +0.080 A 
ATOM      5  C   UNL     1      -0.752   0.173   7.180  0.00  0.00    +0.041 A 
ATOM      6  C   UNL     1      -0.628  -0.554   6.029  0.00  0.00    +0.030 A 
ATOM      7  S   UNL     1      -1.254  -0.187   8.846  0.00  0.00    -0.052 S 
ATOM      8  C   UNL     1      -1.053   1.464   9.502  0.00  0.00    +0.167 A 
ATOM      9  N   UNL     1      -0.638   2.134   8.450  0.00  0.00    -0.225 NA
ATOM     10  N   UNL     1      -1.278   1.919  10.788  0.00  0.00    -0.248 N 
ATOM     11  C   UNL     1      -1.067   3.215  11.091  0.00  0.00    +0.310 C 
ATOM     12  O   UNL     1      -0.679   3.984  10.233  0.00  0.00    -0.252 OA
ATOM     13  N   UNL     1      -1.286   3.659  12.344  0.00  0.00    -0.269 N 
ATOM     14  H   UNL     1      -1.587   1.306  11.473  0.00  0.00    +0.158 HD
ATOM     15  H   UNL     1      -1.528   3.034  13.045  0.00  0.00    +0.156 HD
ENDROOT
BRANCH  13  16
ATOM     16  C   UNL     1      -1.163   5.024  12.635  0.00  0.00    +0.035 A 
ATOM     17  C   UNL     1      -0.817   5.433  13.916  0.00  0.00    +0.026 A 
ATOM     18  C   UNL     1      -0.696   6.779  14.201  0.00  0.00    +0.040 A 
ATOM     19  C   UNL     1      -0.921   7.720  13.210  0.00  0.00    +0.124 A 
ATOM     20  C   UNL     1      -1.268   7.314  11.933  0.00  0.00    +0.040 A 
ATOM     21  C   UNL     1      -1.384   5.969  11.642  0.00  0.00    +0.026 A 
ATOM     22  F   UNL     1      -0.803   9.036  13.491  0.00  0.00    -0.205 F 
ENDBRANCH  13  16
BRANCH   1  24
ATOM     23  N   UNL     1       0.392  -0.063   2.490  0.00  0.00    -0.280 N 
ATOM     24  C   UNL     1      -0.035  -0.683   3.608  0.00  0.00    +0.248 C 
ATOM     25  O   UNL     1      -0.298  -1.870   3.583  0.00  0.00    -0.270 OA
ATOM     26  H   UNL     1       0.679   0.863   2.529  0.00  0.00    +0.155 HD
BRANCH  23  33
ATOM     27  C   UNL     1      -0.892   1.117   0.242  0.00  0.00    +0.046 C 
ATOM     28  C   UNL     1      -0.193  -0.215   0.152  0.00  0.00    -0.028 A 
ATOM     29  C   UNL     1      -0.158  -0.898  -1.048  0.00  0.00    +0.005 A 
ATOM     30  C   UNL     1       0.483  -2.120  -1.132  0.00  0.00    +0.002 A 
ATOM     31  C   UNL     1       1.091  -2.664  -0.015  0.00  0.00    +0.022 A 
ATOM     32  C   UNL     1       1.060  -1.986   1.189  0.00  0.00    +0.062 A 
ATOM     33  C   UNL     1       0.421  -0.755   1.275  0.00  0.00    +0.055 A 
ATOM     34 CL   UNL     1       1.824  -2.669   2.590  0.00  0.00    -0.082 Cl
ENDBRANCH  23  33
ENDBRANCH   1  24
TORSDOF 3
