REMARK  Name = CHEMBL185784
REMARK  3 active torsions:
REMARK  status: ('A' for Active; 'I' for Inactive)
REMARK    1  A    between atoms: C_1  and  C_2
REMARK    2  A    between atoms: C_7  and  N_8
REMARK    3  A    between atoms: C_20  and  N_22
REMARK                            x       y       z     vdW  Elec       q    Type
REMARK                         _______ _______ _______ _____ _____    ______ ____
ROOT
ATOM      1  N   UNL     1       0.025  -0.015   2.416  0.00  0.00    -0.296 N 
ATOM      2  C   UNL     1      -0.365  -0.658   3.577  0.00  0.00    +0.149 A 
ATOM      3  C   UNL     1      -0.474   0.089   4.828  0.00  0.00    +0.107 A 
ATOM      4  C   UNL     1      -0.269   1.399   5.184  0.00  0.00    +0.142 A 
ATOM      5  N   UNL     1      -0.530   1.506   6.489  0.00  0.00    -0.243 NA
ATOM      6  C   UNL     1      -0.885   0.340   6.968  0.00  0.00    +0.205 A 
ATOM      7  N   UNL     1      -0.866  -0.571   5.979  0.00  0.00    -0.278 N 
ATOM      8  C   UNL     1      -1.145  -1.928   5.912  0.00  0.00    +0.167 A 
ATOM      9  C   UNL     1      -1.024  -2.600   4.685  0.00  0.00    +0.109 A 
ATOM     10  N   UNL     1      -0.644  -1.944   3.558  0.00  0.00    -0.227 NA
ATOM     11  C   UNL     1      -1.310  -3.973   4.632  0.00  0.00    +0.035 A 
ATOM     12  C   UNL     1      -1.699  -4.608   5.794  0.00  0.00    +0.049 A 
ATOM     13  C   UNL     1      -1.796  -3.876   6.974  0.00  0.00    +0.141 A 
ATOM     14  N   UNL     1      -1.523  -2.583   6.999  0.00  0.00    -0.210 NA
ATOM     15  H   UNL     1       0.230   0.933   2.432  0.00  0.00    +0.154 HD
ENDROOT
BRANCH   1  22
ATOM     16  C   UNL     1       2.524  -1.212   1.769  0.00  0.00    +0.046 C 
ATOM     17  C   UNL     1       1.324  -1.332   0.865  0.00  0.00    -0.028 A 
ATOM     18  C   UNL     1       1.417  -2.044  -0.316  0.00  0.00    +0.005 A 
ATOM     19  C   UNL     1       0.317  -2.155  -1.147  0.00  0.00    +0.002 A 
ATOM     20  C   UNL     1      -0.879  -1.553  -0.800  0.00  0.00    +0.022 A 
ATOM     21  C   UNL     1      -0.979  -0.840   0.380  0.00  0.00    +0.062 A 
ATOM     22  C   UNL     1       0.124  -0.732   1.220  0.00  0.00    +0.054 A 
ATOM     23 CL   UNL     1      -2.481  -0.085   0.814  0.00  0.00    -0.082 Cl
ENDBRANCH   1  22
BRANCH  13  24
ATOM     24  N   UNL     1      -2.190  -4.519   8.151  0.00  0.00    -0.290 N 
ATOM     25  C   UNL     1      -2.431  -3.924   9.364  0.00  0.00    +0.114 A 
ATOM     26  C   UNL     1      -2.784  -4.905  10.216  0.00  0.00    +0.130 A 
ATOM     27  N   UNL     1      -2.762  -6.068   9.548  0.00  0.00    -0.244 NA
ATOM     28  C   UNL     1      -2.413  -5.850   8.310  0.00  0.00    +0.205 A 
ENDBRANCH  13  24
TORSDOF 2
