REMARK  Name = CHEMBL86742
REMARK  5 active torsions:
REMARK  status: ('A' for Active; 'I' for Inactive)
REMARK    1  A    between atoms: C_1  and  C_2
REMARK    2  A    between atoms: C_7  and  N_8
REMARK    3  A    between atoms: C_9  and  C_11
REMARK    4  A    between atoms: C_25  and  C_27
REMARK    5  A    between atoms: C_27  and  N_28
REMARK                            x       y       z     vdW  Elec       q    Type
REMARK                         _______ _______ _______ _____ _____    ______ ____
ROOT
ATOM      1  C   UNL     1      -0.500   0.119   4.802  0.00  0.00    +0.038 A 
ATOM      2  C   UNL     1      -0.209   1.490   4.836  0.00  0.00    +0.015 A 
ATOM      3  C   UNL     1      -0.289   2.203   5.987  0.00  0.00    +0.029 A 
ATOM      4  C   UNL     1      -0.673   1.585   7.204  0.00  0.00    +0.080 A 
ATOM      5  C   UNL     1      -0.962   0.200   7.144  0.00  0.00    +0.041 A 
ATOM      6  C   UNL     1      -0.888  -0.521   5.984  0.00  0.00    +0.030 A 
ATOM      7  S   UNL     1      -1.387  -0.171   8.829  0.00  0.00    -0.052 S 
ATOM      8  C   UNL     1      -1.163   1.476   9.484  0.00  0.00    +0.165 A 
ATOM      9  N   UNL     1      -0.797   2.155   8.418  0.00  0.00    -0.225 NA
ATOM     10  N   UNL     1      -1.331   1.923  10.779  0.00  0.00    -0.279 N 
ATOM     11  C   UNL     1      -1.209   3.279  11.069  0.00  0.00    +0.125 A 
ATOM     12  C   UNL     1      -1.490   3.738  12.351  0.00  0.00    +0.044 A 
ATOM     13  C   UNL     1      -1.365   5.088  12.626  0.00  0.00    +0.005 A 
ATOM     14  C   UNL     1      -0.962   5.937  11.604  0.00  0.00    +0.025 A 
ATOM     15  C   UNL     1      -0.699   5.413  10.354  0.00  0.00    +0.057 A 
ATOM     16  N   UNL     1      -0.821   4.120  10.123  0.00  0.00    -0.235 NA
ATOM     17  H   UNL     1      -1.534   1.292  11.487  0.00  0.00    +0.155 HD
ENDROOT
BRANCH   1  19
ATOM     18  N   UNL     1      -0.030  -0.008   2.406  0.00  0.00    -0.280 N 
ATOM     19  C   UNL     1      -0.405  -0.635   3.539  0.00  0.00    +0.248 C 
ATOM     20  O   UNL     1      -0.664  -1.823   3.519  0.00  0.00    -0.270 OA
ATOM     21  H   UNL     1       0.254   0.919   2.437  0.00  0.00    +0.155 HD
BRANCH  18  28
ATOM     22  C   UNL     1      -1.417   1.177   0.223  0.00  0.00    +0.046 C 
ATOM     23  C   UNL     1      -0.717  -0.152   0.096  0.00  0.00    -0.028 A 
ATOM     24  C   UNL     1      -0.732  -0.829  -1.108  0.00  0.00    +0.005 A 
ATOM     25  C   UNL     1      -0.091  -2.048  -1.226  0.00  0.00    +0.002 A 
ATOM     26  C   UNL     1       0.569  -2.594  -0.140  0.00  0.00    +0.022 A 
ATOM     27  C   UNL     1       0.588  -1.922   1.067  0.00  0.00    +0.062 A 
ATOM     28  C   UNL     1      -0.052  -0.694   1.187  0.00  0.00    +0.055 A 
ATOM     29 CL   UNL     1       1.415  -2.607   2.431  0.00  0.00    -0.082 Cl
ENDBRANCH  18  28
ENDBRANCH   1  19
BRANCH  15  30
ATOM     30  C   UNL     1      -0.260   6.330   9.241  0.00  0.00    +0.140 C 
BRANCH  30  31
ATOM     31  N   UNL     1       1.207   6.338   9.163  0.00  0.00    -0.292 NA
ATOM     32  C   UNL     1       1.795   6.951  10.363  0.00  0.00    +0.113 C 
ATOM     33  C   UNL     1       3.321   6.885  10.268  0.00  0.00    +0.175 C 
ATOM     34  O   UNL     1       3.747   7.532   9.066  0.00  0.00    -0.377 OA
ATOM     35  C   UNL     1       3.194   6.961   7.877  0.00  0.00    +0.175 C 
ATOM     36  C   UNL     1       1.666   7.027   7.948  0.00  0.00    +0.113 C 
ENDBRANCH  30  31
ENDBRANCH  15  30
TORSDOF 4
