REMARK  Name = CHEMBL212632
REMARK  6 active torsions:
REMARK  status: ('A' for Active; 'I' for Inactive)
REMARK    1  A    between atoms: C_1  and  N_2
REMARK    2  A    between atoms: N_5  and  C_8
REMARK    3  A    between atoms: C_11  and  N_14
REMARK    4  A    between atoms: C_17  and  N_21
REMARK    5  A    between atoms: N_21  and  C_22
REMARK    6  A    between atoms: N_25  and  C_26
REMARK                            x       y       z     vdW  Elec       q    Type
REMARK                         _______ _______ _______ _____ _____    ______ ____
ROOT
ATOM      1  N   UNL     1      -1.907  -8.377   3.101  0.00  0.00    -0.299 N 
ATOM      2  C   UNL     1      -1.103  -8.832   4.135  0.00  0.00    +0.128 A 
ATOM      3  C   UNL     1      -1.671  -9.378   5.284  0.00  0.00    +0.088 A 
ATOM      4  C   UNL     1      -0.822  -9.820   6.292  0.00  0.00    +0.133 A 
ATOM      5  N   UNL     1       0.494  -9.706   6.125  0.00  0.00    -0.220 NA
ATOM      6  C   UNL     1       0.993  -9.183   5.023  0.00  0.00    +0.225 A 
ATOM      7  N   UNL     1       0.223  -8.758   4.043  0.00  0.00    -0.221 NA
ATOM      8  H   UNL     1      -2.871  -8.359   3.208  0.00  0.00    +0.154 HD
ENDROOT
BRANCH   1  12
ATOM      9  C   UNL     1      -0.182  -7.091  -0.471  0.00  0.00    +0.030 A 
ATOM     10  C   UNL     1       0.397  -8.131   0.244  0.00  0.00    +0.025 A 
ATOM     11  C   UNL     1      -0.175  -8.557   1.427  0.00  0.00    +0.025 A 
ATOM     12  C   UNL     1      -1.327  -7.945   1.901  0.00  0.00    +0.032 A 
ATOM     13  C   UNL     1      -1.906  -6.904   1.186  0.00  0.00    +0.025 A 
ATOM     14  C   UNL     1      -1.331  -6.475   0.006  0.00  0.00    +0.025 A 
BRANCH   9  19
ATOM     15  C   UNL     1       0.975  -6.933  -5.804  0.00  0.00    -0.096 C 
ATOM     16  N   UNL     1       1.022  -6.536  -4.391  0.00  0.00    +0.380 N 
ATOM     17  C   UNL     1       1.525  -7.657  -3.586  0.00  0.00    -0.060 C 
ATOM     18  C   UNL     1       1.682  -7.208  -2.130  0.00  0.00    +0.086 C 
ATOM     19  N   UNL     1       0.398  -6.659  -1.669  0.00  0.00    -0.333 N 
ATOM     20  C   UNL     1      -0.261  -5.643  -2.505  0.00  0.00    +0.086 C 
ATOM     21  C   UNL     1      -0.327  -6.165  -3.944  0.00  0.00    -0.060 C 
ATOM     22  H   UNL     1       1.639  -5.745  -4.285  0.00  0.00    -0.082 HD
ENDBRANCH   9  19
ENDBRANCH   1  12
BRANCH   4  23
ATOM     23  N   UNL     1      -1.339 -10.372   7.459  0.00  0.00    -0.243 N 
ATOM     24  C   UNL     1      -2.782 -10.593   7.587  0.00  0.00    +0.141 C 
ATOM     25  C   UNL     1      -0.514 -10.704   8.471  0.00  0.00    +0.312 C 
ATOM     26  O   UNL     1       0.683 -10.521   8.364  0.00  0.00    -0.252 OA
ATOM     27  N   UNL     1      -1.015 -11.239   9.602  0.00  0.00    -0.266 N 
ATOM     28  H   UNL     1      -1.975 -11.310   9.720  0.00  0.00    +0.156 HD
BRANCH  27  29
ATOM     29  C   UNL     1      -0.150 -11.693  10.605  0.00  0.00    +0.072 A 
ATOM     30  C   UNL     1       0.838 -10.854  11.104  0.00  0.00    +0.064 A 
ATOM     31  C   UNL     1       1.690 -11.305  12.095  0.00  0.00    +0.022 A 
ATOM     32  C   UNL     1       1.560 -12.590  12.589  0.00  0.00    +0.003 A 
ATOM     33  C   UNL     1       0.577 -13.428  12.095  0.00  0.00    +0.022 A 
ATOM     34  C   UNL     1      -0.282 -12.981  11.108  0.00  0.00    +0.064 A 
ATOM     35 CL   UNL     1      -1.521 -14.031  10.494  0.00  0.00    -0.082 Cl
ATOM     36 CL   UNL     1       1.004  -9.241  10.484  0.00  0.00    -0.082 Cl
ENDBRANCH  27  29
ENDBRANCH   4  23
TORSDOF 4
