REMARK  Name = CHEMBL337689
REMARK  3 active torsions:
REMARK  status: ('A' for Active; 'I' for Inactive)
REMARK    1  A    between atoms: C_1  and  O_2
REMARK    2  A    between atoms: O_2  and  C_3
REMARK    3  A    between atoms: C_4  and  C_20
REMARK                            x       y       z     vdW  Elec       q    Type
REMARK                         _______ _______ _______ _____ _____    ______ ____
ROOT
ATOM      1  C   UNL     1      -1.230  -0.544  -0.024  0.00  0.00    +0.123 C 
ATOM      2  C   UNL     1      -2.343   0.249  -0.100  0.00  0.00    +0.099 C 
ATOM      3  C   UNL     1      -3.682  -0.387  -0.166  0.00  0.00    +0.189 C 
ATOM      4  C   UNL     1      -3.843  -1.632   0.296  0.00  0.00    +0.037 C 
ATOM      5  C   UNL     1      -2.656  -2.356   0.864  0.00  0.00    +0.104 C 
ATOM      6  C   UNL     1      -1.419  -2.036   0.005  0.00  0.00    +0.141 C 
ATOM      7  C   UNL     1      -0.229  -2.728   0.627  0.00  0.00    +0.175 C 
ATOM      8  O   UNL     1       0.814  -2.138   0.817  0.00  0.00    -0.291 OA
ATOM      9  C   UNL     1      -0.384  -4.151   0.996  0.00  0.00    +0.029 A 
ATOM     10  C   UNL     1       0.729  -4.945   1.251  0.00  0.00    +0.012 A 
ATOM     11  C   UNL     1       0.559  -6.277   1.587  0.00  0.00    +0.001 A 
ATOM     12  C   UNL     1      -0.709  -6.825   1.670  0.00  0.00    +0.001 A 
ATOM     13  C   UNL     1      -1.829  -6.051   1.423  0.00  0.00    +0.012 A 
ATOM     14  C   UNL     1      -1.678  -4.709   1.088  0.00  0.00    +0.029 A 
ATOM     15  C   UNL     1      -2.861  -3.852   0.844  0.00  0.00    +0.172 C 
ATOM     16  O   UNL     1      -3.951  -4.336   0.625  0.00  0.00    -0.291 OA
ATOM     17  O   UNL     1      -4.735   0.289  -0.693  0.00  0.00    -0.287 OA
ENDROOT
BRANCH   1  19
ATOM     18  C   UNL     1       0.844  -0.220  -1.116  0.00  0.00    +0.276 C 
ATOM     19  O   UNL     1       0.001  -0.004   0.018  0.00  0.00    -0.498 OA
ENDBRANCH   1  19
BRANCH   2  20
ATOM     20  C   UNL     1      -2.219   1.660  -0.115  0.00  0.00    +0.265 C 
ATOM     21  O   UNL     1      -3.212   2.358  -0.083  0.00  0.00    -0.295 OA
ENDBRANCH   2  20
TORSDOF 2
