REMARK  Name = CHEMBL271099
REMARK  9 active torsions:
REMARK  status: ('A' for Active; 'I' for Inactive)
REMARK    1  A    between atoms: C_1  and  C_2
REMARK    2  A    between atoms: C_5  and  C_26
REMARK    3  A    between atoms: C_7  and  N_8
REMARK    4  A    between atoms: C_9  and  C_11
REMARK    5  A    between atoms: C_16  and  O_17
REMARK    6  A    between atoms: O_17  and  C_18
REMARK    7  A    between atoms: N_24  and  C_25
REMARK    8  A    between atoms: N_28  and  C_29
REMARK    9  A    between atoms: C_33  and  C_35
REMARK                            x       y       z     vdW  Elec       q    Type
REMARK                         _______ _______ _______ _____ _____    ______ ____
ROOT
ATOM      1  C   UNL     1       0.059   1.902  -0.103  0.00  0.00    +0.045 C 
ATOM      2  C   UNL     1       0.079   0.395  -0.080  0.00  0.00    -0.029 A 
ATOM      3  C   UNL     1       0.115  -0.312  -1.267  0.00  0.00    +0.006 A 
ATOM      4  C   UNL     1       0.133  -1.691  -1.254  0.00  0.00    +0.013 A 
ATOM      5  C   UNL     1       0.115  -2.378  -0.038  0.00  0.00    +0.039 A 
ATOM      6  C   UNL     1       0.079  -1.665   1.160  0.00  0.00    +0.036 A 
ATOM      7  C   UNL     1       0.066  -0.279   1.136  0.00  0.00    +0.037 A 
ENDROOT
BRANCH   7   8
ATOM      8  N   UNL     1       0.035   0.441   2.335  0.00  0.00    -0.281 N 
ATOM      9  C   UNL     1      -0.647  -0.041   3.393  0.00  0.00    +0.255 C 
ATOM     10  O   UNL     1      -1.167  -1.139   3.332  0.00  0.00    -0.270 OA
ATOM     11  H   UNL     1       0.504   1.287   2.405  0.00  0.00    +0.155 HD
BRANCH   9  12
ATOM     12  C   UNL     1      -0.764   0.762   4.621  0.00  0.00    +0.117 A 
ATOM     13  C   UNL     1      -0.178   2.031   4.709  0.00  0.00    +0.132 A 
ATOM     14  N   UNL     1      -0.305   2.720   5.828  0.00  0.00    -0.222 NA
ATOM     15  C   UNL     1      -0.976   2.228   6.863  0.00  0.00    +0.218 A 
ATOM     16  N   UNL     1      -1.546   1.032   6.827  0.00  0.00    -0.179 NA
ATOM     17  C   UNL     1      -1.472   0.277   5.739  0.00  0.00    +0.237 A 
ATOM     18  N   UNL     1      -1.081   2.984   8.012  0.00  0.00    -0.316 N 
ATOM     19  C   UNL     1      -0.459   4.309   8.076  0.00  0.00    +0.128 C 
ATOM     20  H   UNL     1      -1.568   2.639   8.777  0.00  0.00    +0.149 HD
BRANCH  17  21
ATOM     21  O   UNL     1      -2.062  -0.940   5.705  0.00  0.00    -0.437 OA
BRANCH  21  22
ATOM     22  C   UNL     1      -2.820  -1.312   6.770  0.00  0.00    +0.130 A 
ATOM     23  C   UNL     1      -2.420  -2.373   7.570  0.00  0.00    +0.046 A 
ATOM     24  C   UNL     1      -3.192  -2.749   8.652  0.00  0.00    +0.004 A 
ATOM     25  C   UNL     1      -4.361  -2.069   8.938  0.00  0.00    +0.000 A 
ATOM     26  C   UNL     1      -4.762  -1.012   8.143  0.00  0.00    +0.004 A 
ATOM     27  C   UNL     1      -3.991  -0.628   7.062  0.00  0.00    +0.046 A 
ENDBRANCH  21  22
ENDBRANCH  17  21
ENDBRANCH   9  12
ENDBRANCH   7   8
BRANCH   5  28
ATOM     28  C   UNL     1       0.134  -3.856  -0.021  0.00  0.00    +0.248 C 
ATOM     29  O   UNL     1       0.118  -4.452   1.038  0.00  0.00    -0.270 OA
ATOM     30  N   UNL     1       0.169  -4.543  -1.181  0.00  0.00    -0.281 N 
ATOM     31  H   UNL     1       0.262  -4.070  -2.022  0.00  0.00    +0.155 HD
BRANCH  30  32
ATOM     32  C   UNL     1       0.070  -5.938  -1.170  0.00  0.00    +0.034 A 
ATOM     33  C   UNL     1       0.775  -6.693  -2.098  0.00  0.00    +0.023 A 
ATOM     34  C   UNL     1       0.676  -8.070  -2.085  0.00  0.00    +0.002 A 
ATOM     35  C   UNL     1      -0.126  -8.698  -1.149  0.00  0.00    +0.012 A 
ATOM     36  C   UNL     1      -0.830  -7.949  -0.224  0.00  0.00    +0.057 A 
ATOM     37  C   UNL     1      -0.729  -6.572  -0.228  0.00  0.00    +0.035 A 
BRANCH  36  38
ATOM     38  C   UNL     1      -1.702  -8.638   0.794  0.00  0.00    +0.417 C 
ATOM     39  F   UNL     1      -1.637 -10.022   0.604  0.00  0.00    -0.166 F 
ATOM     40  F   UNL     1      -1.255  -8.323   2.081  0.00  0.00    -0.166 F 
ATOM     41  F   UNL     1      -3.025  -8.208   0.641  0.00  0.00    -0.166 F 
ENDBRANCH  36  38
ENDBRANCH  30  32
ENDBRANCH   5  28
TORSDOF 7
