REMARK  Name = CHEMBL475575
REMARK  9 active torsions:
REMARK  status: ('A' for Active; 'I' for Inactive)
REMARK    1  A    between atoms: C_1  and  O_2
REMARK    2  A    between atoms: O_2  and  C_3
REMARK    3  A    between atoms: C_5  and  N_11
REMARK    4  A    between atoms: C_7  and  O_9
REMARK    5  A    between atoms: O_9  and  C_10
REMARK    6  A    between atoms: N_11  and  C_12
REMARK    7  A    between atoms: C_13  and  C_31
REMARK    8  A    between atoms: N_21  and  C_22
REMARK    9  A    between atoms: C_28  and  N_30
REMARK                            x       y       z     vdW  Elec       q    Type
REMARK                         _______ _______ _______ _____ _____    ______ ____
ROOT
ATOM      1  C   UNL     1       1.872  -4.689  -3.345  0.00  0.00    +0.142 A 
ATOM      2  C   UNL     1       1.796  -6.092  -3.393  0.00  0.00    +0.121 A 
ATOM      3  C   UNL     1       2.380  -6.762  -4.557  0.00  0.00    +0.175 A 
ATOM      4  N   UNL     1       2.493  -8.021  -4.934  0.00  0.00    -0.214 NA
ATOM      5  C   UNL     1       3.125  -8.081  -6.104  0.00  0.00    +0.246 A 
ATOM      6  N   UNL     1       3.430  -6.871  -6.502  0.00  0.00    -0.151 NA
ATOM      7  N   UNL     1       2.962  -5.985  -5.523  0.00  0.00    -0.181 N 
ATOM      8  C   UNL     1       2.985  -4.630  -5.383  0.00  0.00    +0.220 A 
ATOM      9  N   UNL     1       2.457  -4.025  -4.343  0.00  0.00    -0.198 NA
ATOM     10  N   UNL     1       3.572  -3.873  -6.362  0.00  0.00    -0.312 N 
ATOM     11  H   UNL     1       3.963  -4.303  -7.138  0.00  0.00    +0.149 HD
ENDROOT
BRANCH  10  12
ATOM     12  C   UNL     1       3.610  -2.414  -6.236  0.00  0.00    +0.059 C 
ATOM     13  C   UNL     1       4.822  -2.006  -5.397  0.00  0.00    +0.020 C 
ATOM     14  C   UNL     1       6.102  -2.492  -6.080  0.00  0.00    +0.002 C 
ATOM     15  C   UNL     1       6.209  -1.863  -7.470  0.00  0.00    -0.001 C 
ATOM     16  C   UNL     1       4.997  -2.271  -8.309  0.00  0.00    -0.014 C 
ATOM     17  C   UNL     1       3.717  -1.785  -7.627  0.00  0.00    -0.055 C 
BRANCH  17  18
ATOM     18  N   UNL     1       2.553  -2.177  -8.432  0.00  0.00    +0.381 N 
ATOM     19  H   UNL     1       1.708  -1.857  -7.982  0.00  0.00    -0.090 HD
ATOM     20  H   UNL     1       2.623  -1.762  -9.350  0.00  0.00    -0.090 HD
ATOM     21  H   UNL     1       2.527  -3.182  -8.519  0.00  0.00    -0.090 HD
ENDBRANCH  17  18
ENDBRANCH  10  12
BRANCH   2  22
ATOM     22  C   UNL     1       1.157  -6.854  -2.319  0.00  0.00    +0.248 C 
ATOM     23  O   UNL     1       0.591  -6.272  -1.412  0.00  0.00    -0.270 OA
ATOM     24  N   UNL     1       1.194  -8.201  -2.335  0.00  0.00    -0.325 N 
ATOM     25  H   UNL     1       1.645  -8.666  -3.058  0.00  0.00    +0.145 HD
ATOM     26  H   UNL     1       0.771  -8.707  -1.623  0.00  0.00    +0.145 HD
ENDBRANCH   2  22
BRANCH   1  27
ATOM     27  N   UNL     1       1.340  -4.003  -2.275  0.00  0.00    -0.298 N 
ATOM     28  H   UNL     1       1.647  -4.195  -1.375  0.00  0.00    +0.154 HD
BRANCH  27  31
ATOM     29  C   UNL     1      -1.217  -1.440  -1.614  0.00  0.00    +0.125 A 
ATOM     30  C   UNL     1      -0.244  -2.405  -1.403  0.00  0.00    +0.069 A 
ATOM     31  C   UNL     1       0.359  -3.030  -2.486  0.00  0.00    +0.039 A 
ATOM     32  C   UNL     1      -0.014  -2.689  -3.780  0.00  0.00    +0.069 A 
ATOM     33  C   UNL     1      -0.987  -1.724  -3.988  0.00  0.00    +0.125 A 
ATOM     34  C   UNL     1      -1.592  -1.103  -2.906  0.00  0.00    +0.091 A 
BRANCH  29  36
ATOM     35  C   UNL     1      -2.806   0.152  -0.844  0.00  0.00    +0.277 C 
ATOM     36  O   UNL     1      -1.807  -0.828  -0.554  0.00  0.00    -0.495 OA
ENDBRANCH  29  36
BRANCH  33  37
ATOM     37  O   UNL     1      -1.352  -1.389  -5.254  0.00  0.00    -0.495 OA
ATOM     38  C   UNL     1      -2.361  -0.387  -5.395  0.00  0.00    +0.277 C 
ENDBRANCH  33  37
ENDBRANCH  27  31
ENDBRANCH   1  27
TORSDOF 7
