REMARK  Name = CHEMBL325282
REMARK  1 active torsions:
REMARK  status: ('A' for Active; 'I' for Inactive)
REMARK    1  A    between atoms: C_4  and  N_8
REMARK                            x       y       z     vdW  Elec       q    Type
REMARK                         _______ _______ _______ _____ _____    ______ ____
ROOT
ATOM      1  N   UNL     1       3.623  -0.651  -0.037  0.00  0.00    -0.283 N 
ATOM      2  C   UNL     1       3.683  -1.968   0.363  0.00  0.00    +0.198 A 
ATOM      3  N   UNL     1       2.606  -2.737   0.696  0.00  0.00    -0.326 N 
ATOM      4  H   UNL     1       1.677  -2.459   0.693  0.00  0.00    +0.169 HD
ATOM      5  C   UNL     1       3.091  -3.989   1.040  0.00  0.00    +0.068 A 
ATOM      6  C   UNL     1       2.495  -5.167   1.457  0.00  0.00    +0.028 A 
ATOM      7  C   UNL     1       3.266  -6.282   1.734  0.00  0.00    +0.006 A 
ATOM      8  C   UNL     1       4.638  -6.235   1.597  0.00  0.00    -0.032 A 
ATOM      9  C   UNL     1       5.262  -5.060   1.176  0.00  0.00    +0.067 A 
ATOM     10  C   UNL     1       4.488  -3.919   0.893  0.00  0.00    +0.103 A 
ATOM     11  N   UNL     1       4.784  -2.673   0.476  0.00  0.00    -0.214 NA
ATOM     12  C   UNL     1       6.728  -5.043   1.036  0.00  0.00    +0.246 C 
ATOM     13  O   UNL     1       7.330  -3.987   0.990  0.00  0.00    -0.270 OA
ATOM     14  N   UNL     1       7.396  -6.212   0.960  0.00  0.00    -0.311 N 
ATOM     15  C   UNL     1       6.685  -7.488   0.957  0.00  0.00    +0.109 C 
ATOM     16  C   UNL     1       5.483  -7.446   1.898  0.00  0.00    +0.054 C 
ATOM     17  H   UNL     1       4.427  -0.199  -0.339  0.00  0.00    +0.155 HD
ATOM     18  H   UNL     1       8.364  -6.205   0.905  0.00  0.00    +0.149 HD
ENDROOT
BRANCH   1  22
ATOM     19  C   UNL     1      -0.009   1.391   0.047  0.00  0.00    +0.003 A 
ATOM     20  C   UNL     1       0.970   1.685   0.979  0.00  0.00    +0.022 A 
ATOM     21  C   UNL     1       2.175   1.010   0.954  0.00  0.00    +0.064 A 
ATOM     22  C   UNL     1       2.404   0.035  -0.009  0.00  0.00    +0.071 A 
ATOM     23  C   UNL     1       1.418  -0.259  -0.943  0.00  0.00    +0.064 A 
ATOM     24  C   UNL     1       0.214   0.420  -0.912  0.00  0.00    +0.022 A 
ATOM     25 CL   UNL     1       1.698  -1.477  -2.148  0.00  0.00    -0.082 Cl
ATOM     26 CL   UNL     1       3.404   1.382   2.123  0.00  0.00    -0.082 Cl
ENDBRANCH   1  22
TORSDOF 1
