REMARK  Name = CHEMBL240432
REMARK  10 active torsions:
REMARK  status: ('A' for Active; 'I' for Inactive)
REMARK    1  A    between atoms: C_4  and  C_7
REMARK    2  A    between atoms: C_9  and  N_30
REMARK    3  A    between atoms: C_15  and  C_16
REMARK    4  A    between atoms: C_19  and  O_22
REMARK    5  A    between atoms: O_22  and  C_23
REMARK    6  A    between atoms: C_23  and  C_24
REMARK    7  A    between atoms: C_24  and  N_25
REMARK    8  A    between atoms: N_30  and  C_31
REMARK    9  A    between atoms: C_31  and  C_32
REMARK   10  A    between atoms: C_32  and  N_33
REMARK                            x       y       z     vdW  Elec       q    Type
REMARK                         _______ _______ _______ _____ _____    ______ ____
ROOT
ATOM      1  C   UNL     1       3.675  -0.728  -0.010  0.00  0.00    +0.039 A 
ATOM      2  C   UNL     1       4.168  -1.643  -1.050  0.00  0.00    +0.067 A 
ATOM      3  C   UNL     1       3.630  -2.161  -2.236  0.00  0.00    +0.042 A 
ATOM      4  C   UNL     1       4.421  -3.029  -2.985  0.00  0.00    +0.041 A 
ATOM      5  C   UNL     1       5.690  -3.342  -2.534  0.00  0.00    +0.087 A 
ATOM      6  N   UNL     1       6.170  -2.840  -1.414  0.00  0.00    -0.332 N 
ATOM      7  C   UNL     1       5.464  -2.007  -0.658  0.00  0.00    +0.209 A 
ATOM      8  O   UNL     1       5.732  -1.377   0.503  0.00  0.00    -0.438 OA
ATOM      9  C   UNL     1       4.693  -0.616   0.897  0.00  0.00    +0.146 A 
ATOM     10  H   UNL     1       7.065  -3.086  -1.134  0.00  0.00    +0.168 HD
ENDROOT
BRANCH   1  14
ATOM     11  C   UNL     1      -0.116   1.185   0.138  0.00  0.00    +0.000 A 
ATOM     12  C   UNL     1       1.028   1.938  -0.059  0.00  0.00    +0.001 A 
ATOM     13  C   UNL     1       2.262   1.323  -0.108  0.00  0.00    +0.008 A 
ATOM     14  C   UNL     1       2.354  -0.061   0.042  0.00  0.00    -0.014 A 
ATOM     15  C   UNL     1       1.197  -0.815   0.240  0.00  0.00    +0.008 A 
ATOM     16  C   UNL     1      -0.031  -0.188   0.287  0.00  0.00    +0.001 A 
ENDBRANCH   1  14
BRANCH   9  17
ATOM     17  C   UNL     1       4.657   0.209   2.119  0.00  0.00    +0.018 A 
ATOM     18  C   UNL     1       3.551   0.151   2.971  0.00  0.00    +0.015 A 
ATOM     19  C   UNL     1       3.521   0.924   4.112  0.00  0.00    +0.046 A 
ATOM     20  C   UNL     1       4.589   1.759   4.415  0.00  0.00    +0.121 A 
ATOM     21  C   UNL     1       5.690   1.820   3.572  0.00  0.00    +0.046 A 
ATOM     22  C   UNL     1       5.731   1.046   2.432  0.00  0.00    +0.015 A 
BRANCH  20  23
ATOM     23  O   UNL     1       4.555   2.520   5.541  0.00  0.00    -0.490 OA
BRANCH  23  24
ATOM     24  C   UNL     1       5.686   3.356   5.793  0.00  0.00    +0.250 C 
BRANCH  24  25
ATOM     25  C   UNL     1       5.468   4.131   7.094  0.00  0.00    +0.163 C 
BRANCH  25  26
ATOM     26  N   UNL     1       6.627   4.988   7.352  0.00  0.00    -0.335 N 
ATOM     27  C   UNL     1       7.750   4.646   8.056  0.00  0.00    +0.104 A 
ATOM     28  C   UNL     1       8.558   5.723   8.049  0.00  0.00    +0.101 A 
ATOM     29  N   UNL     1       7.945   6.697   7.360  0.00  0.00    -0.352 N 
ATOM     30  C   UNL     1       6.790   6.262   6.935  0.00  0.00    +0.173 A 
ATOM     31  H   UNL     1       8.305   7.584   7.199  0.00  0.00    +0.166 HD
ENDBRANCH  25  26
ENDBRANCH  24  25
ENDBRANCH  23  24
ENDBRANCH  20  23
ENDBRANCH   9  17
BRANCH   3  32
ATOM     32  N   UNL     1       2.348  -1.819  -2.652  0.00  0.00    -0.342 N 
ATOM     33  H   UNL     1       1.811  -1.214  -2.118  0.00  0.00    +0.146 HD
BRANCH  32  34
ATOM     34  C   UNL     1       1.810  -2.375  -3.896  0.00  0.00    +0.117 C 
BRANCH  34  35
ATOM     35  C   UNL     1       0.392  -1.843  -4.120  0.00  0.00    +0.103 C 
BRANCH  35  36
ATOM     36  N   UNL     1      -0.148  -2.400  -5.367  0.00  0.00    -0.304 NA
ATOM     37  C   UNL     1      -0.339  -3.853  -5.256  0.00  0.00    +0.065 C 
ATOM     38  C   UNL     1      -0.845  -4.401  -6.592  0.00  0.00    -0.067 C 
ATOM     39  N   UNL     1      -2.114  -3.749  -6.940  0.00  0.00    +0.381 N 
ATOM     40  C   UNL     1      -1.903  -2.301  -7.071  0.00  0.00    -0.067 C 
ATOM     41  C   UNL     1      -1.405  -1.736  -5.739  0.00  0.00    +0.065 C 
ATOM     42  H   UNL     1      -2.454  -4.120  -7.815  0.00  0.00    -0.086 HD
ATOM     43  H   UNL     1      -2.792  -3.925  -6.214  0.00  0.00    -0.086 HD
ENDBRANCH  35  36
ENDBRANCH  34  35
ENDBRANCH  32  34
ENDBRANCH   3  32
TORSDOF 10
