REMARK  Name = CHEMBL187120
REMARK  5 active torsions:
REMARK  status: ('A' for Active; 'I' for Inactive)
REMARK    1  A    between atoms: C_1  and  C_2
REMARK    2  A    between atoms: C_7  and  N_8
REMARK    3  A    between atoms: C_17  and  C_18
REMARK    4  A    between atoms: N_19  and  C_23
REMARK    5  A    between atoms: C_21  and  C_22
REMARK                            x       y       z     vdW  Elec       q    Type
REMARK                         _______ _______ _______ _____ _____    ______ ____
ROOT
ATOM      1  N   UNL     1       0.298   0.018   2.602  0.00  0.00    -0.229 NA
ATOM      2  C   UNL     1      -0.858   0.270   3.175  0.00  0.00    +0.145 C 
ATOM      3  N   UNL     1      -2.091  -0.171   2.634  0.00  0.00    -0.316 N 
ATOM      4  C   UNL     1      -3.195   0.701   2.966  0.00  0.00    +0.160 C 
ATOM      5  C   UNL     1      -3.395   0.663   4.515  0.00  0.00    +0.219 C 
ATOM      6  N   UNL     1      -2.202   1.245   5.074  0.00  0.00    -0.303 N 
ATOM      7  C   UNL     1      -0.973   1.028   4.437  0.00  0.00    +0.103 A 
ATOM      8  C   UNL     1      -0.038   1.636   5.194  0.00  0.00    +0.142 A 
ATOM      9  N   UNL     1      -0.663   2.212   6.230  0.00  0.00    -0.240 NA
ATOM     10  C   UNL     1      -1.954   1.990   6.148  0.00  0.00    +0.109 A 
ATOM     11  C   UNL     1      -2.988   2.487   7.125  0.00  0.00    +0.086 C 
ATOM     12  N   UNL     1      -4.674   1.363   4.559  0.00  0.00    -0.234 N 
ATOM     13  N   UNL     1      -5.381   0.827   3.447  0.00  0.00    -0.190 NA
ATOM     14  C   UNL     1      -4.584   0.417   2.506  0.00  0.00    +0.057 C 
ATOM     15  C   UNL     1      -4.987  -0.222   1.202  0.00  0.00    +0.064 C 
ATOM     16  C   UNL     1      -5.124   2.375   5.518  0.00  0.00    +0.154 C 
ATOM     17  H   UNL     1      -2.184  -0.973   2.097  0.00  0.00    +0.148 HD
ENDROOT
BRANCH   1  24
ATOM     18  C   UNL     1       0.160   1.477   0.168  0.00  0.00    +0.046 C 
ATOM     19  C   UNL     1       0.278  -0.025   0.207  0.00  0.00    -0.024 A 
ATOM     20  C   UNL     1       0.328  -0.745  -0.969  0.00  0.00    +0.005 A 
ATOM     21  C   UNL     1       0.437  -2.124  -0.936  0.00  0.00    +0.002 A 
ATOM     22  C   UNL     1       0.496  -2.791   0.275  0.00  0.00    +0.022 A 
ATOM     23  C   UNL     1       0.447  -2.084   1.459  0.00  0.00    +0.067 A 
ATOM     24  C   UNL     1       0.342  -0.690   1.433  0.00  0.00    +0.087 A 
ATOM     25 CL   UNL     1       0.520  -2.923   2.978  0.00  0.00    -0.081 Cl
ENDBRANCH   1  24
TORSDOF 1
