REMARK  Name = CHEMBL572197
REMARK  7 active torsions:
REMARK  status: ('A' for Active; 'I' for Inactive)
REMARK    1  A    between atoms: C_1  and  C_2
REMARK    2  A    between atoms: C_2  and  C_4
REMARK    3  A    between atoms: C_2  and  N_25
REMARK    4  A    between atoms: N_10  and  C_11
REMARK    5  A    between atoms: N_14  and  C_15
REMARK    6  A    between atoms: C_30  and  N_32
REMARK    7  A    between atoms: C_39  and  C_41
REMARK                            x       y       z     vdW  Elec       q    Type
REMARK                         _______ _______ _______ _____ _____    ______ ____
ROOT
ATOM      1  C   UNL     1       0.888   1.553  -0.743  0.00  0.00    +0.029 C 
ATOM      2  C   UNL     1       0.679   0.045  -0.587  0.00  0.00    +0.089 C 
ENDROOT
BRANCH   2   3
ATOM      3  C   UNL     1       1.177  -0.399   0.790  0.00  0.00    +0.094 C 
ATOM      4  C   UNL     1       2.692  -0.190   0.878  0.00  0.00    +0.130 C 
ATOM      5  N   UNL     1       3.169  -0.760   2.148  0.00  0.00    -0.283 N 
ATOM      6  C   UNL     1       2.785  -2.141   2.478  0.00  0.00    +0.124 C 
ATOM      7  C   UNL     1       1.266  -2.273   2.327  0.00  0.00    +0.103 C 
ATOM      8  N   UNL     1       0.869  -1.822   0.986  0.00  0.00    -0.298 NA
ATOM      9  C   UNL     1       1.500  -2.646  -0.054  0.00  0.00    +0.105 C 
ATOM     10  C   UNL     1       3.938  -0.036   2.985  0.00  0.00    +0.307 C 
ATOM     11  O   UNL     1       4.322   1.069   2.655  0.00  0.00    -0.252 OA
ATOM     12  N   UNL     1       4.281  -0.538   4.188  0.00  0.00    -0.269 N 
ATOM     13  H   UNL     1       4.031  -1.445   4.425  0.00  0.00    +0.156 HD
BRANCH  12  14
ATOM     14  C   UNL     1       4.995   0.248   5.094  0.00  0.00    +0.042 A 
ATOM     15  C   UNL     1       5.028   1.619   4.951  0.00  0.00    +0.024 A 
ATOM     16  C   UNL     1       5.738   2.411   5.848  0.00  0.00    +0.002 A 
ATOM     17  C   UNL     1       6.418   1.858   6.890  0.00  0.00    +0.008 A 
ATOM     18  C   UNL     1       6.409   0.464   7.072  0.00  0.00    -0.016 A 
ATOM     19  C   UNL     1       5.686  -0.352   6.168  0.00  0.00    +0.003 A 
ATOM     20  C   UNL     1       5.674  -1.744   6.354  0.00  0.00    +0.010 A 
ATOM     21  C   UNL     1       6.351  -2.289   7.402  0.00  0.00    +0.001 A 
ATOM     22  C   UNL     1       7.057  -1.486   8.295  0.00  0.00    +0.001 A 
ATOM     23  C   UNL     1       7.102  -0.135   8.138  0.00  0.00    +0.008 A 
ENDBRANCH  12  14
ENDBRANCH   2   3
BRANCH   2  24
ATOM     24  N   UNL     1      -0.746  -0.266  -0.715  0.00  0.00    -0.309 N 
ATOM     25  C   UNL     1      -1.304  -0.453  -1.968  0.00  0.00    +0.217 A 
ATOM     26  N   UNL     1      -0.532  -0.350  -3.041  0.00  0.00    -0.223 NA
ATOM     27  C   UNL     1      -1.030  -0.522  -4.255  0.00  0.00    +0.118 A 
ATOM     28  C   UNL     1      -2.375  -0.811  -4.401  0.00  0.00    +0.066 A 
ATOM     29  C   UNL     1      -3.161  -0.912  -3.253  0.00  0.00    +0.144 A 
ATOM     30  N   UNL     1      -2.595  -0.733  -2.065  0.00  0.00    -0.197 NA
ATOM     31  H   UNL     1      -1.300  -0.342   0.078  0.00  0.00    +0.149 HD
BRANCH  29  32
ATOM     32  N   UNL     1      -4.521  -1.202  -3.352  0.00  0.00    -0.283 N 
ATOM     33  C   UNL     1      -5.221  -1.418  -4.503  0.00  0.00    +0.206 A 
ATOM     34  N   UNL     1      -6.468  -1.662  -4.228  0.00  0.00    -0.235 NA
ATOM     35  C   UNL     1      -6.657  -1.619  -2.882  0.00  0.00    +0.090 A 
ATOM     36  C   UNL     1      -5.410  -1.330  -2.300  0.00  0.00    +0.075 A 
ATOM     37  C   UNL     1      -5.292  -1.229  -0.921  0.00  0.00    +0.029 A 
ATOM     38  C   UNL     1      -6.386  -1.413  -0.123  0.00  0.00    +0.010 A 
ATOM     39  C   UNL     1      -7.632  -1.705  -0.685  0.00  0.00    -0.016 A 
ATOM     40  C   UNL     1      -7.772  -1.802  -2.064  0.00  0.00    +0.038 A 
BRANCH  39  41
ATOM     41  C   UNL     1      -8.811  -1.903   0.193  0.00  0.00    -0.015 A 
ATOM     42  C   UNL     1     -10.065  -2.201  -0.346  0.00  0.00    +0.028 A 
ATOM     43  C   UNL     1     -11.135  -2.378   0.507  0.00  0.00    +0.111 A 
ATOM     44  N   UNL     1     -10.985  -2.269   1.813  0.00  0.00    -0.263 NA
ATOM     45  C   UNL     1      -9.819  -1.989   2.362  0.00  0.00    +0.111 A 
ATOM     46  C   UNL     1      -8.696  -1.802   1.582  0.00  0.00    +0.028 A 
ENDBRANCH  39  41
ENDBRANCH  29  32
ENDBRANCH   2  24
TORSDOF 5
