REMARK  Name = CHEMBL603859
REMARK  9 active torsions:
REMARK  status: ('A' for Active; 'I' for Inactive)
REMARK    1  A    between atoms: C_1  and  N_2
REMARK    2  A    between atoms: N_5  and  C_8
REMARK    3  A    between atoms: C_8  and  C_9
REMARK    4  A    between atoms: C_9  and  O_10
REMARK    5  A    between atoms: O_10  and  C_11
REMARK    6  A    between atoms: C_21  and  C_37
REMARK    7  A    between atoms: C_22  and  C_24
REMARK    8  A    between atoms: C_27  and  O_30
REMARK    9  A    between atoms: O_30  and  C_31
REMARK                            x       y       z     vdW  Elec       q    Type
REMARK                         _______ _______ _______ _____ _____    ______ ____
ROOT
ATOM      1  C   UNL     1      -0.828  -4.503   4.743  0.00  0.00    +0.121 A 
ATOM      2  C   UNL     1       0.324  -5.256   4.928  0.00  0.00    +0.047 A 
ATOM      3  C   UNL     1       0.688  -5.610   6.207  0.00  0.00    +0.027 A 
ATOM      4  C   UNL     1      -0.081  -5.221   7.309  0.00  0.00    +0.036 A 
ATOM      5  C   UNL     1      -1.219  -4.466   7.142  0.00  0.00    -0.021 A 
ATOM      6  C   UNL     1      -1.577  -4.115   5.832  0.00  0.00    +0.051 A 
ATOM      7  C   UNL     1      -2.177  -3.913   8.175  0.00  0.00    +0.060 C 
ATOM      8  C   UNL     1      -1.666  -3.970   9.598  0.00  0.00    +0.150 C 
ATOM      9  N   UNL     1      -1.428  -5.353  10.021  0.00  0.00    -0.249 N 
ATOM     10  C   UNL     1      -0.487  -6.127   9.512  0.00  0.00    +0.134 A 
ATOM     11  C   UNL     1      -0.553  -7.373  10.112  0.00  0.00    +0.104 A 
ATOM     12  C   UNL     1      -1.655  -7.280  11.083  0.00  0.00    +0.107 A 
ATOM     13  N   UNL     1      -2.142  -6.060  10.996  0.00  0.00    -0.169 NA
ATOM     14  N   UNL     1       0.383  -5.658   8.553  0.00  0.00    -0.299 N 
ATOM     15  H   UNL     1       1.333  -5.630   8.744  0.00  0.00    +0.154 HD
ENDROOT
BRANCH  12  16
ATOM     16  C   UNL     1      -2.127  -8.355  11.987  0.00  0.00    +0.003 A 
ATOM     17  C   UNL     1      -2.102  -9.684  11.565  0.00  0.00    +0.014 A 
ATOM     18  C   UNL     1      -2.541 -10.682  12.409  0.00  0.00    +0.047 A 
ATOM     19  C   UNL     1      -3.009 -10.366  13.677  0.00  0.00    +0.128 A 
ATOM     20  C   UNL     1      -3.035  -9.043  14.100  0.00  0.00    +0.047 A 
ATOM     21  C   UNL     1      -2.592  -8.041  13.263  0.00  0.00    +0.014 A 
BRANCH  19  22
ATOM     22  O   UNL     1      -3.442 -11.351  14.506  0.00  0.00    -0.456 OA
BRANCH  22  23
ATOM     23  C   UNL     1      -2.525 -12.238  14.976  0.00  0.00    +0.128 A 
ATOM     24  C   UNL     1      -1.176 -12.045  14.717  0.00  0.00    +0.046 A 
ATOM     25  C   UNL     1      -0.246 -12.948  15.197  0.00  0.00    +0.004 A 
ATOM     26  C   UNL     1      -0.660 -14.042  15.933  0.00  0.00    +0.000 A 
ATOM     27  C   UNL     1      -2.004 -14.236  16.192  0.00  0.00    +0.004 A 
ATOM     28  C   UNL     1      -2.937 -13.334  15.721  0.00  0.00    +0.046 A 
ENDBRANCH  22  23
ENDBRANCH  19  22
ENDBRANCH  12  16
BRANCH  11  29
ATOM     29  C   UNL     1       0.294  -8.538   9.838  0.00  0.00    +0.247 C 
ATOM     30  O   UNL     1       1.325  -8.702  10.464  0.00  0.00    -0.270 OA
ATOM     31  N   UNL     1      -0.068  -9.428   8.893  0.00  0.00    -0.325 N 
ATOM     32  H   UNL     1      -0.889  -9.298   8.394  0.00  0.00    +0.145 HD
ATOM     33  H   UNL     1       0.493 -10.199   8.712  0.00  0.00    +0.145 HD
ENDBRANCH  11  29
BRANCH   1  34
ATOM     34  O   UNL     1      -1.213  -4.146   3.489  0.00  0.00    -0.491 OA
BRANCH  34  35
ATOM     35  C   UNL     1      -0.388  -4.584   2.408  0.00  0.00    +0.244 C 
BRANCH  35  36
ATOM     36  C   UNL     1      -0.976  -4.089   1.085  0.00  0.00    +0.125 C 
BRANCH  36  41
ATOM     37  C   UNL     1      -0.240   1.364  -0.129  0.00  0.00    -0.096 C 
ATOM     38  N   UNL     1      -0.267  -0.105  -0.137  0.00  0.00    +0.379 N 
ATOM     39  C   UNL     1      -1.659  -0.569  -0.069  0.00  0.00    -0.064 C 
ATOM     40  C   UNL     1      -1.689  -2.098  -0.097  0.00  0.00    +0.066 C 
ATOM     41  N   UNL     1      -0.924  -2.621   1.044  0.00  0.00    -0.303 NA
ATOM     42  C   UNL     1       0.466  -2.145   1.002  0.00  0.00    +0.066 C 
ATOM     43  C   UNL     1       0.478  -0.615   1.021  0.00  0.00    -0.064 C 
ATOM     44  H   UNL     1       0.159  -0.444  -0.987  0.00  0.00    -0.082 HD
ENDBRANCH  36  41
ENDBRANCH  35  36
ENDBRANCH  34  35
ENDBRANCH   1  34
TORSDOF 8
