REMARK  Name = CHEMBL566361
REMARK  4 active torsions:
REMARK  status: ('A' for Active; 'I' for Inactive)
REMARK    1  A    between atoms: C_1  and  C_2
REMARK    2  A    between atoms: C_2  and  C_4
REMARK    3  A    between atoms: C_2  and  N_10
REMARK    4  A    between atoms: C_15  and  N_17
REMARK                            x       y       z     vdW  Elec       q    Type
REMARK                         _______ _______ _______ _____ _____    ______ ____
ROOT
ATOM      1  N   UNL     1      -1.372  -0.511   0.012  0.00  0.00    -0.311 N 
ATOM      2  C   UNL     1      -2.069  -0.646  -1.176  0.00  0.00    +0.217 A 
ATOM      3  N   UNL     1      -1.476  -0.317  -2.314  0.00  0.00    -0.223 NA
ATOM      4  C   UNL     1      -2.110  -0.433  -3.470  0.00  0.00    +0.118 A 
ATOM      5  C   UNL     1      -3.410  -0.905  -3.484  0.00  0.00    +0.066 A 
ATOM      6  C   UNL     1      -4.008  -1.243  -2.270  0.00  0.00    +0.144 A 
ATOM      7  N   UNL     1      -3.311  -1.106  -1.147  0.00  0.00    -0.197 NA
ATOM      8  H   UNL     1      -1.794  -0.752   0.852  0.00  0.00    +0.149 HD
ENDROOT
BRANCH   6   9
ATOM      9  N   UNL     1      -5.316  -1.722  -2.236  0.00  0.00    -0.283 N 
ATOM     10  C   UNL     1      -6.134  -1.919  -3.309  0.00  0.00    +0.206 A 
ATOM     11  N   UNL     1      -7.286  -2.375  -2.914  0.00  0.00    -0.235 NA
ATOM     12  C   UNL     1      -7.289  -2.504  -1.562  0.00  0.00    +0.089 A 
ATOM     13  C   UNL     1      -6.025  -2.092  -1.107  0.00  0.00    +0.075 A 
ATOM     14  C   UNL     1      -5.734  -2.121   0.249  0.00  0.00    +0.028 A 
ATOM     15  C   UNL     1      -6.687  -2.556   1.146  0.00  0.00    +0.002 A 
ATOM     16  C   UNL     1      -7.935  -2.967   0.702  0.00  0.00    +0.002 A 
ATOM     17  C   UNL     1      -8.244  -2.938  -0.639  0.00  0.00    +0.030 A 
ENDBRANCH   6   9
BRANCH   1  19
ATOM     18  C   UNL     1      -0.019   1.526   0.010  0.00  0.00    +0.028 C 
ATOM     19  C   UNL     1       0.002  -0.004   0.002  0.00  0.00    +0.073 C 
BRANCH  19  20
ATOM     20  C   UNL     1       0.742  -0.511   1.242  0.00  0.00    +0.009 C 
ATOM     21  C   UNL     1       0.763  -2.041   1.233  0.00  0.00    +0.005 C 
ATOM     22  C   UNL     1       1.503  -2.548   2.473  0.00  0.00    +0.000 C 
ATOM     23  C   UNL     1       2.938  -2.018   2.462  0.00  0.00    +0.000 C 
ATOM     24  C   UNL     1       2.917  -0.488   2.470  0.00  0.00    +0.000 C 
ATOM     25  C   UNL     1       2.178   0.019   1.231  0.00  0.00    +0.005 C 
ENDBRANCH  19  20
ENDBRANCH   1  19
TORSDOF 3
