REMARK  Name = CHEMBL477172
REMARK  5 active torsions:
REMARK  status: ('A' for Active; 'I' for Inactive)
REMARK    1  A    between atoms: C_1  and  C_2
REMARK    2  A    between atoms: C_7  and  N_8
REMARK    3  A    between atoms: C_20  and  N_24
REMARK    4  A    between atoms: C_27  and  C_31
REMARK    5  A    between atoms: C_31  and  N_32
REMARK                            x       y       z     vdW  Elec       q    Type
REMARK                         _______ _______ _______ _____ _____    ______ ____
ROOT
ATOM      1  N   UNL     1      -3.034   0.321   4.481  0.00  0.00    -0.283 N 
ATOM      2  C   UNL     1      -1.919  -0.128   3.805  0.00  0.00    +0.207 A 
ATOM      3  N   UNL     1      -1.841  -1.258   3.148  0.00  0.00    -0.214 NA
ATOM      4  C   UNL     1      -0.603  -1.387   2.603  0.00  0.00    +0.091 A 
ATOM      5  C   UNL     1       0.002  -2.376   1.823  0.00  0.00    +0.030 A 
ATOM      6  C   UNL     1       1.307  -2.218   1.411  0.00  0.00    +0.002 A 
ATOM      7  C   UNL     1       2.025  -1.085   1.764  0.00  0.00    +0.002 A 
ATOM      8  C   UNL     1       1.441  -0.100   2.535  0.00  0.00    +0.028 A 
ATOM      9  C   UNL     1       0.128  -0.242   2.958  0.00  0.00    +0.077 A 
ATOM     10  N   UNL     1      -0.729   0.544   3.715  0.00  0.00    -0.264 N 
ATOM     11  C   UNL     1      -0.433   1.783   4.280  0.00  0.00    +0.145 A 
ATOM     12  C   UNL     1       0.155   2.784   3.516  0.00  0.00    +0.090 A 
ATOM     13  C   UNL     1       0.431   4.004   4.127  0.00  0.00    +0.129 A 
ATOM     14  N   UNL     1       0.123   4.167   5.412  0.00  0.00    -0.220 NA
ATOM     15  C   UNL     1      -0.433   3.193   6.102  0.00  0.00    +0.225 A 
ATOM     16  N   UNL     1      -0.715   2.026   5.558  0.00  0.00    -0.218 NA
ATOM     17  H   UNL     1      -3.024   1.192   4.908  0.00  0.00    +0.155 HD
ENDROOT
BRANCH   1  24
ATOM     18  C   UNL     1      -4.017  -0.395   7.054  0.00  0.00    +0.046 C 
ATOM     19  C   UNL     1      -4.693  -0.852   5.787  0.00  0.00    -0.028 A 
ATOM     20  C   UNL     1      -5.827  -1.638   5.853  0.00  0.00    +0.005 A 
ATOM     21  C   UNL     1      -6.448  -2.057   4.691  0.00  0.00    +0.002 A 
ATOM     22  C   UNL     1      -5.937  -1.692   3.459  0.00  0.00    +0.022 A 
ATOM     23  C   UNL     1      -4.803  -0.907   3.385  0.00  0.00    +0.062 A 
ATOM     24  C   UNL     1      -4.179  -0.479   4.552  0.00  0.00    +0.055 A 
ATOM     25 CL   UNL     1      -4.162  -0.449   1.838  0.00  0.00    -0.082 Cl
ENDBRANCH   1  24
BRANCH  13  26
ATOM     26  N   UNL     1       1.018   5.036   3.407  0.00  0.00    -0.284 N 
ATOM     27  C   UNL     1       1.412   6.201   4.057  0.00  0.00    +0.124 A 
ATOM     28  C   UNL     1       1.563   6.202   5.440  0.00  0.00    +0.048 A 
ATOM     29  C   UNL     1       1.956   7.367   6.073  0.00  0.00    -0.029 A 
ATOM     30  C   UNL     1       2.186   8.497   5.299  0.00  0.00    +0.025 A 
ATOM     31  C   UNL     1       2.016   8.425   3.931  0.00  0.00    +0.113 A 
ATOM     32  N   UNL     1       1.645   7.298   3.354  0.00  0.00    -0.240 NA
ATOM     33  H   UNL     1       1.153   4.944   2.451  0.00  0.00    +0.155 HD
BRANCH  29  34
ATOM     34  C   UNL     1       2.131   7.409   7.570  0.00  0.00    +0.119 C 
BRANCH  34  35
ATOM     35  N   UNL     1       3.540   7.163   7.905  0.00  0.00    -0.294 NA
ATOM     36  C   UNL     1       3.923   5.780   7.590  0.00  0.00    +0.113 C 
ATOM     37  C   UNL     1       5.410   5.584   7.898  0.00  0.00    +0.175 C 
ATOM     38  O   UNL     1       5.655   5.915   9.268  0.00  0.00    -0.377 OA
ATOM     39  C   UNL     1       5.294   7.256   9.610  0.00  0.00    +0.175 C 
ATOM     40  C   UNL     1       3.806   7.468   9.319  0.00  0.00    +0.113 C 
ENDBRANCH  34  35
ENDBRANCH  29  34
ENDBRANCH  13  26
TORSDOF 4
