REMARK  Name = CHEMBL568542
REMARK  7 active torsions:
REMARK  status: ('A' for Active; 'I' for Inactive)
REMARK    1  A    between atoms: C_1  and  C_2
REMARK    2  A    between atoms: C_2  and  C_3
REMARK    3  A    between atoms: C_2  and  N_14
REMARK    4  A    between atoms: N_5  and  S_10
REMARK    5  A    between atoms: N_8  and  C_9
REMARK    6  A    between atoms: S_10  and  C_13
REMARK    7  A    between atoms: C_19  and  N_21
REMARK                            x       y       z     vdW  Elec       q    Type
REMARK                         _______ _______ _______ _____ _____    ______ ____
ROOT
ATOM      1  N   UNL     1       0.486  -0.200  -0.829  0.00  0.00    -0.309 N 
ATOM      2  C   UNL     1       1.865  -0.084  -0.784  0.00  0.00    +0.217 A 
ATOM      3  N   UNL     1       2.437   0.402   0.308  0.00  0.00    -0.223 NA
ATOM      4  C   UNL     1       3.753   0.527   0.388  0.00  0.00    +0.118 A 
ATOM      5  C   UNL     1       4.535   0.143  -0.686  0.00  0.00    +0.066 A 
ATOM      6  C   UNL     1       3.903  -0.364  -1.821  0.00  0.00    +0.144 A 
ATOM      7  N   UNL     1       2.579  -0.467  -1.831  0.00  0.00    -0.197 NA
ATOM      8  H   UNL     1       0.055  -0.558  -1.620  0.00  0.00    +0.149 HD
ENDROOT
BRANCH   6   9
ATOM      9  N   UNL     1       4.651  -0.763  -2.927  0.00  0.00    -0.283 N 
ATOM     10  C   UNL     1       6.010  -0.721  -3.043  0.00  0.00    +0.206 A 
ATOM     11  N   UNL     1       6.372  -1.170  -4.209  0.00  0.00    -0.235 NA
ATOM     12  C   UNL     1       5.274  -1.531  -4.923  0.00  0.00    +0.089 A 
ATOM     13  C   UNL     1       4.155  -1.281  -4.111  0.00  0.00    +0.075 A 
ATOM     14  C   UNL     1       2.881  -1.563  -4.581  0.00  0.00    +0.028 A 
ATOM     15  C   UNL     1       2.717  -2.090  -5.844  0.00  0.00    +0.002 A 
ATOM     16  C   UNL     1       3.818  -2.342  -6.649  0.00  0.00    +0.002 A 
ATOM     17  C   UNL     1       5.090  -2.061  -6.202  0.00  0.00    +0.030 A 
ENDBRANCH   6   9
BRANCH   1  19
ATOM     18  C   UNL     1      -0.592   1.722   0.233  0.00  0.00    +0.029 C 
ATOM     19  C   UNL     1      -0.322   0.218   0.320  0.00  0.00    +0.088 C 
BRANCH  19  20
ATOM     20  C   UNL     1      -1.651  -0.540   0.312  0.00  0.00    +0.092 C 
ATOM     21  C   UNL     1      -2.417  -0.214  -0.975  0.00  0.00    +0.129 C 
ATOM     22  N   UNL     1      -3.616  -1.064  -1.032  0.00  0.00    -0.179 NA
ATOM     23  C   UNL     1      -3.451  -2.513  -0.843  0.00  0.00    +0.124 C 
ATOM     24  C   UNL     1      -2.644  -2.748   0.438  0.00  0.00    +0.101 C 
ATOM     25  N   UNL     1      -1.391  -1.984   0.371  0.00  0.00    -0.298 NA
ATOM     26  C   UNL     1      -0.511  -2.316   1.499  0.00  0.00    +0.105 C 
BRANCH  22  27
ATOM     27  S   UNL     1      -5.112  -0.407  -1.302  0.00  0.00    +0.029 S 
ATOM     28  O   UNL     1      -6.022  -1.318  -0.703  0.00  0.00    -0.158 OA
ATOM     29  O   UNL     1      -5.011   0.930  -0.832  0.00  0.00    -0.158 OA
ATOM     30  C   UNL     1      -5.309  -0.422  -3.106  0.00  0.00    +0.215 C 
ENDBRANCH  22  27
ENDBRANCH  19  20
ENDBRANCH   1  19
TORSDOF 4
