REMARK  Name = CHEMBL216240
REMARK  7 active torsions:
REMARK  status: ('A' for Active; 'I' for Inactive)
REMARK    1  A    between atoms: C_1  and  C_2
REMARK    2  A    between atoms: C_7  and  N_8
REMARK    3  A    between atoms: C_9  and  C_11
REMARK    4  A    between atoms: N_16  and  C_17
REMARK    5  A    between atoms: C_21  and  C_23
REMARK    6  A    between atoms: C_27  and  C_30
REMARK    7  A    between atoms: C_30  and  O_31
REMARK                            x       y       z     vdW  Elec       q    Type
REMARK                         _______ _______ _______ _____ _____    ______ ____
ROOT
ATOM      1  C   UNL     1       1.085   6.236   6.073  0.00  0.00    +0.095 A 
ATOM      2  C   UNL     1       1.060   6.220   7.461  0.00  0.00    +0.133 A 
ATOM      3  N   UNL     1       0.834   5.060   8.025  0.00  0.00    -0.232 NA
ATOM      4  C   UNL     1       0.640   3.969   7.305  0.00  0.00    +0.164 A 
ATOM      5  S   UNL     1       0.761   4.516   5.718  0.00  0.00    -0.047 S 
ATOM      6  N   UNL     1       0.393   2.685   7.750  0.00  0.00    -0.279 N 
ATOM      7  H   UNL     1       0.342   1.954   7.115  0.00  0.00    +0.155 HD
ENDROOT
BRANCH   6   8
ATOM      8  C   UNL     1       0.218   2.442   9.106  0.00  0.00    +0.129 A 
ATOM      9  C   UNL     1      -0.137   1.174   9.555  0.00  0.00    +0.085 A 
ATOM     10  C   UNL     1      -0.300   0.982  10.924  0.00  0.00    +0.103 A 
ATOM     11  N   UNL     1      -0.114   2.011  11.748  0.00  0.00    -0.332 N 
ATOM     12  C   UNL     1       0.222   3.197  11.283  0.00  0.00    +0.107 A 
ATOM     13  N   UNL     1       0.391   3.418   9.996  0.00  0.00    -0.219 NA
ATOM     14  C   UNL     1       0.423   4.333  12.253  0.00  0.00    +0.086 C 
ATOM     15  N   UNL     1      -0.653  -0.263  11.422  0.00  0.00    -0.317 N 
ATOM     16  C   UNL     1      -0.962  -0.439  12.848  0.00  0.00    +0.107 C 
ATOM     17  C   UNL     1      -2.337  -1.102  12.976  0.00  0.00    +0.025 C 
ATOM     18  C   UNL     1      -2.350  -2.400  12.165  0.00  0.00    +0.017 C 
ATOM     19  C   UNL     1      -2.102  -2.084  10.689  0.00  0.00    +0.025 C 
ATOM     20  C   UNL     1      -0.731  -1.430  10.534  0.00  0.00    +0.107 C 
ATOM     21  H   UNL     1      -0.226   1.886  12.704  0.00  0.00    +0.168 HD
BRANCH  18  22
ATOM     22  C   UNL     1      -3.711  -3.083  12.319  0.00  0.00    +0.159 C 
BRANCH  22  23
ATOM     23  O   UNL     1      -3.685  -4.350  11.659  0.00  0.00    -0.395 OA
ATOM     24  H   UNL     1      -4.516  -4.840  11.715  0.00  0.00    +0.209 HD
ENDBRANCH  22  23
ENDBRANCH  18  22
ENDBRANCH   6   8
BRANCH   1  26
ATOM     25  N   UNL     1       1.284   7.146   3.824  0.00  0.00    -0.280 N 
ATOM     26  C   UNL     1       1.308   7.353   5.156  0.00  0.00    +0.256 C 
ATOM     27  O   UNL     1       1.515   8.469   5.595  0.00  0.00    -0.269 OA
ATOM     28  H   UNL     1       1.040   6.276   3.473  0.00  0.00    +0.155 HD
BRANCH  25  35
ATOM     29  C   UNL     1       3.263   6.660   1.839  0.00  0.00    +0.046 C 
ATOM     30  C   UNL     1       2.571   7.993   1.965  0.00  0.00    -0.028 A 
ATOM     31  C   UNL     1       2.888   9.021   1.098  0.00  0.00    +0.005 A 
ATOM     32  C   UNL     1       2.254  10.245   1.213  0.00  0.00    +0.002 A 
ATOM     33  C   UNL     1       1.301  10.444   2.195  0.00  0.00    +0.022 A 
ATOM     34  C   UNL     1       0.980   9.421   3.066  0.00  0.00    +0.062 A 
ATOM     35  C   UNL     1       1.611   8.187   2.949  0.00  0.00    +0.055 A 
ATOM     36 CL   UNL     1      -0.215   9.671   4.299  0.00  0.00    -0.082 Cl
ENDBRANCH  25  35
ENDBRANCH   1  26
TORSDOF 5
