REMARK  Name = CHEMBL426438
REMARK  4 active torsions:
REMARK  status: ('A' for Active; 'I' for Inactive)
REMARK    1  A    between atoms: C_1  and  C_2
REMARK    2  A    between atoms: C_7  and  N_8
REMARK    3  A    between atoms: C_17  and  C_18
REMARK    4  A    between atoms: N_19  and  C_22
REMARK                            x       y       z     vdW  Elec       q    Type
REMARK                         _______ _______ _______ _____ _____    ______ ____
ROOT
ATOM      1  N   UNL     1      -0.268   0.708   2.376  0.00  0.00    -0.229 NA
ATOM      2  C   UNL     1      -1.444   0.900   2.935  0.00  0.00    +0.146 C 
ATOM      3  N   UNL     1      -2.668   0.581   2.331  0.00  0.00    -0.303 N 
ATOM      4  C   UNL     1      -3.653  -0.180   3.082  0.00  0.00    +0.233 C 
ATOM      5  C   UNL     1      -3.787   0.198   4.558  0.00  0.00    +0.220 C 
ATOM      6  N   UNL     1      -2.779   1.149   5.005  0.00  0.00    -0.302 N 
ATOM      7  C   UNL     1      -1.642   1.473   4.280  0.00  0.00    +0.103 A 
ATOM      8  C   UNL     1      -0.914   2.319   5.029  0.00  0.00    +0.142 A 
ATOM      9  N   UNL     1      -1.597   2.535   6.162  0.00  0.00    -0.240 NA
ATOM     10  C   UNL     1      -2.712   1.856   6.143  0.00  0.00    +0.109 A 
ATOM     11  C   UNL     1      -3.751   1.854   7.234  0.00  0.00    +0.086 C 
ATOM     12  N   UNL     1      -3.572  -1.089   5.250  0.00  0.00    -0.301 N 
ATOM     13  C   UNL     1      -3.288  -2.035   4.310  0.00  0.00    +0.182 C 
ATOM     14  N   UNL     1      -3.310  -1.607   3.099  0.00  0.00    -0.250 NA
ATOM     15  C   UNL     1      -3.651  -1.311   6.696  0.00  0.00    +0.132 C 
ATOM     16  H   UNL     1      -2.855   0.865   1.423  0.00  0.00    +0.150 HD
ENDROOT
BRANCH   1  23
ATOM     17  C   UNL     1      -0.287   2.495   0.167  0.00  0.00    +0.046 C 
ATOM     18  C   UNL     1      -0.192   1.000  -0.000  0.00  0.00    -0.024 A 
ATOM     19  C   UNL     1      -0.104   0.450  -1.262  0.00  0.00    +0.005 A 
ATOM     20  C   UNL     1      -0.018  -0.922  -1.419  0.00  0.00    +0.002 A 
ATOM     21  C   UNL     1      -0.017  -1.753  -0.312  0.00  0.00    +0.022 A 
ATOM     22  C   UNL     1      -0.104  -1.217   0.957  0.00  0.00    +0.067 A 
ATOM     23  C   UNL     1      -0.187   0.169   1.122  0.00  0.00    +0.087 A 
ATOM     24 CL   UNL     1      -0.104  -2.260   2.345  0.00  0.00    -0.081 Cl
ENDBRANCH   1  23
TORSDOF 1
