REMARK  Name = CHEMBL600873
REMARK  7 active torsions:
REMARK  status: ('A' for Active; 'I' for Inactive)
REMARK    1  A    between atoms: C_4  and  O_7
REMARK    2  A    between atoms: O_7  and  C_8
REMARK    3  A    between atoms: C_11  and  C_14
REMARK    4  A    between atoms: C_15  and  C_36
REMARK    5  A    between atoms: C_23  and  O_28
REMARK    6  A    between atoms: O_28  and  C_29
REMARK    7  A    between atoms: C_29  and  C_30
REMARK                            x       y       z     vdW  Elec       q    Type
REMARK                         _______ _______ _______ _____ _____    ______ ____
ROOT
ATOM      1  C   UNL     1       3.882  -6.234   0.072  0.00  0.00    +0.107 A 
ATOM      2  C   UNL     1       4.926  -7.067  -0.545  0.00  0.00    +0.104 A 
ATOM      3  C   UNL     1       4.571  -8.374  -0.255  0.00  0.00    +0.134 A 
ATOM      4  N   UNL     1       3.462  -8.370   0.463  0.00  0.00    -0.249 N 
ATOM      5  N   UNL     1       3.034  -7.051   0.659  0.00  0.00    -0.169 NA
ATOM      6  C   UNL     1       2.818  -9.581   0.980  0.00  0.00    +0.150 C 
ATOM      7  C   UNL     1       3.676 -10.251   2.032  0.00  0.00    +0.060 C 
ATOM      8  C   UNL     1       5.026 -10.722   1.533  0.00  0.00    -0.021 A 
ATOM      9  C   UNL     1       5.661 -11.589   2.435  0.00  0.00    +0.051 A 
ATOM     10  C   UNL     1       6.894 -12.141   2.167  0.00  0.00    +0.121 A 
ATOM     11  C   UNL     1       7.542 -11.845   0.976  0.00  0.00    +0.047 A 
ATOM     12  C   UNL     1       6.934 -10.992   0.083  0.00  0.00    +0.027 A 
ATOM     13  C   UNL     1       5.686 -10.428   0.362  0.00  0.00    +0.036 A 
ATOM     14  N   UNL     1       5.188  -9.553  -0.608  0.00  0.00    -0.299 N 
ATOM     15  H   UNL     1       5.280  -9.781  -1.547  0.00  0.00    +0.154 HD
ENDROOT
BRANCH   1  19
ATOM     16  C   UNL     1       3.657  -1.988  -0.010  0.00  0.00    +0.128 A 
ATOM     17  C   UNL     1       2.493  -2.744  -0.046  0.00  0.00    +0.047 A 
ATOM     18  C   UNL     1       2.563  -4.121  -0.019  0.00  0.00    +0.014 A 
ATOM     19  C   UNL     1       3.804  -4.754   0.043  0.00  0.00    +0.003 A 
ATOM     20  C   UNL     1       4.971  -3.992   0.078  0.00  0.00    +0.014 A 
ATOM     21  C   UNL     1       4.895  -2.615   0.046  0.00  0.00    +0.047 A 
BRANCH  16  22
ATOM     22  O   UNL     1       3.586  -0.632  -0.036  0.00  0.00    -0.456 OA
BRANCH  22  26
ATOM     23  C   UNL     1       3.335   1.363   3.566  0.00  0.00    +0.000 A 
ATOM     24  C   UNL     1       3.418  -0.017   3.546  0.00  0.00    +0.004 A 
ATOM     25  C   UNL     1       3.502  -0.687   2.341  0.00  0.00    +0.046 A 
ATOM     26  C   UNL     1       3.503   0.025   1.150  0.00  0.00    +0.128 A 
ATOM     27  C   UNL     1       3.420   1.410   1.174  0.00  0.00    +0.046 A 
ATOM     28  C   UNL     1       3.336   2.076   2.381  0.00  0.00    +0.004 A 
ENDBRANCH  22  26
ENDBRANCH  16  22
ENDBRANCH   1  19
BRANCH   2  29
ATOM     29  C   UNL     1       6.094  -6.612  -1.306  0.00  0.00    +0.247 C 
ATOM     30  O   UNL     1       7.141  -6.378  -0.731  0.00  0.00    -0.270 OA
ATOM     31  N   UNL     1       6.008  -6.452  -2.641  0.00  0.00    -0.325 N 
ATOM     32  H   UNL     1       5.173  -6.638  -3.099  0.00  0.00    +0.145 HD
ATOM     33  H   UNL     1       6.780  -6.150  -3.144  0.00  0.00    +0.145 HD
ENDBRANCH   2  29
BRANCH  10  34
ATOM     34  O   UNL     1       7.476 -12.976   3.069  0.00  0.00    -0.487 OA
BRANCH  34  35
ATOM     35  C   UNL     1       8.756 -13.511   2.725  0.00  0.00    +0.266 C 
BRANCH  35  36
ATOM     36  C   UNL     1       9.240 -14.407   3.836  0.00  0.00    +0.008 A 
ATOM     37  C   UNL     1       9.992 -13.889   4.879  0.00  0.00    +0.010 A 
ATOM     38  C   UNL     1      10.416 -14.750   5.879  0.00  0.00    +0.020 A 
ATOM     39  C   UNL     1      10.077 -16.088   5.804  0.00  0.00    +0.111 A 
ATOM     40  N   UNL     1       9.360 -16.547   4.797  0.00  0.00    -0.263 NA
ATOM     41  C   UNL     1       8.934 -15.755   3.832  0.00  0.00    +0.117 A 
ENDBRANCH  35  36
ENDBRANCH  34  35
ENDBRANCH  10  34
TORSDOF 7
