REMARK  Name = CHEMBL220551
REMARK  4 active torsions:
REMARK  status: ('A' for Active; 'I' for Inactive)
REMARK    1  A    between atoms: C_1  and  C_2
REMARK    2  A    between atoms: C_5  and  O_24
REMARK    3  A    between atoms: C_7  and  N_8
REMARK    4  A    between atoms: C_13  and  C_15
REMARK                            x       y       z     vdW  Elec       q    Type
REMARK                         _______ _______ _______ _____ _____    ______ ____
ROOT
ATOM      1  N   UNL     1       0.025  -0.013   2.416  0.00  0.00    -0.283 N 
ATOM      2  C   UNL     1      -0.058  -0.710   3.611  0.00  0.00    +0.220 A 
ATOM      3  N   UNL     1      -0.034  -2.035   3.588  0.00  0.00    -0.223 NA
ATOM      4  C   UNL     1      -0.111  -2.736   4.707  0.00  0.00    +0.116 A 
ATOM      5  C   UNL     1      -0.219  -2.072   5.917  0.00  0.00    +0.050 A 
ATOM      6  C   UNL     1      -0.242  -0.675   5.909  0.00  0.00    +0.098 A 
ATOM      7  N   UNL     1      -0.155  -0.035   4.745  0.00  0.00    -0.213 NA
ATOM      8  H   UNL     1      -0.074   0.952   2.410  0.00  0.00    +0.155 HD
ENDROOT
BRANCH   6   9
ATOM      9  C   UNL     1      -0.357   0.083   7.179  0.00  0.00    +0.139 A 
ATOM     10  C   UNL     1       0.098   1.463   7.416  0.00  0.00    +0.050 A 
ATOM     11  C   UNL     1       0.723   2.422   6.619  0.00  0.00    +0.014 A 
ATOM     12  C   UNL     1       1.026   3.647   7.143  0.00  0.00    +0.001 A 
ATOM     13  C   UNL     1       0.718   3.945   8.462  0.00  0.00    +0.004 A 
ATOM     14  C   UNL     1       0.101   3.011   9.266  0.00  0.00    +0.049 A 
ATOM     15  C   UNL     1      -0.216   1.759   8.752  0.00  0.00    +0.168 A 
ATOM     16  O   UNL     1      -0.805   0.666   9.277  0.00  0.00    -0.354 OA
ATOM     17  N   UNL     1      -0.884  -0.346   8.293  0.00  0.00    -0.075 NA
ENDBRANCH   6   9
BRANCH   1  24
ATOM     18  C   UNL     1      -1.160   1.004   0.039  0.00  0.00    +0.045 C 
ATOM     19  C   UNL     1      -0.306  -0.238   0.035  0.00  0.00    -0.029 A 
ATOM     20  C   UNL     1      -0.076  -0.914  -1.147  0.00  0.00    +0.009 A 
ATOM     21  C   UNL     1       0.706  -2.054  -1.154  0.00  0.00    +0.046 A 
ATOM     22  C   UNL     1       1.262  -2.523   0.027  0.00  0.00    +0.119 A 
ATOM     23  C   UNL     1       1.034  -1.848   1.216  0.00  0.00    +0.069 A 
ATOM     24  C   UNL     1       0.253  -0.700   1.220  0.00  0.00    +0.040 A 
BRANCH  22  25
ATOM     25  O   UNL     1       2.031  -3.644   0.019  0.00  0.00    -0.507 OA
ATOM     26  H   UNL     1       2.972  -3.475  -0.126  0.00  0.00    +0.292 HD
ENDBRANCH  22  25
ENDBRANCH   1  24
TORSDOF 3
