REMARK  Name = CHEMBL187120
REMARK  5 active torsions:
REMARK  status: ('A' for Active; 'I' for Inactive)
REMARK    1  A    between atoms: C_1  and  C_2
REMARK    2  A    between atoms: C_7  and  N_8
REMARK    3  A    between atoms: C_17  and  C_18
REMARK    4  A    between atoms: N_19  and  C_23
REMARK    5  A    between atoms: C_21  and  C_22
REMARK                            x       y       z     vdW  Elec       q    Type
REMARK                         _______ _______ _______ _____ _____    ______ ____
ROOT
ATOM      1  N   UNL     1       0.023   0.016   2.385  0.00  0.00    -0.229 NA
ATOM      2  C   UNL     1      -1.113   0.413   2.916  0.00  0.00    +0.145 C 
ATOM      3  N   UNL     1      -2.379   0.118   2.389  0.00  0.00    -0.316 N 
ATOM      4  C   UNL     1      -3.411  -0.406   3.268  0.00  0.00    +0.160 C 
ATOM      5  C   UNL     1      -3.465   0.222   4.662  0.00  0.00    +0.219 C 
ATOM      6  N   UNL     1      -2.362   1.133   4.930  0.00  0.00    -0.303 N 
ATOM      7  C   UNL     1      -1.220   1.220   4.147  0.00  0.00    +0.103 A 
ATOM      8  C   UNL     1      -0.396   2.105   4.732  0.00  0.00    +0.142 A 
ATOM      9  N   UNL     1      -1.024   2.573   5.821  0.00  0.00    -0.240 NA
ATOM     10  C   UNL     1      -2.197   2.011   5.930  0.00  0.00    +0.109 A 
ATOM     11  C   UNL     1      -3.201   2.292   7.019  0.00  0.00    +0.086 C 
ATOM     12  N   UNL     1      -3.353  -0.945   5.560  0.00  0.00    -0.234 N 
ATOM     13  N   UNL     1      -3.183  -2.089   4.781  0.00  0.00    -0.190 NA
ATOM     14  C   UNL     1      -3.199  -1.879   3.528  0.00  0.00    +0.057 C 
ATOM     15  C   UNL     1      -3.032  -2.935   2.466  0.00  0.00    +0.064 C 
ATOM     16  C   UNL     1      -3.411  -0.907   7.023  0.00  0.00    +0.154 C 
ATOM     17  H   UNL     1      -2.563   0.263   1.448  0.00  0.00    +0.148 HD
ENDROOT
BRANCH   1  24
ATOM     18  C   UNL     1      -0.279   1.167  -0.195  0.00  0.00    +0.046 C 
ATOM     19  C   UNL     1      -0.129  -0.318   0.018  0.00  0.00    -0.024 A 
ATOM     20  C   UNL     1      -0.128  -1.175  -1.063  0.00  0.00    +0.005 A 
ATOM     21  C   UNL     1       0.009  -2.538  -0.871  0.00  0.00    +0.002 A 
ATOM     22  C   UNL     1       0.148  -3.052   0.407  0.00  0.00    +0.022 A 
ATOM     23  C   UNL     1       0.150  -2.208   1.498  0.00  0.00    +0.067 A 
ATOM     24  C   UNL     1       0.016  -0.828   1.310  0.00  0.00    +0.087 A 
ATOM     25 CL   UNL     1       0.324  -2.854   3.099  0.00  0.00    -0.081 Cl
ENDBRANCH   1  24
TORSDOF 1
