REMARK  Name = CHEMBL247878
REMARK  7 active torsions:
REMARK  status: ('A' for Active; 'I' for Inactive)
REMARK    1  A    between atoms: C_1  and  C_2
REMARK    2  A    between atoms: C_2  and  N_3
REMARK    3  A    between atoms: C_9  and  C_11
REMARK    4  A    between atoms: C_14  and  C_17
REMARK    5  A    between atoms: C_18  and  C_34
REMARK    6  A    between atoms: N_26  and  C_27
REMARK    7  A    between atoms: C_27  and  C_28
REMARK                            x       y       z     vdW  Elec       q    Type
REMARK                         _______ _______ _______ _____ _____    ______ ____
ROOT
ATOM      1  C   UNL     1      -4.395  -8.303  -0.013  0.00  0.00    +0.146 A 
ATOM      2  C   UNL     1      -4.851  -9.340  -0.783  0.00  0.00    +0.041 A 
ATOM      3  C   UNL     1      -4.474 -10.563  -0.064  0.00  0.00    +0.088 A 
ATOM      4  C   UNL     1      -4.631 -11.938  -0.288  0.00  0.00    +0.134 A 
ATOM      5  N   UNL     1      -4.143 -12.784   0.616  0.00  0.00    -0.220 NA
ATOM      6  C   UNL     1      -3.527 -12.340   1.696  0.00  0.00    +0.227 A 
ATOM      7  N   UNL     1      -3.359 -11.059   1.944  0.00  0.00    -0.200 NA
ATOM      8  C   UNL     1      -3.812 -10.136   1.100  0.00  0.00    +0.233 A 
ATOM      9  O   UNL     1      -3.783  -8.792   1.085  0.00  0.00    -0.436 OA
ATOM     10  N   UNL     1      -5.277 -12.402  -1.419  0.00  0.00    -0.326 N 
ATOM     11  H   UNL     1      -5.628 -11.775  -2.069  0.00  0.00    +0.148 HD
ENDROOT
BRANCH   1  15
ATOM     12  C   UNL     1      -4.826  -4.191  -0.943  0.00  0.00    +0.037 A 
ATOM     13  C   UNL     1      -5.923  -5.051  -1.052  0.00  0.00    +0.014 A 
ATOM     14  C   UNL     1      -5.785  -6.376  -0.752  0.00  0.00    +0.012 A 
ATOM     15  C   UNL     1      -4.545  -6.874  -0.336  0.00  0.00    +0.018 A 
ATOM     16  C   UNL     1      -3.447  -6.013  -0.228  0.00  0.00    +0.012 A 
ATOM     17  C   UNL     1      -3.585  -4.689  -0.533  0.00  0.00    +0.014 A 
BRANCH  12  24
ATOM     18  N   UNL     1      -7.668  -0.564   0.886  0.00  0.00    +0.382 N 
ATOM     19  C   UNL     1      -6.483   0.058   0.282  0.00  0.00    -0.060 C 
ATOM     20  C   UNL     1      -6.171  -0.628  -1.052  0.00  0.00    +0.089 C 
ATOM     21  N   UNL     1      -6.044  -2.074  -0.815  0.00  0.00    -0.301 N 
ATOM     22  C   UNL     1      -7.116  -2.751  -0.069  0.00  0.00    +0.089 C 
ATOM     23  C   UNL     1      -7.383  -1.965   1.219  0.00  0.00    -0.060 C 
ATOM     24  C   UNL     1      -4.976  -2.760  -1.268  0.00  0.00    +0.246 C 
ATOM     25  O   UNL     1      -4.136  -2.198  -1.944  0.00  0.00    -0.270 OA
ATOM     26  H   UNL     1      -8.436  -0.524   0.232  0.00  0.00    -0.082 HD
BRANCH  18  28
ATOM     27  C   UNL     1      -8.449   1.591   1.748  0.00  0.00    -0.017 C 
ATOM     28  C   UNL     1      -8.031   0.164   2.109  0.00  0.00    -0.082 C 
ENDBRANCH  18  28
ENDBRANCH  12  24
ENDBRANCH   1  15
BRANCH   2  29
ATOM     29  C   UNL     1      -5.572  -9.247  -2.072  0.00  0.00    -0.014 A 
ATOM     30  C   UNL     1      -6.904  -9.653  -2.160  0.00  0.00    +0.008 A 
ATOM     31  C   UNL     1      -7.571  -9.563  -3.364  0.00  0.00    +0.001 A 
ATOM     32  C   UNL     1      -6.922  -9.072  -4.483  0.00  0.00    +0.000 A 
ATOM     33  C   UNL     1      -5.601  -8.667  -4.402  0.00  0.00    +0.001 A 
ATOM     34  C   UNL     1      -4.924  -8.747  -3.202  0.00  0.00    +0.008 A 
ENDBRANCH   2  29
BRANCH  10  35
ATOM     35  C   UNL     1      -5.430 -13.843  -1.634  0.00  0.00    +0.134 C 
BRANCH  35  36
ATOM     36  C   UNL     1      -6.174 -14.086  -2.949  0.00  0.00    +0.135 C 
ATOM     37  C   UNL     1      -6.447 -15.595  -3.126  0.00  0.00    +0.035 C 
ATOM     38  C   UNL     1      -6.202 -15.799  -4.646  0.00  0.00    +0.031 C 
ATOM     39  C   UNL     1      -5.062 -14.780  -4.899  0.00  0.00    +0.160 C 
ATOM     40  O   UNL     1      -5.365 -13.659  -4.051  0.00  0.00    -0.375 OA
ENDBRANCH  35  36
ENDBRANCH  10  35
TORSDOF 6
