REMARK  Name = CHEMBL1080475
REMARK  9 active torsions:
REMARK  status: ('A' for Active; 'I' for Inactive)
REMARK    1  A    between atoms: C_1  and  C_2
REMARK    2  A    between atoms: C_5  and  N_25
REMARK    3  A    between atoms: C_7  and  N_8
REMARK    4  A    between atoms: C_20  and  N_24
REMARK    5  A    between atoms: C_26  and  C_28
REMARK    6  A    between atoms: C_33  and  C_34
REMARK    7  A    between atoms: C_34  and  C_35
REMARK    8  A    between atoms: C_34  and  C_36
REMARK    9  A    between atoms: C_34  and  C_37
REMARK                            x       y       z     vdW  Elec       q    Type
REMARK                         _______ _______ _______ _____ _____    ______ ____
ROOT
ATOM      1  C   UNL     1       2.448   1.368  -5.620  0.00  0.00    +0.045 C 
ATOM      2  C   UNL     1       1.798   0.464  -4.604  0.00  0.00    -0.029 A 
ATOM      3  C   UNL     1       0.604  -0.165  -4.904  0.00  0.00    +0.007 A 
ATOM      4  C   UNL     1       0.005  -0.994  -3.976  0.00  0.00    +0.024 A 
ATOM      5  C   UNL     1       0.602  -1.199  -2.737  0.00  0.00    +0.035 A 
ATOM      6  C   UNL     1       1.800  -0.570  -2.434  0.00  0.00    +0.047 A 
ATOM      7  C   UNL     1       2.403   0.258  -3.370  0.00  0.00    +0.038 A 
ENDROOT
BRANCH   7   8
ATOM      8  N   UNL     1       3.614   0.889  -3.071  0.00  0.00    -0.286 N 
ATOM      9  C   UNL     1       4.227   0.664  -1.855  0.00  0.00    +0.184 A 
ATOM     10  N   UNL     1       4.321  -0.501  -1.264  0.00  0.00    -0.327 N 
ATOM     11  C   UNL     1       4.984  -0.364  -0.086  0.00  0.00    +0.066 A 
ATOM     12  C   UNL     1       5.352  -1.264   0.917  0.00  0.00    +0.028 A 
ATOM     13  C   UNL     1       6.037  -0.814   2.024  0.00  0.00    +0.002 A 
ATOM     14  C   UNL     1       6.364   0.528   2.150  0.00  0.00    +0.002 A 
ATOM     15  C   UNL     1       6.008   1.430   1.168  0.00  0.00    +0.028 A 
ATOM     16  C   UNL     1       5.319   0.993   0.048  0.00  0.00    +0.074 A 
ATOM     17  N   UNL     1       4.833   1.623  -1.089  0.00  0.00    -0.266 N 
ATOM     18  C   UNL     1       4.941   2.979  -1.393  0.00  0.00    +0.145 A 
ATOM     19  C   UNL     1       4.298   3.505  -2.508  0.00  0.00    +0.090 A 
ATOM     20  C   UNL     1       4.436   4.866  -2.769  0.00  0.00    +0.121 A 
ATOM     21  N   UNL     1       5.172   5.609  -1.946  0.00  0.00    -0.221 NA
ATOM     22  C   UNL     1       5.766   5.073  -0.899  0.00  0.00    +0.225 A 
ATOM     23  N   UNL     1       5.655   3.791  -0.617  0.00  0.00    -0.218 NA
ATOM     24  H   UNL     1       4.023   1.486  -3.717  0.00  0.00    +0.155 HD
ATOM     25  H   UNL     1       3.970  -1.335  -1.614  0.00  0.00    +0.169 HD
BRANCH  20  26
ATOM     26  N   UNL     1       3.815   5.438  -3.868  0.00  0.00    -0.343 N 
ATOM     27  H   UNL     1       3.280   4.889  -4.463  0.00  0.00    +0.144 HD
ATOM     28  H   UNL     1       3.916   6.387  -4.043  0.00  0.00    +0.144 HD
ENDBRANCH  20  26
ENDBRANCH   7   8
BRANCH   5  29
ATOM     29  N   UNL     1      -0.006  -2.038  -1.798  0.00  0.00    -0.281 N 
ATOM     30  C   UNL     1      -0.746  -3.087  -2.210  0.00  0.00    +0.249 C 
ATOM     31  O   UNL     1      -0.816  -3.353  -3.394  0.00  0.00    -0.270 OA
ATOM     32  H   UNL     1       0.105  -1.866  -0.850  0.00  0.00    +0.155 HD
BRANCH  30  33
ATOM     33  C   UNL     1      -1.474  -3.914  -1.220  0.00  0.00    +0.044 A 
ATOM     34  C   UNL     1      -1.530  -3.540   0.126  0.00  0.00    +0.033 A 
ATOM     35  C   UNL     1      -2.221  -4.341   1.015  0.00  0.00    +0.111 A 
ATOM     36  N   UNL     1      -2.820  -5.442   0.609  0.00  0.00    -0.263 NA
ATOM     37  C   UNL     1      -2.792  -5.831  -0.650  0.00  0.00    +0.115 A 
ATOM     38  C   UNL     1      -2.129  -5.087  -1.607  0.00  0.00    -0.012 A 
BRANCH  38  39
ATOM     39  C   UNL     1      -2.107  -5.536  -3.046  0.00  0.00    -0.011 C 
ATOM     40  C   UNL     1      -2.798  -6.896  -3.166  0.00  0.00    +0.015 C 
ATOM     41  C   UNL     1      -2.844  -4.511  -3.911  0.00  0.00    +0.015 C 
ATOM     42  C   UNL     1      -0.658  -5.657  -3.521  0.00  0.00    +0.015 C 
ENDBRANCH  38  39
ENDBRANCH  30  33
ENDBRANCH   5  29
TORSDOF 5
