REMARK  Name = CHEMBL189674
REMARK  5 active torsions:
REMARK  status: ('A' for Active; 'I' for Inactive)
REMARK    1  A    between atoms: C_1  and  C_2
REMARK    2  A    between atoms: C_7  and  N_8
REMARK    3  A    between atoms: C_17  and  N_22
REMARK    4  A    between atoms: C_24  and  C_31
REMARK    5  A    between atoms: C_27  and  C_30
REMARK                            x       y       z     vdW  Elec       q    Type
REMARK                         _______ _______ _______ _____ _____    ______ ____
ROOT
ATOM      1  N   UNL     1       0.033  -0.017   2.418  0.00  0.00    -0.296 N 
ATOM      2  C   UNL     1      -0.357  -0.660   3.579  0.00  0.00    +0.149 A 
ATOM      3  C   UNL     1      -0.455   0.088   4.831  0.00  0.00    +0.106 A 
ATOM      4  C   UNL     1      -0.238   1.387   5.183  0.00  0.00    +0.142 A 
ATOM      5  N   UNL     1      -0.489   1.501   6.489  0.00  0.00    -0.243 NA
ATOM      6  C   UNL     1      -0.852   0.339   6.974  0.00  0.00    +0.204 A 
ATOM      7  N   UNL     1      -0.846  -0.571   5.984  0.00  0.00    -0.294 N 
ATOM      8  C   UNL     1      -1.134  -1.924   5.911  0.00  0.00    +0.078 A 
ATOM      9  C   UNL     1      -1.532  -2.638   7.032  0.00  0.00    +0.072 A 
ATOM     10  C   UNL     1      -1.808  -3.992   6.902  0.00  0.00    +0.123 A 
ATOM     11  N   UNL     1      -1.697  -4.603   5.731  0.00  0.00    -0.238 NA
ATOM     12  C   UNL     1      -1.323  -3.966   4.640  0.00  0.00    +0.142 A 
ATOM     13  C   UNL     1      -1.026  -2.602   4.682  0.00  0.00    +0.108 A 
ATOM     14  N   UNL     1      -0.644  -1.943   3.555  0.00  0.00    -0.227 NA
ATOM     15  H   UNL     1       0.167   0.944   2.417  0.00  0.00    +0.154 HD
ENDROOT
BRANCH  10  16
ATOM     16  N   UNL     1      -2.208  -4.720   8.019  0.00  0.00    -0.318 N 
ATOM     17  C   UNL     1      -2.283  -6.189   7.978  0.00  0.00    +0.090 C 
ATOM     18  C   UNL     1      -3.654  -6.621   8.507  0.00  0.00    -0.057 C 
ATOM     19  N   UNL     1      -3.870  -6.041   9.838  0.00  0.00    +0.384 N 
ATOM     20  C   UNL     1      -3.927  -4.577   9.742  0.00  0.00    -0.057 C 
ATOM     21  C   UNL     1      -2.563  -4.043   9.276  0.00  0.00    +0.090 C 
ATOM     22  C   UNL     1      -4.261  -3.988  11.114  0.00  0.00    -0.012 C 
ATOM     23  C   UNL     1      -3.707  -8.147   8.601  0.00  0.00    -0.012 C 
ATOM     24  H   UNL     1      -4.739  -6.386  10.218  0.00  0.00    -0.085 HD
ATOM     25  H   UNL     1      -3.111  -6.307  10.447  0.00  0.00    -0.085 HD
ENDBRANCH  10  16
BRANCH   1  32
ATOM     26  C   UNL     1       2.681  -0.230   1.400  0.00  0.00    +0.046 C 
ATOM     27  C   UNL     1       1.508  -0.881   0.713  0.00  0.00    -0.028 A 
ATOM     28  C   UNL     1       1.702  -1.612  -0.443  0.00  0.00    +0.005 A 
ATOM     29  C   UNL     1       0.627  -2.210  -1.074  0.00  0.00    +0.002 A 
ATOM     30  C   UNL     1      -0.647  -2.078  -0.551  0.00  0.00    +0.022 A 
ATOM     31  C   UNL     1      -0.848  -1.349   0.605  0.00  0.00    +0.062 A 
ATOM     32  C   UNL     1       0.232  -0.751   1.245  0.00  0.00    +0.054 A 
ATOM     33 CL   UNL     1      -2.447  -1.184   1.261  0.00  0.00    -0.082 Cl
ENDBRANCH   1  32
TORSDOF 2
