REMARK  Name = CHEMBL568543
REMARK  7 active torsions:
REMARK  status: ('A' for Active; 'I' for Inactive)
REMARK    1  A    between atoms: C_1  and  C_2
REMARK    2  A    between atoms: C_2  and  C_3
REMARK    3  A    between atoms: C_2  and  N_17
REMARK    4  A    between atoms: N_5  and  C_10
REMARK    5  A    between atoms: N_8  and  C_9
REMARK    6  A    between atoms: C_10  and  C_11
REMARK    7  A    between atoms: C_22  and  N_24
REMARK                            x       y       z     vdW  Elec       q    Type
REMARK                         _______ _______ _______ _____ _____    ______ ____
ROOT
ATOM      1  N   UNL     1       0.314  -0.455  -0.839  0.00  0.00    -0.309 N 
ATOM      2  C   UNL     1      -0.034   0.180  -2.018  0.00  0.00    +0.217 A 
ATOM      3  N   UNL     1      -0.852   1.222  -1.973  0.00  0.00    -0.223 NA
ATOM      4  C   UNL     1      -1.208   1.856  -3.080  0.00  0.00    +0.118 A 
ATOM      5  C   UNL     1      -0.716   1.420  -4.296  0.00  0.00    +0.066 A 
ATOM      6  C   UNL     1       0.143   0.321  -4.312  0.00  0.00    +0.144 A 
ATOM      7  N   UNL     1       0.462  -0.264  -3.163  0.00  0.00    -0.197 NA
ATOM      8  H   UNL     1       0.915  -1.216  -0.858  0.00  0.00    +0.149 HD
ENDROOT
BRANCH   6   9
ATOM      9  N   UNL     1       0.663  -0.153  -5.514  0.00  0.00    -0.283 N 
ATOM     10  C   UNL     1       0.426   0.360  -6.757  0.00  0.00    +0.206 A 
ATOM     11  N   UNL     1       1.071  -0.327  -7.653  0.00  0.00    -0.235 NA
ATOM     12  C   UNL     1       1.767  -1.327  -7.051  0.00  0.00    +0.089 A 
ATOM     13  C   UNL     1       1.520  -1.227  -5.672  0.00  0.00    +0.075 A 
ATOM     14  C   UNL     1       2.111  -2.126  -4.796  0.00  0.00    +0.028 A 
ATOM     15  C   UNL     1       2.942  -3.113  -5.282  0.00  0.00    +0.002 A 
ATOM     16  C   UNL     1       3.192  -3.214  -6.643  0.00  0.00    +0.002 A 
ATOM     17  C   UNL     1       2.608  -2.336  -7.528  0.00  0.00    +0.030 A 
ENDBRANCH   6   9
BRANCH   1  19
ATOM     18  C   UNL     1      -1.599  -0.606   0.677  0.00  0.00    +0.029 C 
ATOM     19  C   UNL     1      -0.224   0.021   0.437  0.00  0.00    +0.088 C 
BRANCH  19  20
ATOM     20  C   UNL     1       0.723  -0.377   1.571  0.00  0.00    +0.090 C 
ATOM     21  C   UNL     1       0.846  -1.901   1.622  0.00  0.00    +0.105 C 
ATOM     22  N   UNL     1       1.786  -2.279   2.686  0.00  0.00    -0.295 NA
ATOM     23  C   UNL     1       3.111  -1.691   2.447  0.00  0.00    +0.100 C 
ATOM     24  C   UNL     1       2.989  -0.166   2.396  0.00  0.00    +0.100 C 
ATOM     25  N   UNL     1       2.048   0.211   1.331  0.00  0.00    -0.298 NA
ATOM     26  C   UNL     1       1.961   1.672   1.200  0.00  0.00    +0.105 C 
BRANCH  22  27
ATOM     27  C   UNL     1       1.874  -3.739   2.818  0.00  0.00    +0.119 C 
BRANCH  27  28
ATOM     28  C   UNL     1       2.646  -4.086   4.064  0.00  0.00    -0.033 A 
ATOM     29  C   UNL     1       4.019  -4.235   4.007  0.00  0.00    +0.005 A 
ATOM     30  C   UNL     1       4.728  -4.553   5.150  0.00  0.00    +0.000 A 
ATOM     31  C   UNL     1       4.064  -4.722   6.351  0.00  0.00    +0.000 A 
ATOM     32  C   UNL     1       2.691  -4.572   6.408  0.00  0.00    +0.000 A 
ATOM     33  C   UNL     1       1.983  -4.250   5.266  0.00  0.00    +0.005 A 
ENDBRANCH  27  28
ENDBRANCH  22  27
ENDBRANCH  19  20
ENDBRANCH   1  19
TORSDOF 5
