REMARK  Name = CHEMBL539
REMARK  1 active torsions:
REMARK  status: ('A' for Active; 'I' for Inactive)
REMARK    1  A    between atoms: C_1  and  C_2
REMARK                            x       y       z     vdW  Elec       q    Type
REMARK                         _______ _______ _______ _____ _____    ______ ____
ROOT
ATOM      1  C   UNL     1      -0.018   1.503   0.010  0.00  0.00    +0.140 C 
ATOM      2  C   UNL     1       0.002  -0.004   0.002  0.00  0.00    +0.353 C 
ATOM      3  O   UNL     1       0.020  -0.619   1.054  0.00  0.00    -0.247 OA
ATOM      4  O   UNL     1       0.000  -0.608  -1.057  0.00  0.00    -0.247 OA
ENDROOT
TORSDOF 0
