REMARK  Name = CHEMBL584724
REMARK  4 active torsions:
REMARK  status: ('A' for Active; 'I' for Inactive)
REMARK    1  A    between atoms: C_6  and  C_11
REMARK    2  A    between atoms: C_17  and  C_19
REMARK    3  A    between atoms: C_19  and  N_20
REMARK    4  A    between atoms: C_25  and  N_27
REMARK                            x       y       z     vdW  Elec       q    Type
REMARK                         _______ _______ _______ _____ _____    ______ ____
ROOT
ATOM      1  C   UNL     1       4.977  -2.713  -0.059  0.00  0.00    +0.247 C 
ATOM      2  O   UNL     1       3.918  -2.128   0.060  0.00  0.00    -0.270 OA
ATOM      3  N   UNL     1       4.997  -4.056  -0.168  0.00  0.00    -0.293 N 
ATOM      4  C   UNL     1       3.747  -4.826  -0.278  0.00  0.00    +0.136 C 
ATOM      5  C   UNL     1       3.782  -5.955   0.759  0.00  0.00    +0.179 C 
ATOM      6  O   UNL     1       4.997  -6.692   0.611  0.00  0.00    -0.372 OA
ATOM      7  C   UNL     1       6.180  -5.927   0.851  0.00  0.00    +0.153 C 
ATOM      8  C   UNL     1       6.269  -4.796  -0.186  0.00  0.00    +0.141 C 
ENDROOT
BRANCH   1  14
ATOM      9  C   UNL     1      10.810  -0.136  -0.976  0.00  0.00    +0.001 A 
ATOM     10  C   UNL     1      10.657  -1.229  -1.827  0.00  0.00    +0.001 A 
ATOM     11  C   UNL     1       9.506  -1.956  -1.833  0.00  0.00    +0.008 A 
ATOM     12  C   UNL     1       8.454  -1.601  -0.969  0.00  0.00    -0.017 A 
ATOM     13  C   UNL     1       7.256  -2.330  -0.950  0.00  0.00    +0.021 A 
ATOM     14  C   UNL     1       6.243  -1.951  -0.085  0.00  0.00    +0.037 A 
ATOM     15  C   UNL     1       6.410  -0.846   0.769  0.00  0.00    +0.013 A 
ATOM     16  C   UNL     1       7.562  -0.129   0.764  0.00  0.00    +0.009 A 
ATOM     17  C   UNL     1       8.610  -0.489  -0.103  0.00  0.00    -0.018 A 
ATOM     18  C   UNL     1       9.813   0.236  -0.126  0.00  0.00    +0.008 A 
ENDBRANCH   1  14
BRANCH   7  19
ATOM     19  C   UNL     1       7.409  -6.830   0.726  0.00  0.00    +0.137 C 
BRANCH  19  20
ATOM     20  N   UNL     1       7.320  -7.913   1.708  0.00  0.00    -0.311 N 
ATOM     21  C   UNL     1       8.325  -8.863   1.784  0.00  0.00    +0.217 A 
ATOM     22  N   UNL     1       9.361  -8.773   0.963  0.00  0.00    -0.223 NA
ATOM     23  C   UNL     1      10.342  -9.662   1.006  0.00  0.00    +0.118 A 
ATOM     24  C   UNL     1      10.277 -10.696   1.922  0.00  0.00    +0.066 A 
ATOM     25  C   UNL     1       9.173 -10.764   2.772  0.00  0.00    +0.144 A 
ATOM     26  N   UNL     1       8.229  -9.835   2.678  0.00  0.00    -0.197 NA
ATOM     27  H   UNL     1       6.558  -7.966   2.306  0.00  0.00    +0.149 HD
BRANCH  25  28
ATOM     28  N   UNL     1       9.066 -11.789   3.710  0.00  0.00    -0.283 N 
ATOM     29  C   UNL     1       9.964 -12.794   3.917  0.00  0.00    +0.206 A 
ATOM     30  N   UNL     1       9.548 -13.575   4.870  0.00  0.00    -0.235 NA
ATOM     31  C   UNL     1       8.355 -13.128   5.341  0.00  0.00    +0.089 A 
ATOM     32  C   UNL     1       8.030 -11.973   4.609  0.00  0.00    +0.075 A 
ATOM     33  C   UNL     1       6.854 -11.290   4.879  0.00  0.00    +0.028 A 
ATOM     34  C   UNL     1       6.008 -11.744   5.869  0.00  0.00    +0.002 A 
ATOM     35  C   UNL     1       6.326 -12.881   6.598  0.00  0.00    +0.002 A 
ATOM     36  C   UNL     1       7.485 -13.577   6.338  0.00  0.00    +0.030 A 
ENDBRANCH  25  28
ENDBRANCH  19  20
ENDBRANCH   7  19
TORSDOF 4
