REMARK  Name = CHEMBL1085061
REMARK  7 active torsions:
REMARK  status: ('A' for Active; 'I' for Inactive)
REMARK    1  A    between atoms: C_1  and  N_2
REMARK    2  A    between atoms: N_5  and  C_8
REMARK    3  A    between atoms: C_12  and  C_14
REMARK    4  A    between atoms: C_21  and  C_24
REMARK    5  A    between atoms: C_22  and  N_23
REMARK    6  A    between atoms: C_27  and  N_30
REMARK    7  A    between atoms: N_33  and  C_34
REMARK                            x       y       z     vdW  Elec       q    Type
REMARK                         _______ _______ _______ _____ _____    ______ ____
ROOT
ATOM      1  C   UNL     1       0.297  -5.983   4.300  0.00  0.00    +0.046 A 
ATOM      2  C   UNL     1       1.609  -6.430   4.097  0.00  0.00    +0.145 A 
ATOM      3  N   UNL     1       2.064  -6.928   5.220  0.00  0.00    -0.171 NA
ATOM      4  N   UNL     1       1.075  -6.828   6.204  0.00  0.00    -0.200 N 
ATOM      5  C   UNL     1      -0.024  -6.236   5.639  0.00  0.00    +0.165 A 
ATOM      6  N   UNL     1      -1.129  -6.008   6.358  0.00  0.00    -0.235 NA
ATOM      7  C   UNL     1      -1.201  -6.340   7.627  0.00  0.00    +0.125 A 
ATOM      8  C   UNL     1      -0.104  -6.946   8.262  0.00  0.00    +0.040 A 
ATOM      9  C   UNL     1       1.048  -7.195   7.522  0.00  0.00    +0.129 A 
ENDROOT
BRANCH   1  14
ATOM     10  C   UNL     1      -0.942  -3.706   1.573  0.00  0.00    +0.030 A 
ATOM     11  C   UNL     1      -2.238  -4.178   1.398  0.00  0.00    +0.023 A 
ATOM     12  C   UNL     1      -2.704  -5.230   2.164  0.00  0.00    +0.002 A 
ATOM     13  C   UNL     1      -1.885  -5.819   3.107  0.00  0.00    +0.009 A 
ATOM     14  C   UNL     1      -0.583  -5.353   3.289  0.00  0.00    -0.011 A 
ATOM     15  C   UNL     1      -0.111  -4.295   2.513  0.00  0.00    +0.031 A 
BRANCH  10  20
ATOM     16  C   UNL     1      -0.028   1.452  -0.009  0.00  0.00    +0.105 C 
ATOM     17  N   UNL     1      -0.008  -0.017  -0.012  0.00  0.00    -0.302 NA
ATOM     18  C   UNL     1      -1.370  -0.561  -0.105  0.00  0.00    +0.103 C 
ATOM     19  C   UNL     1      -1.297  -2.081  -0.286  0.00  0.00    +0.120 C 
ATOM     20  N   UNL     1      -0.475  -2.643   0.796  0.00  0.00    -0.327 N 
ATOM     21  C   UNL     1       0.851  -2.055   1.040  0.00  0.00    +0.120 C 
ATOM     22  C   UNL     1       0.694  -0.536   1.169  0.00  0.00    +0.103 C 
ENDBRANCH  10  20
ENDBRANCH   1  14
BRANCH   8  23
ATOM     23  C   UNL     1      -0.176  -7.323   9.694  0.00  0.00    -0.013 A 
ATOM     24  C   UNL     1      -0.111  -8.664  10.068  0.00  0.00    +0.010 A 
ATOM     25  C   UNL     1      -0.177  -9.011  11.401  0.00  0.00    +0.024 A 
ATOM     26  C   UNL     1      -0.309  -8.026  12.371  0.00  0.00    +0.035 A 
ATOM     27  C   UNL     1      -0.373  -6.688  12.001  0.00  0.00    +0.024 A 
ATOM     28  C   UNL     1      -0.302  -6.335  10.670  0.00  0.00    +0.010 A 
BRANCH  26  29
ATOM     29  N   UNL     1      -0.376  -8.381  13.723  0.00  0.00    -0.269 N 
ATOM     30  C   UNL     1       0.331  -9.434  14.180  0.00  0.00    +0.308 C 
ATOM     31  O   UNL     1       1.103 -10.013  13.441  0.00  0.00    -0.252 OA
ATOM     32  N   UNL     1       0.181  -9.844  15.455  0.00  0.00    -0.268 N 
ATOM     33  H   UNL     1      -0.932  -7.869  14.332  0.00  0.00    +0.156 HD
ATOM     34  H   UNL     1      -0.385  -9.343  16.062  0.00  0.00    +0.156 HD
BRANCH  32  35
ATOM     35  C   UNL     1       0.843 -10.994  15.902  0.00  0.00    +0.053 A 
ATOM     36  C   UNL     1       2.105 -11.305  15.414  0.00  0.00    +0.025 A 
ATOM     37  C   UNL     1       2.755 -12.440  15.857  0.00  0.00    +0.002 A 
ATOM     38  C   UNL     1       2.152 -13.266  16.787  0.00  0.00    +0.002 A 
ATOM     39  C   UNL     1       0.895 -12.960  17.276  0.00  0.00    +0.022 A 
ATOM     40  C   UNL     1       0.241 -11.823  16.841  0.00  0.00    +0.062 A 
ATOM     41 CL   UNL     1      -1.334 -11.435  17.460  0.00  0.00    -0.082 Cl
ENDBRANCH  32  35
ENDBRANCH  26  29
ENDBRANCH   8  23
BRANCH   9  42
ATOM     42  N   UNL     1       2.143  -7.786   8.108  0.00  0.00    -0.343 N 
ATOM     43  H   UNL     1       2.945  -7.946   7.586  0.00  0.00    +0.144 HD
ATOM     44  H   UNL     1       2.114  -8.042   9.043  0.00  0.00    +0.144 HD
ENDBRANCH   9  42
TORSDOF 6
