REMARK  Name = CHEMBL1085240
REMARK  8 active torsions:
REMARK  status: ('A' for Active; 'I' for Inactive)
REMARK    1  A    between atoms: C_1  and  N_2
REMARK    2  A    between atoms: N_5  and  C_8
REMARK    3  A    between atoms: C_12  and  C_14
REMARK    4  A    between atoms: C_21  and  C_24
REMARK    5  A    between atoms: C_22  and  N_23
REMARK    6  A    between atoms: C_27  and  N_30
REMARK    7  A    between atoms: C_31  and  C_33
REMARK    8  A    between atoms: C_36  and  C_39
REMARK                            x       y       z     vdW  Elec       q    Type
REMARK                         _______ _______ _______ _____ _____    ______ ____
ROOT
ATOM      1  C   UNL     1       0.263  -5.848   4.536  0.00  0.00    +0.046 A 
ATOM      2  C   UNL     1       1.559  -6.324   4.306  0.00  0.00    +0.145 A 
ATOM      3  N   UNL     1       2.046  -6.785   5.431  0.00  0.00    -0.171 NA
ATOM      4  N   UNL     1       1.092  -6.632   6.443  0.00  0.00    -0.200 N 
ATOM      5  C   UNL     1      -0.017  -6.044   5.894  0.00  0.00    +0.165 A 
ATOM      6  N   UNL     1      -1.093  -5.771   6.640  0.00  0.00    -0.235 NA
ATOM      7  C   UNL     1      -1.126  -6.051   7.923  0.00  0.00    +0.125 A 
ATOM      8  C   UNL     1      -0.017  -6.652   8.543  0.00  0.00    +0.040 A 
ATOM      9  C   UNL     1       1.105  -6.947   7.775  0.00  0.00    +0.129 A 
ENDROOT
BRANCH   1  14
ATOM     10  C   UNL     1      -1.036  -3.659   1.765  0.00  0.00    +0.030 A 
ATOM     11  C   UNL     1      -2.345  -4.116   1.653  0.00  0.00    +0.023 A 
ATOM     12  C   UNL     1      -2.799  -5.130   2.475  0.00  0.00    +0.002 A 
ATOM     13  C   UNL     1      -1.957  -5.695   3.412  0.00  0.00    +0.009 A 
ATOM     14  C   UNL     1      -0.642  -5.243   3.531  0.00  0.00    -0.011 A 
ATOM     15  C   UNL     1      -0.182  -4.224   2.699  0.00  0.00    +0.031 A 
BRANCH  10  20
ATOM     16  C   UNL     1      -0.107   1.410  -0.032  0.00  0.00    -0.096 C 
ATOM     17  N   UNL     1      -0.080  -0.059  -0.031  0.00  0.00    +0.380 N 
ATOM     18  C   UNL     1      -1.456  -0.572  -0.028  0.00  0.00    -0.060 C 
ATOM     19  C   UNL     1      -1.431  -2.099  -0.143  0.00  0.00    +0.086 C 
ATOM     20  N   UNL     1      -0.581  -2.634   0.931  0.00  0.00    -0.333 N 
ATOM     21  C   UNL     1       0.762  -2.059   1.104  0.00  0.00    +0.086 C 
ATOM     22  C   UNL     1       0.633  -0.533   1.161  0.00  0.00    -0.060 C 
ATOM     23  H   UNL     1       0.396  -0.385  -0.859  0.00  0.00    -0.082 HD
ENDBRANCH  10  20
ENDBRANCH   1  14
BRANCH   8  24
ATOM     24  C   UNL     1      -0.045  -6.971   9.991  0.00  0.00    -0.013 A 
ATOM     25  C   UNL     1       0.012  -8.299  10.414  0.00  0.00    +0.010 A 
ATOM     26  C   UNL     1      -0.014  -8.594  11.761  0.00  0.00    +0.024 A 
ATOM     27  C   UNL     1      -0.097  -7.569  12.696  0.00  0.00    +0.034 A 
ATOM     28  C   UNL     1      -0.154  -6.246  12.277  0.00  0.00    +0.024 A 
ATOM     29  C   UNL     1      -0.122  -5.945  10.931  0.00  0.00    +0.010 A 
BRANCH  27  30
ATOM     30  N   UNL     1      -0.124  -7.871  14.061  0.00  0.00    -0.282 N 
ATOM     31  C   UNL     1       0.584  -8.916  14.534  0.00  0.00    +0.248 C 
ATOM     32  O   UNL     1       1.321  -9.536  13.793  0.00  0.00    -0.270 OA
ATOM     33  H   UNL     1      -0.651  -7.328  14.668  0.00  0.00    +0.155 HD
BRANCH  31  34
ATOM     34  C   UNL     1       0.463  -9.309  15.954  0.00  0.00    +0.037 A 
ATOM     35  C   UNL     1      -0.388  -8.603  16.806  0.00  0.00    +0.013 A 
ATOM     36  C   UNL     1      -0.497  -8.975  18.131  0.00  0.00    +0.013 A 
ATOM     37  C   UNL     1       0.235 -10.045  18.614  0.00  0.00    +0.055 A 
ATOM     38  C   UNL     1       1.080 -10.749  17.775  0.00  0.00    +0.013 A 
ATOM     39  C   UNL     1       1.194 -10.391  16.447  0.00  0.00    +0.013 A 
BRANCH  37  40
ATOM     40  C   UNL     1       0.112 -10.445  20.062  0.00  0.00    +0.417 C 
ATOM     41  F   UNL     1      -0.915 -11.385  20.200  0.00  0.00    -0.166 F 
ATOM     42  F   UNL     1       1.319 -11.005  20.495  0.00  0.00    -0.166 F 
ATOM     43  F   UNL     1      -0.182  -9.316  20.834  0.00  0.00    -0.166 F 
ENDBRANCH  37  40
ENDBRANCH  31  34
ENDBRANCH  27  30
ENDBRANCH   8  24
BRANCH   9  44
ATOM     44  N   UNL     1       2.211  -7.533   8.346  0.00  0.00    -0.343 N 
ATOM     45  H   UNL     1       2.992  -7.726   7.804  0.00  0.00    +0.144 HD
ATOM     46  H   UNL     1       2.210  -7.753   9.291  0.00  0.00    +0.144 HD
ENDBRANCH   9  44
TORSDOF 7
