REMARK  Name = CHEMBL426438
REMARK  4 active torsions:
REMARK  status: ('A' for Active; 'I' for Inactive)
REMARK    1  A    between atoms: C_1  and  C_2
REMARK    2  A    between atoms: C_7  and  N_8
REMARK    3  A    between atoms: C_17  and  C_18
REMARK    4  A    between atoms: N_19  and  C_22
REMARK                            x       y       z     vdW  Elec       q    Type
REMARK                         _______ _______ _______ _____ _____    ______ ____
ROOT
ATOM      1  N   UNL     1       0.241   0.228   2.476  0.00  0.00    -0.229 NA
ATOM      2  C   UNL     1      -0.920   0.482   3.040  0.00  0.00    +0.146 C 
ATOM      3  N   UNL     1      -2.151   0.053   2.484  0.00  0.00    -0.303 N 
ATOM      4  C   UNL     1      -3.170  -0.181   3.479  0.00  0.00    +0.233 C 
ATOM      5  C   UNL     1      -3.494   1.177   4.181  0.00  0.00    +0.220 C 
ATOM      6  N   UNL     1      -2.286   1.556   4.868  0.00  0.00    -0.304 N 
ATOM      7  C   UNL     1      -1.043   1.232   4.306  0.00  0.00    +0.101 A 
ATOM      8  C   UNL     1      -0.105   1.734   5.134  0.00  0.00    +0.113 A 
ATOM      9  N   UNL     1      -0.737   2.307   6.166  0.00  0.00    -0.349 N 
ATOM     10  C   UNL     1      -2.036   2.202   6.005  0.00  0.00    +0.086 A 
ATOM     11  C   UNL     1      -3.079   2.715   6.965  0.00  0.00    +0.084 C 
ATOM     12  N   UNL     1      -4.668   0.727   4.924  0.00  0.00    -0.301 N 
ATOM     13  C   UNL     1      -5.323  -0.093   4.010  0.00  0.00    +0.182 C 
ATOM     14  N   UNL     1      -4.501  -0.631   3.141  0.00  0.00    -0.250 NA
ATOM     15  C   UNL     1      -5.060   1.059   6.296  0.00  0.00    +0.132 C 
ATOM     16  H   UNL     1      -2.293  -0.071   1.533  0.00  0.00    +0.150 HD
ATOM     17  H   UNL     1      -0.301   2.743   6.915  0.00  0.00    +0.166 HD
ENDROOT
BRANCH   1  24
ATOM     18  C   UNL     1       0.135   1.705   0.051  0.00  0.00    +0.046 C 
ATOM     19  C   UNL     1       0.243   0.202   0.081  0.00  0.00    -0.024 A 
ATOM     20  C   UNL     1       0.301  -0.511  -1.099  0.00  0.00    +0.005 A 
ATOM     21  C   UNL     1       0.401  -1.890  -1.075  0.00  0.00    +0.002 A 
ATOM     22  C   UNL     1       0.444  -2.566   0.132  0.00  0.00    +0.022 A 
ATOM     23  C   UNL     1       0.388  -1.867   1.320  0.00  0.00    +0.067 A 
ATOM     24  C   UNL     1       0.292  -0.472   1.303  0.00  0.00    +0.087 A 
ATOM     25 CL   UNL     1       0.441  -2.717   2.833  0.00  0.00    -0.081 Cl
ENDBRANCH   1  24
TORSDOF 1
