REMARK  Name = CHEMBL541726
REMARK  5 active torsions:
REMARK  status: ('A' for Active; 'I' for Inactive)
REMARK    1  A    between atoms: C_1  and  N_2
REMARK    2  A    between atoms: N_5  and  C_8
REMARK    3  A    between atoms: C_11  and  N_14
REMARK    4  A    between atoms: C_18  and  N_21
REMARK    5  A    between atoms: C_22  and  C_24
REMARK                            x       y       z     vdW  Elec       q    Type
REMARK                         _______ _______ _______ _____ _____    ______ ____
ROOT
ATOM      1  N   UNL     1      -2.357  -6.842   3.871  0.00  0.00    -0.284 N 
ATOM      2  C   UNL     1      -3.215  -7.783   3.321  0.00  0.00    +0.220 A 
ATOM      3  N   UNL     1      -3.528  -7.699   2.037  0.00  0.00    -0.221 NA
ATOM      4  C   UNL     1      -4.343  -8.578   1.479  0.00  0.00    +0.139 A 
ATOM      5  C   UNL     1      -4.873  -9.601   2.260  0.00  0.00    +0.070 A 
ATOM      6  C   UNL     1      -4.522  -9.656   3.606  0.00  0.00    +0.139 A 
ATOM      7  N   UNL     1      -3.697  -8.745   4.094  0.00  0.00    -0.221 NA
ATOM      8  H   UNL     1      -2.054  -6.938   4.787  0.00  0.00    +0.155 HD
ENDROOT
BRANCH   1  12
ATOM      9  C   UNL     1      -1.075  -3.601   1.581  0.00  0.00    +0.030 A 
ATOM     10  C   UNL     1      -2.358  -4.106   1.413  0.00  0.00    +0.025 A 
ATOM     11  C   UNL     1      -2.782  -5.179   2.171  0.00  0.00    +0.025 A 
ATOM     12  C   UNL     1      -1.926  -5.754   3.101  0.00  0.00    +0.034 A 
ATOM     13  C   UNL     1      -0.644  -5.249   3.269  0.00  0.00    +0.025 A 
ATOM     14  C   UNL     1      -0.217  -4.179   2.508  0.00  0.00    +0.025 A 
BRANCH   9  19
ATOM     15  C   UNL     1      -0.315   1.602   0.057  0.00  0.00    +0.105 C 
ATOM     16  N   UNL     1      -0.257   0.134   0.035  0.00  0.00    -0.302 NA
ATOM     17  C   UNL     1      -1.604  -0.445  -0.051  0.00  0.00    +0.103 C 
ATOM     18  C   UNL     1      -1.494  -1.960  -0.254  0.00  0.00    +0.120 C 
ATOM     19  N   UNL     1      -0.645  -2.513   0.813  0.00  0.00    -0.327 N 
ATOM     20  C   UNL     1       0.667  -1.893   1.050  0.00  0.00    +0.120 C 
ATOM     21  C   UNL     1       0.472  -0.381   1.201  0.00  0.00    +0.103 C 
ENDBRANCH   9  19
ENDBRANCH   1  12
BRANCH   5  22
ATOM     22  N   UNL     1      -5.741 -10.551   1.706  0.00  0.00    -0.279 N 
ATOM     23  C   UNL     1      -5.683 -10.829   0.388  0.00  0.00    +0.251 C 
ATOM     24  O   UNL     1      -4.810 -10.334  -0.299  0.00  0.00    -0.270 OA
ATOM     25  H   UNL     1      -6.383 -11.009   2.270  0.00  0.00    +0.155 HD
BRANCH  23  26
ATOM     26  C   UNL     1      -6.678 -11.734  -0.220  0.00  0.00    +0.074 A 
ATOM     27  C   UNL     1      -7.866 -11.220  -0.746  0.00  0.00    +0.054 A 
ATOM     28  C   UNL     1      -8.792 -12.073  -1.314  0.00  0.00    +0.021 A 
ATOM     29  C   UNL     1      -8.546 -13.433  -1.363  0.00  0.00    +0.003 A 
ATOM     30  C   UNL     1      -7.372 -13.950  -0.844  0.00  0.00    +0.021 A 
ATOM     31  C   UNL     1      -6.434 -13.109  -0.279  0.00  0.00    +0.054 A 
ATOM     32 CL   UNL     1      -4.958 -13.759   0.365  0.00  0.00    -0.083 Cl
ATOM     33 CL   UNL     1      -8.178  -9.513  -0.685  0.00  0.00    -0.083 Cl
ENDBRANCH  23  26
ENDBRANCH   5  22
TORSDOF 4
