REMARK  Name = CHEMBL459729
REMARK  10 active torsions:
REMARK  status: ('A' for Active; 'I' for Inactive)
REMARK    1  A    between atoms: C_1  and  C_2
REMARK    2  A    between atoms: C_4  and  C_29
REMARK    3  A    between atoms: C_9  and  C_12
REMARK    4  A    between atoms: C_13  and  N_20
REMARK    5  A    between atoms: N_20  and  C_21
REMARK    6  A    between atoms: C_21  and  C_22
REMARK    7  A    between atoms: C_22  and  N_23
REMARK    8  A    between atoms: N_32  and  C_35
REMARK    9  A    between atoms: C_35  and  C_36
REMARK   10  A    between atoms: C_36  and  C_37
REMARK                            x       y       z     vdW  Elec       q    Type
REMARK                         _______ _______ _______ _____ _____    ______ ____
ROOT
ATOM      1  C   UNL     1      -0.032   1.499   0.009  0.00  0.00    +0.046 C 
ATOM      2  C   UNL     1       0.016  -0.008   0.001  0.00  0.00    -0.023 A 
ATOM      3  C   UNL     1       0.040  -0.692  -1.193  0.00  0.00    +0.009 A 
ATOM      4  C   UNL     1       0.084  -2.078  -1.210  0.00  0.00    -0.042 A 
ATOM      5  C   UNL     1       0.105  -2.792  -0.029  0.00  0.00    +0.031 A 
ATOM      6  C   UNL     1       0.082  -2.120   1.184  0.00  0.00    +0.067 A 
ATOM      7  C   UNL     1       0.042  -0.715   1.207  0.00  0.00    +0.092 A 
ATOM      8  N   UNL     1       0.034  -0.334   2.509  0.00  0.00    -0.227 NA
ATOM      9  C   UNL     1       0.071  -1.397   3.279  0.00  0.00    +0.146 A 
ATOM     10  N   UNL     1       0.093  -2.528   2.506  0.00  0.00    -0.338 N 
ATOM     11  H   UNL     1       0.121  -3.444   2.825  0.00  0.00    +0.167 HD
ENDROOT
BRANCH   9  12
ATOM     12  C   UNL     1       0.074  -1.377   4.751  0.00  0.00    +0.102 A 
ATOM     13  C   UNL     1       0.160  -0.164   5.449  0.00  0.00    +0.045 A 
ATOM     14  C   UNL     1       0.160  -0.190   6.856  0.00  0.00    +0.041 A 
ATOM     15  C   UNL     1       0.078  -1.369   7.509  0.00  0.00    +0.088 A 
ATOM     16  N   UNL     1      -0.004  -2.546   6.833  0.00  0.00    -0.328 N 
ATOM     17  H   UNL     1      -0.062  -3.377   7.330  0.00  0.00    +0.168 HD
ATOM     18  C   UNL     1      -0.014  -2.580   5.488  0.00  0.00    +0.261 A 
ATOM     19  O   UNL     1      -0.095  -3.648   4.904  0.00  0.00    -0.267 OA
BRANCH  13  20
ATOM     20  N   UNL     1       0.243   1.033   4.769  0.00  0.00    -0.341 N 
ATOM     21  H   UNL     1       0.164   1.048   3.802  0.00  0.00    +0.146 HD
BRANCH  20  22
ATOM     22  C   UNL     1       0.452   2.281   5.506  0.00  0.00    +0.125 C 
BRANCH  22  23
ATOM     23  C   UNL     1       0.506   3.452   4.522  0.00  0.00    +0.162 C 
BRANCH  23  24
ATOM     24  N   UNL     1       0.715   4.700   5.259  0.00  0.00    -0.269 N 
ATOM     25  C   UNL     1       1.702   5.596   5.043  0.00  0.00    +0.128 A 
ATOM     26  C   UNL     1       1.545   6.606   5.929  0.00  0.00    +0.078 A 
ATOM     27  C   UNL     1       0.423   6.319   6.714  0.00  0.00    +0.154 A 
ATOM     28  N   UNL     1      -0.078   5.179   6.310  0.00  0.00    -0.178 NA
ATOM     29 CL   UNL     1       2.556   8.011   6.068  0.00  0.00    -0.080 Cl
ENDBRANCH  23  24
ENDBRANCH  22  23
ENDBRANCH  20  22
ENDBRANCH  13  20
ENDBRANCH   9  12
BRANCH   4  30
ATOM     30  C   UNL     1       0.110  -2.810  -2.527  0.00  0.00    +0.016 C 
ATOM     31  C   UNL     1      -1.106  -3.737  -2.621  0.00  0.00    -0.011 C 
ATOM     32  C   UNL     1      -1.032  -4.535  -3.925  0.00  0.00    -0.078 C 
ATOM     33  N   UNL     1       0.198  -5.336  -3.943  0.00  0.00    +0.380 N 
ATOM     34  C   UNL     1       1.369  -4.451  -3.925  0.00  0.00    -0.078 C 
ATOM     35  C   UNL     1       1.387  -3.649  -2.622  0.00  0.00    -0.011 C 
ATOM     36  H   UNL     1       0.219  -5.936  -3.133  0.00  0.00    -0.082 HD
BRANCH  33  37
ATOM     37  C   UNL     1       0.226  -6.159  -5.160  0.00  0.00    -0.076 C 
BRANCH  37  38
ATOM     38  C   UNL     1       1.444  -7.084  -5.121  0.00  0.00    +0.015 C 
BRANCH  38  39
ATOM     39  C   UNL     1       1.473  -7.941  -6.388  0.00  0.00    +0.211 C 
ATOM     40  F   UNL     1       2.586  -8.788  -6.352  0.00  0.00    -0.249 F 
ENDBRANCH  38  39
ENDBRANCH  37  38
ENDBRANCH  33  37
ENDBRANCH   4  30
TORSDOF 9
