REMARK  Name = CHEMBL108841
REMARK  8 active torsions:
REMARK  status: ('A' for Active; 'I' for Inactive)
REMARK    1  A    between atoms: C_1  and  C_2
REMARK    2  A    between atoms: C_7  and  N_8
REMARK    3  A    between atoms: C_17  and  O_24
REMARK    4  A    between atoms: C_18  and  O_22
REMARK    5  A    between atoms: O_22  and  C_23
REMARK    6  A    between atoms: O_24  and  C_25
REMARK    7  A    between atoms: C_25  and  C_26
REMARK    8  A    between atoms: C_26  and  N_27
REMARK                            x       y       z     vdW  Elec       q    Type
REMARK                         _______ _______ _______ _____ _____    ______ ____
ROOT
ATOM      1  N   UNL     1      -0.375  -0.827   1.862  0.00  0.00    -0.296 N 
ATOM      2  C   UNL     1      -0.709  -1.353   3.097  0.00  0.00    +0.149 A 
ATOM      3  C   UNL     1      -0.812  -0.476   4.262  0.00  0.00    +0.106 A 
ATOM      4  C   UNL     1      -0.645   0.871   4.468  0.00  0.00    +0.142 A 
ATOM      5  N   UNL     1      -0.873   1.110   5.762  0.00  0.00    -0.243 NA
ATOM      6  C   UNL     1      -1.171  -0.009   6.374  0.00  0.00    +0.204 A 
ATOM      7  N   UNL     1      -1.147  -1.020   5.489  0.00  0.00    -0.294 N 
ATOM      8  C   UNL     1      -1.377  -2.389   5.575  0.00  0.00    +0.077 A 
ATOM      9  C   UNL     1      -1.715  -2.965   6.792  0.00  0.00    +0.077 A 
ATOM     10  C   UNL     1      -1.943  -4.327   6.874  0.00  0.00    +0.164 A 
ATOM     11  C   UNL     1      -1.834  -5.127   5.737  0.00  0.00    +0.164 A 
ATOM     12  C   UNL     1      -1.498  -4.566   4.521  0.00  0.00    +0.079 A 
ATOM     13  C   UNL     1      -1.266  -3.188   4.427  0.00  0.00    +0.094 A 
ATOM     14  N   UNL     1      -0.941  -2.641   3.224  0.00  0.00    -0.228 NA
ATOM     15  H   UNL     1      -0.281   0.132   1.752  0.00  0.00    +0.154 HD
ENDROOT
BRANCH   1  22
ATOM     16  C   UNL     1       2.255  -1.050   0.801  0.00  0.00    +0.046 C 
ATOM     17  C   UNL     1       1.094  -1.817   0.223  0.00  0.00    -0.028 A 
ATOM     18  C   UNL     1       1.292  -2.664  -0.851  0.00  0.00    +0.005 A 
ATOM     19  C   UNL     1       0.228  -3.369  -1.383  0.00  0.00    +0.002 A 
ATOM     20  C   UNL     1      -1.038  -3.229  -0.843  0.00  0.00    +0.022 A 
ATOM     21  C   UNL     1      -1.242  -2.384   0.231  0.00  0.00    +0.062 A 
ATOM     22  C   UNL     1      -0.173  -1.679   0.771  0.00  0.00    +0.054 A 
ATOM     23 CL   UNL     1      -2.831  -2.209   0.908  0.00  0.00    -0.082 Cl
ENDBRANCH   1  22
BRANCH  11  24
ATOM     24  O   UNL     1      -2.059  -6.465   5.825  0.00  0.00    -0.491 OA
ATOM     25  C   UNL     1      -1.931  -7.226   4.623  0.00  0.00    +0.277 C 
ENDBRANCH  11  24
BRANCH  10  26
ATOM     26  O   UNL     1      -2.274  -4.887   8.069  0.00  0.00    -0.490 OA
BRANCH  26  27
ATOM     27  C   UNL     1      -2.368  -4.011   9.193  0.00  0.00    +0.211 C 
BRANCH  27  28
ATOM     28  C   UNL     1      -2.748  -4.817  10.437  0.00  0.00    -0.037 C 
BRANCH  28  29
ATOM     29  N   UNL     1      -1.659  -5.745  10.770  0.00  0.00    +0.385 N 
ATOM     30  C   UNL     1      -2.086  -6.629  11.864  0.00  0.00    -0.050 C 
ATOM     31  C   UNL     1      -0.950  -7.596  12.208  0.00  0.00    +0.141 C 
ATOM     32  O   UNL     1       0.216  -6.846  12.563  0.00  0.00    -0.383 OA
ATOM     33  C   UNL     1       0.657  -5.952  11.537  0.00  0.00    +0.141 C 
ATOM     34  C   UNL     1      -0.476  -4.982  11.191  0.00  0.00    -0.050 C 
ATOM     35  H   UNL     1      -1.430  -6.300   9.959  0.00  0.00    -0.081 HD
ENDBRANCH  28  29
ENDBRANCH  27  28
ENDBRANCH  26  27
ENDBRANCH  10  26
TORSDOF 6
