REMARK  Name = CHEMBL49860
REMARK  13 active torsions:
REMARK  status: ('A' for Active; 'I' for Inactive)
REMARK    1  A    between atoms: C_3  and  O_31
REMARK    2  A    between atoms: C_4  and  N_30
REMARK    3  A    between atoms: C_6  and  C_7
REMARK    4  A    between atoms: C_7  and  C_8
REMARK    5  A    between atoms: C_8  and  C_9
REMARK    6  A    between atoms: C_8  and  N_29
REMARK    7  A    between atoms: N_11  and  C_12
REMARK    8  A    between atoms: C_12  and  C_18
REMARK    9  A    between atoms: N_20  and  C_21
REMARK   10  A    between atoms: C_21  and  C_22
REMARK   11  A    between atoms: C_21  and  C_26
REMARK   12  A    between atoms: C_22  and  C_23
REMARK   13  A    between atoms: O_31  and  P_32
REMARK                            x       y       z     vdW  Elec       q    Type
REMARK                         _______ _______ _______ _____ _____    ______ ____
ROOT
ATOM      1  C   UNL     1      -3.123  -1.912  -1.247  0.00  0.00    +0.231 C 
ATOM      2  O   UNL     1      -3.317  -3.105  -1.352  0.00  0.00    -0.274 OA
ATOM      3  N   UNL     1      -4.167  -1.063  -1.180  0.00  0.00    -0.300 N 
ATOM      4  H   UNL     1      -4.014  -0.117  -1.028  0.00  0.00    +0.150 HD
ENDROOT
BRANCH   3   5
ATOM      5  C   UNL     1      -5.533  -1.567  -1.338  0.00  0.00    +0.111 C 
ATOM      6  C   UNL     1      -5.842  -2.562  -0.217  0.00  0.00    +0.035 C 
ATOM      7  C   UNL     1      -5.710  -1.861   1.137  0.00  0.00    +0.003 C 
ATOM      8  C   UNL     1      -6.697  -0.694   1.205  0.00  0.00    +0.000 C 
ATOM      9  C   UNL     1      -6.388   0.301   0.084  0.00  0.00    +0.003 C 
ATOM     10  C   UNL     1      -6.519  -0.400  -1.270  0.00  0.00    +0.035 C 
BRANCH   5  11
ATOM     11  C   UNL     1      -5.663  -2.257  -2.671  0.00  0.00    +0.237 C 
ATOM     12  O   UNL     1      -6.367  -3.240  -2.780  0.00  0.00    -0.273 OA
ATOM     13  N   UNL     1      -4.998  -1.783  -3.743  0.00  0.00    -0.302 N 
ATOM     14  H   UNL     1      -4.493  -0.958  -3.675  0.00  0.00    +0.150 HD
BRANCH  13  15
ATOM     15  C   UNL     1      -5.035  -2.515  -5.012  0.00  0.00    +0.167 C 
BRANCH  15  16
ATOM     16  C   UNL     1      -6.268  -2.120  -5.783  0.00  0.00    +0.231 C 
ATOM     17  O   UNL     1      -7.039  -1.307  -5.319  0.00  0.00    -0.274 OA
ATOM     18  N   UNL     1      -6.514  -2.670  -6.989  0.00  0.00    -0.328 N 
ATOM     19  H   UNL     1      -5.897  -3.320  -7.360  0.00  0.00    +0.145 HD
ATOM     20  H   UNL     1      -7.307  -2.415  -7.486  0.00  0.00    +0.145 HD
ENDBRANCH  15  16
BRANCH  15  21
ATOM     21  C   UNL     1      -3.789  -2.177  -5.833  0.00  0.00    +0.127 C 
BRANCH  21  22
ATOM     22  C   UNL     1      -2.564  -2.683  -5.117  0.00  0.00    +0.213 C 
ATOM     23  O   UNL     1      -2.675  -3.258  -4.055  0.00  0.00    -0.276 OA
ATOM     24  N   UNL     1      -1.343  -2.498  -5.657  0.00  0.00    -0.329 N 
ATOM     25  H   UNL     1      -1.254  -2.038  -6.507  0.00  0.00    +0.145 HD
ATOM     26  H   UNL     1      -0.554  -2.823  -5.197  0.00  0.00    +0.145 HD
ENDBRANCH  21  22
ENDBRANCH  15  21
ENDBRANCH  13  15
ENDBRANCH   5  11
ENDBRANCH   3   5
BRANCH   1  27
ATOM     27  C   UNL     1      -1.714  -1.380  -1.192  0.00  0.00    +0.142 C 
BRANCH  27  28
ATOM     28  N   UNL     1      -0.791  -2.379  -1.748  0.00  0.00    -0.320 NA
ATOM     29  H   UNL     1       0.151  -2.021  -1.782  0.00  0.00    +0.119 HD
ATOM     30  H   UNL     1      -0.833  -3.240  -1.225  0.00  0.00    +0.119 HD
ENDBRANCH  27  28
BRANCH  27  31
ATOM     31  C   UNL     1      -1.335  -1.089   0.261  0.00  0.00    +0.063 C 
BRANCH  31  37
ATOM     32  C   UNL     1       0.138   0.933   0.243  0.00  0.00    +0.007 A 
ATOM     33  C   UNL     1       1.385   1.531   0.285  0.00  0.00    +0.048 A 
ATOM     34  C   UNL     1       2.524   0.752   0.389  0.00  0.00    +0.153 A 
ATOM     35  C   UNL     1       2.412  -0.636   0.452  0.00  0.00    +0.068 A 
ATOM     36  C   UNL     1       1.159  -1.229   0.410  0.00  0.00    +0.030 A 
ATOM     37  C   UNL     1       0.026  -0.444   0.306  0.00  0.00    -0.043 A 
BRANCH  35  38
ATOM     38  N   UNL     1       3.560  -1.429   0.556  0.00  0.00    -0.355 N 
ATOM     39  H   UNL     1       4.436  -1.013   0.585  0.00  0.00    +0.142 HD
ATOM     40  H   UNL     1       3.481  -2.395   0.601  0.00  0.00    +0.142 HD
ENDBRANCH  35  38
BRANCH  34  41
ATOM     41  O   UNL     1       3.750   1.339   0.428  0.00  0.00    -0.399 OA
BRANCH  41  42
ATOM     42  P   UNL     1       4.097   2.036   1.837  0.00  0.00    +0.589 P 
ATOM     43  O   UNL     1       2.971   3.062   2.204  0.00  0.00    -0.211 OA
ATOM     44  O   UNL     1       4.189   0.940   2.954  0.00  0.00    -0.104 OA
ATOM     45  O   UNL     1       5.469   2.784   1.726  0.00  0.00    -0.104 OA
ENDBRANCH  41  42
ENDBRANCH  34  41
ENDBRANCH  31  37
ENDBRANCH  27  31
ENDBRANCH   1  27
TORSDOF 13
