REMARK  Name = CHEMBL185851
REMARK  5 active torsions:
REMARK  status: ('A' for Active; 'I' for Inactive)
REMARK    1  A    between atoms: C_1  and  C_2
REMARK    2  A    between atoms: C_7  and  N_8
REMARK    3  A    between atoms: C_9  and  C_11
REMARK    4  A    between atoms: C_21  and  N_23
REMARK    5  A    between atoms: C_27  and  C_30
REMARK                            x       y       z     vdW  Elec       q    Type
REMARK                         _______ _______ _______ _____ _____    ______ ____
ROOT
ATOM      1  C   UNL     1      -1.585   0.331   4.734  0.00  0.00    +0.095 A 
ATOM      2  C   UNL     1      -1.816  -0.113   6.029  0.00  0.00    +0.133 A 
ATOM      3  N   UNL     1      -1.566   0.740   6.990  0.00  0.00    -0.232 NA
ATOM      4  C   UNL     1      -1.119   1.957   6.733  0.00  0.00    +0.164 A 
ATOM      5  S   UNL     1      -1.006   1.990   5.054  0.00  0.00    -0.047 S 
ATOM      6  N   UNL     1      -0.814   2.961   7.629  0.00  0.00    -0.280 N 
ATOM      7  C   UNL     1      -0.857   2.710   8.998  0.00  0.00    +0.103 A 
ATOM      8  C   UNL     1      -1.047   1.410   9.452  0.00  0.00    +0.042 A 
ATOM      9  C   UNL     1      -1.089   1.169  10.816  0.00  0.00    +0.007 A 
ATOM     10  C   UNL     1      -0.939   2.239  11.683  0.00  0.00    +0.042 A 
ATOM     11  C   UNL     1      -0.752   3.514  11.162  0.00  0.00    +0.100 A 
ATOM     12  N   UNL     1      -0.712   3.711   9.853  0.00  0.00    -0.332 N 
ATOM     13  H   UNL     1      -0.568   3.842   7.306  0.00  0.00    +0.155 HD
ATOM     14  H   UNL     1      -0.577   4.609   9.512  0.00  0.00    +0.168 HD
ENDROOT
BRANCH  11  15
ATOM     15  N   UNL     1      -0.601   4.594  12.025  0.00  0.00    -0.320 N 
ATOM     16  C   UNL     1      -0.331   5.944  11.506  0.00  0.00    +0.087 C 
ATOM     17  C   UNL     1       0.874   6.521  12.257  0.00  0.00    -0.063 C 
ATOM     18  N   UNL     1       0.622   6.465  13.702  0.00  0.00    +0.383 N 
ATOM     19  C   UNL     1       0.516   5.067  14.139  0.00  0.00    -0.057 C 
ATOM     20  C   UNL     1      -0.712   4.420  13.481  0.00  0.00    +0.090 C 
ATOM     21  C   UNL     1       0.364   5.018  15.660  0.00  0.00    -0.012 C 
ATOM     22  H   UNL     1       1.382   6.913  14.192  0.00  0.00    -0.085 HD
ATOM     23  H   UNL     1      -0.240   6.947  13.910  0.00  0.00    -0.085 HD
ENDBRANCH  11  15
BRANCH   1  25
ATOM     24  N   UNL     1      -1.468   0.257   2.304  0.00  0.00    -0.280 N 
ATOM     25  C   UNL     1      -1.762  -0.368   3.462  0.00  0.00    +0.256 C 
ATOM     26  O   UNL     1      -2.174  -1.513   3.448  0.00  0.00    -0.269 OA
ATOM     27  H   UNL     1      -1.065   1.139   2.317  0.00  0.00    +0.155 HD
BRANCH  24  34
ATOM     28  C   UNL     1      -2.976   1.699   0.370  0.00  0.00    +0.046 C 
ATOM     29  C   UNL     1      -2.478   0.300   0.111  0.00  0.00    -0.028 A 
ATOM     30  C   UNL     1      -2.745  -0.316  -1.096  0.00  0.00    +0.005 A 
ATOM     31  C   UNL     1      -2.289  -1.599  -1.335  0.00  0.00    +0.002 A 
ATOM     32  C   UNL     1      -1.564  -2.270  -0.367  0.00  0.00    +0.022 A 
ATOM     33  C   UNL     1      -1.293  -1.660   0.843  0.00  0.00    +0.062 A 
ATOM     34  C   UNL     1      -1.745  -0.367   1.083  0.00  0.00    +0.055 A 
ATOM     35 CL   UNL     1      -0.384  -2.502   2.057  0.00  0.00    -0.082 Cl
ENDBRANCH  24  34
ENDBRANCH   1  25
TORSDOF 3
