REMARK  Name = CHEMBL394490
REMARK  11 active torsions:
REMARK  status: ('A' for Active; 'I' for Inactive)
REMARK    1  A    between atoms: C_1  and  O_2
REMARK    2  A    between atoms: O_2  and  C_3
REMARK    3  A    between atoms: C_5  and  C_18
REMARK    4  A    between atoms: C_8  and  O_9
REMARK    5  A    between atoms: O_9  and  C_10
REMARK    6  A    between atoms: C_10  and  C_11
REMARK    7  A    between atoms: C_11  and  N_12
REMARK    8  A    between atoms: C_19  and  C_36
REMARK    9  A    between atoms: N_27  and  C_28
REMARK   10  A    between atoms: C_28  and  C_29
REMARK   11  A    between atoms: C_29  and  N_30
REMARK                            x       y       z     vdW  Elec       q    Type
REMARK                         _______ _______ _______ _____ _____    ______ ____
ROOT
ATOM      1  C   UNL     1      -5.596   0.004   0.081  0.00  0.00    +0.146 A 
ATOM      2  C   UNL     1      -6.743  -0.730  -0.052  0.00  0.00    +0.041 A 
ATOM      3  C   UNL     1      -7.846   0.210   0.188  0.00  0.00    +0.088 A 
ATOM      4  C   UNL     1      -9.244   0.119   0.205  0.00  0.00    +0.134 A 
ATOM      5  N   UNL     1      -9.944   1.220   0.469  0.00  0.00    -0.220 NA
ATOM      6  C   UNL     1      -9.337   2.368   0.708  0.00  0.00    +0.227 A 
ATOM      7  N   UNL     1      -8.027   2.495   0.701  0.00  0.00    -0.200 NA
ATOM      8  C   UNL     1      -7.242   1.451   0.448  0.00  0.00    +0.233 A 
ATOM      9  O   UNL     1      -5.910   1.281   0.379  0.00  0.00    -0.436 OA
ATOM     10  N   UNL     1      -9.881  -1.083  -0.046  0.00  0.00    -0.327 N 
ATOM     11  H   UNL     1      -9.358  -1.877  -0.237  0.00  0.00    +0.148 HD
ENDROOT
BRANCH   1  14
ATOM     12  C   UNL     1      -1.965  -0.707   0.726  0.00  0.00    +0.162 A 
ATOM     13  C   UNL     1      -3.247  -0.212   0.875  0.00  0.00    +0.061 A 
ATOM     14  C   UNL     1      -4.226  -0.521  -0.073  0.00  0.00    +0.022 A 
ATOM     15  C   UNL     1      -3.905  -1.330  -1.166  0.00  0.00    +0.015 A 
ATOM     16  C   UNL     1      -2.624  -1.821  -1.308  0.00  0.00    +0.050 A 
ATOM     17  C   UNL     1      -1.651  -1.508  -0.370  0.00  0.00    +0.162 A 
BRANCH  12  19
ATOM     18  C   UNL     1      -1.402   0.418   2.744  0.00  0.00    +0.277 C 
ATOM     19  O   UNL     1      -1.010  -0.408   1.646  0.00  0.00    -0.491 OA
ENDBRANCH  12  19
BRANCH  17  20
ATOM     20  O   UNL     1      -0.388  -1.990  -0.517  0.00  0.00    -0.490 OA
BRANCH  20  21
ATOM     21  C   UNL     1      -0.134  -2.805  -1.663  0.00  0.00    +0.211 C 
BRANCH  21  22
ATOM     22  C   UNL     1       1.330  -3.251  -1.658  0.00  0.00    -0.037 C 
BRANCH  22  23
ATOM     23  N   UNL     1       1.576  -4.109  -0.491  0.00  0.00    +0.382 N 
ATOM     24  C   UNL     1       3.010  -4.408  -0.400  0.00  0.00    -0.079 C 
ATOM     25  C   UNL     1       3.284  -5.234   0.858  0.00  0.00    -0.019 C 
ATOM     26  C   UNL     1       2.492  -6.543   0.785  0.00  0.00    -0.004 C 
ATOM     27  C   UNL     1       1.005  -6.219   0.615  0.00  0.00    -0.019 C 
ATOM     28  C   UNL     1       0.816  -5.356  -0.634  0.00  0.00    -0.079 C 
ATOM     29  H   UNL     1       1.281  -3.630   0.346  0.00  0.00    -0.082 HD
ENDBRANCH  22  23
ENDBRANCH  21  22
ENDBRANCH  20  21
ENDBRANCH  17  20
ENDBRANCH   1  14
BRANCH   2  30
ATOM     30  C   UNL     1      -6.850  -2.171  -0.371  0.00  0.00    -0.014 A 
ATOM     31  C   UNL     1      -7.391  -2.581  -1.590  0.00  0.00    +0.008 A 
ATOM     32  C   UNL     1      -7.488  -3.926  -1.881  0.00  0.00    +0.001 A 
ATOM     33  C   UNL     1      -7.049  -4.868  -0.968  0.00  0.00    +0.000 A 
ATOM     34  C   UNL     1      -6.511  -4.468   0.243  0.00  0.00    +0.001 A 
ATOM     35  C   UNL     1      -6.405  -3.126   0.544  0.00  0.00    +0.008 A 
ENDBRANCH   2  30
BRANCH  10  36
ATOM     36  C   UNL     1     -11.344  -1.156  -0.023  0.00  0.00    +0.118 C 
BRANCH  36  37
ATOM     37  C   UNL     1     -11.788  -2.587  -0.331  0.00  0.00    +0.103 C 
BRANCH  37  38
ATOM     38  N   UNL     1     -13.255  -2.661  -0.307  0.00  0.00    -0.304 NA
ATOM     39  C   UNL     1     -13.839  -1.876  -1.404  0.00  0.00    +0.065 C 
ATOM     40  C   UNL     1     -15.365  -1.929  -1.309  0.00  0.00    -0.067 C 
ATOM     41  N   UNL     1     -15.812  -3.326  -1.392  0.00  0.00    +0.381 N 
ATOM     42  C   UNL     1     -15.241  -4.091  -0.276  0.00  0.00    -0.067 C 
ATOM     43  C   UNL     1     -13.713  -4.056  -0.362  0.00  0.00    +0.065 C 
ATOM     44  H   UNL     1     -16.819  -3.360  -1.342  0.00  0.00    -0.086 HD
ATOM     45  H   UNL     1     -15.506  -3.726  -2.266  0.00  0.00    -0.086 HD
ENDBRANCH  37  38
ENDBRANCH  36  37
ENDBRANCH  10  36
TORSDOF 10
