REMARK  Name = CHEMBL219584
REMARK  6 active torsions:
REMARK  status: ('A' for Active; 'I' for Inactive)
REMARK    1  A    between atoms: C_1  and  C_2
REMARK    2  A    between atoms: C_5  and  C_20
REMARK    3  A    between atoms: C_7  and  C_8
REMARK    4  A    between atoms: C_9  and  C_10
REMARK    5  A    between atoms: N_22  and  C_23
REMARK    6  A    between atoms: C_27  and  C_29
REMARK                            x       y       z     vdW  Elec       q    Type
REMARK                         _______ _______ _______ _____ _____    ______ ____
ROOT
ATOM      1  C   UNL     1      -0.048   1.502   0.010  0.00  0.00    +0.045 C 
ATOM      2  C   UNL     1      -0.020  -0.004   0.002  0.00  0.00    -0.035 A 
ATOM      3  C   UNL     1      -0.018  -0.687  -1.198  0.00  0.00    +0.005 A 
ATOM      4  C   UNL     1       0.009  -2.067  -1.215  0.00  0.00    +0.013 A 
ATOM      5  C   UNL     1       0.034  -2.784  -0.016  0.00  0.00    +0.038 A 
ATOM      6  C   UNL     1       0.032  -2.103   1.199  0.00  0.00    +0.030 A 
ATOM      7  C   UNL     1       0.011  -0.708   1.209  0.00  0.00    +0.029 A 
ENDROOT
BRANCH   5   8
ATOM      8  C   UNL     1       0.061  -4.262  -0.037  0.00  0.00    +0.248 C 
ATOM      9  O   UNL     1       0.083  -4.884   1.007  0.00  0.00    -0.270 OA
ATOM     10  N   UNL     1       0.061  -4.919  -1.214  0.00  0.00    -0.281 N 
ATOM     11  H   UNL     1      -0.024  -4.426  -2.045  0.00  0.00    +0.155 HD
BRANCH  10  12
ATOM     12  C   UNL     1       0.185  -6.312  -1.236  0.00  0.00    +0.034 A 
ATOM     13  C   UNL     1       0.889  -6.932  -2.261  0.00  0.00    +0.023 A 
ATOM     14  C   UNL     1       1.009  -8.307  -2.280  0.00  0.00    +0.002 A 
ATOM     15  C   UNL     1       0.429  -9.068  -1.282  0.00  0.00    +0.012 A 
ATOM     16  C   UNL     1      -0.273  -8.454  -0.261  0.00  0.00    +0.057 A 
ATOM     17  C   UNL     1      -0.392  -7.078  -0.232  0.00  0.00    +0.035 A 
BRANCH  16  18
ATOM     18  C   UNL     1      -0.905  -9.287   0.825  0.00  0.00    +0.417 C 
ATOM     19  F   UNL     1      -0.645 -10.640   0.585  0.00  0.00    -0.166 F 
ATOM     20  F   UNL     1      -0.368  -8.922   2.064  0.00  0.00    -0.166 F 
ATOM     21  F   UNL     1      -2.287  -9.071   0.834  0.00  0.00    -0.166 F 
ENDBRANCH  16  18
ENDBRANCH  10  12
ENDBRANCH   5   8
BRANCH   7  22
ATOM     22  C   UNL     1       0.015   0.001   2.454  0.00  0.00    -0.061 C 
ATOM     23  C   UNL     1       0.018   0.582   3.474  0.00  0.00    -0.059 C 
BRANCH  23  24
ATOM     24  C   UNL     1       0.021   1.291   4.718  0.00  0.00    +0.044 A 
ATOM     25  C   UNL     1      -0.012   2.682   4.733  0.00  0.00    +0.028 A 
ATOM     26  C   UNL     1      -0.007   3.327   5.981  0.00  0.00    +0.002 A 
ATOM     27  C   UNL     1      -0.039   4.729   6.076  0.00  0.00    +0.010 A 
ATOM     28  C   UNL     1      -0.034   5.321   7.302  0.00  0.00    +0.001 A 
ATOM     29  C   UNL     1       0.003   4.554   8.465  0.00  0.00    +0.002 A 
ATOM     30  C   UNL     1       0.035   3.194   8.410  0.00  0.00    +0.028 A 
ATOM     31  C   UNL     1       0.031   2.545   7.163  0.00  0.00    +0.071 A 
ATOM     32  N   UNL     1       0.060   1.210   7.086  0.00  0.00    -0.254 NA
ATOM     33  C   UNL     1       0.052   0.587   5.936  0.00  0.00    +0.128 A 
ENDBRANCH  23  24
ENDBRANCH   7  22
TORSDOF 5
