REMARK  Name = CHEMBL213745
REMARK  3 active torsions:
REMARK  status: ('A' for Active; 'I' for Inactive)
REMARK    1  A    between atoms: C_4  and  C_8
REMARK    2  A    between atoms: N_22  and  C_23
REMARK    3  A    between atoms: C_26  and  N_29
REMARK                            x       y       z     vdW  Elec       q    Type
REMARK                         _______ _______ _______ _____ _____    ______ ____
ROOT
ATOM      1  C   UNL     1       3.663  -0.746  -0.058  0.00  0.00    +0.067 C 
ATOM      2  C   UNL     1       4.327  -0.897  -1.222  0.00  0.00    +0.038 C 
ATOM      3  C   UNL     1       5.642  -1.550  -1.214  0.00  0.00    +0.036 A 
ATOM      4  C   UNL     1       6.380  -1.737  -2.380  0.00  0.00    +0.125 A 
ATOM      5  N   UNL     1       7.560  -2.335  -2.291  0.00  0.00    -0.222 NA
ATOM      6  C   UNL     1       8.033  -2.748  -1.124  0.00  0.00    +0.221 A 
ATOM      7  N   UNL     1       7.363  -2.590   0.011  0.00  0.00    -0.197 NA
ATOM      8  C   UNL     1       6.176  -2.002   0.009  0.00  0.00    +0.150 A 
ATOM      9  N   UNL     1       5.456  -1.823   1.178  0.00  0.00    -0.226 N 
ATOM     10  N   UNL     1       4.209  -1.195   1.156  0.00  0.00    -0.186 N 
ATOM     11  C   UNL     1       3.661  -1.106   2.388  0.00  0.00    +0.238 C 
ATOM     12  O   UNL     1       2.584  -0.609   2.643  0.00  0.00    -0.274 OA
ATOM     13  C   UNL     1       4.600  -1.720   3.397  0.00  0.00    +0.118 C 
ATOM     14  C   UNL     1       5.795  -2.203   2.559  0.00  0.00    +0.139 C 
ATOM     15  N   UNL     1       9.271  -3.367  -1.087  0.00  0.00    -0.284 N 
ATOM     16  H   UNL     1       9.598  -3.748  -0.257  0.00  0.00    +0.155 HD
ENDROOT
BRANCH   1  20
ATOM     17  C   UNL     1      -0.143   1.140  -0.061  0.00  0.00    +0.003 A 
ATOM     18  C   UNL     1       0.994   1.885  -0.320  0.00  0.00    +0.021 A 
ATOM     19  C   UNL     1       2.235   1.279  -0.320  0.00  0.00    +0.051 A 
ATOM     20  C   UNL     1       2.340  -0.090  -0.059  0.00  0.00    +0.035 A 
ATOM     21  C   UNL     1       1.187  -0.835   0.201  0.00  0.00    +0.051 A 
ATOM     22  C   UNL     1      -0.047  -0.215   0.198  0.00  0.00    +0.021 A 
ATOM     23 CL   UNL     1       1.305  -2.537   0.527  0.00  0.00    -0.083 Cl
ATOM     24 CL   UNL     1       3.660   2.215  -0.645  0.00  0.00    -0.083 Cl
ENDBRANCH   1  20
BRANCH  15  25
ATOM     25  C   UNL     1      10.052  -3.442  -2.248  0.00  0.00    +0.034 A 
ATOM     26  C   UNL     1      10.093  -2.369  -3.127  0.00  0.00    +0.025 A 
ATOM     27  C   UNL     1      10.862  -2.443  -4.272  0.00  0.00    +0.025 A 
ATOM     28  C   UNL     1      11.595  -3.591  -4.542  0.00  0.00    +0.030 A 
ATOM     29  C   UNL     1      11.554  -4.665  -3.662  0.00  0.00    +0.025 A 
ATOM     30  C   UNL     1      10.789  -4.588  -2.515  0.00  0.00    +0.025 A 
BRANCH  28  31
ATOM     31  N   UNL     1      12.374  -3.667  -5.702  0.00  0.00    -0.326 N 
ATOM     32  C   UNL     1      13.063  -4.913  -6.072  0.00  0.00    +0.133 C 
ATOM     33  C   UNL     1      12.727  -5.236  -7.533  0.00  0.00    +0.178 C 
ATOM     34  O   UNL     1      13.006  -4.092  -8.344  0.00  0.00    -0.377 OA
ATOM     35  C   UNL     1      12.219  -2.942  -8.024  0.00  0.00    +0.178 C 
ATOM     36  C   UNL     1      12.524  -2.504  -6.591  0.00  0.00    +0.133 C 
ENDBRANCH  28  31
ENDBRANCH  15  25
TORSDOF 3
