REMARK  Name = CHEMBL567241
REMARK  5 active torsions:
REMARK  status: ('A' for Active; 'I' for Inactive)
REMARK    1  A    between atoms: C_1  and  N_2
REMARK    2  A    between atoms: C_7  and  C_8
REMARK    3  A    between atoms: C_8  and  N_9
REMARK    4  A    between atoms: C_14  and  N_16
REMARK    5  A    between atoms: C_25  and  C_27
REMARK                            x       y       z     vdW  Elec       q    Type
REMARK                         _______ _______ _______ _____ _____    ______ ____
ROOT
ATOM      1  C   UNL     1       0.109   1.522   0.912  0.00  0.00    -0.096 C 
ATOM      2  N   UNL     1       0.059   0.086   0.605  0.00  0.00    +0.383 N 
ATOM      3  C   UNL     1      -1.338  -0.364   0.606  0.00  0.00    -0.059 C 
ATOM      4  C   UNL     1      -1.400  -1.833   0.174  0.00  0.00    +0.089 C 
ATOM      5  N   UNL     1      -0.510  -2.614   1.048  0.00  0.00    -0.301 N 
ATOM      6  C   UNL     1       0.870  -2.138   1.235  0.00  0.00    +0.094 C 
ATOM      7  C   UNL     1       0.824  -0.655   1.616  0.00  0.00    -0.034 C 
ATOM      8  C   UNL     1      -0.946  -3.733   1.660  0.00  0.00    +0.247 C 
ATOM      9  O   UNL     1      -0.230  -4.309   2.455  0.00  0.00    -0.270 OA
ATOM     10  H   UNL     1       0.462  -0.076  -0.305  0.00  0.00    -0.082 HD
ENDROOT
BRANCH   8  11
ATOM     11  C   UNL     1      -2.295  -4.259   1.364  0.00  0.00    +0.037 A 
ATOM     12  C   UNL     1      -3.094  -4.758   2.408  0.00  0.00    +0.013 A 
ATOM     13  C   UNL     1      -4.336  -5.247   2.162  0.00  0.00    +0.009 A 
ATOM     14  C   UNL     1      -4.839  -5.259   0.848  0.00  0.00    -0.018 A 
ATOM     15  C   UNL     1      -6.122  -5.759   0.568  0.00  0.00    +0.008 A 
ATOM     16  C   UNL     1      -6.582  -5.758  -0.713  0.00  0.00    +0.001 A 
ATOM     17  C   UNL     1      -5.800  -5.266  -1.756  0.00  0.00    +0.001 A 
ATOM     18  C   UNL     1      -4.553  -4.773  -1.524  0.00  0.00    +0.008 A 
ATOM     19  C   UNL     1      -4.043  -4.758  -0.213  0.00  0.00    -0.017 A 
ATOM     20  C   UNL     1      -2.764  -4.251   0.061  0.00  0.00    +0.021 A 
ENDBRANCH   8  11
BRANCH   7  21
ATOM     21  C   UNL     1       2.249  -0.102   1.685  0.00  0.00    +0.090 C 
BRANCH  21  22
ATOM     22  N   UNL     1       2.844  -0.118   0.346  0.00  0.00    -0.315 N 
ATOM     23  C   UNL     1       4.095   0.436   0.137  0.00  0.00    +0.217 A 
ATOM     24  N   UNL     1       4.742   0.973   1.161  0.00  0.00    -0.223 NA
ATOM     25  C   UNL     1       5.941   1.512   1.001  0.00  0.00    +0.118 A 
ATOM     26  C   UNL     1       6.520   1.512  -0.255  0.00  0.00    +0.066 A 
ATOM     27  C   UNL     1       5.814   0.940  -1.313  0.00  0.00    +0.144 A 
ATOM     28  N   UNL     1       4.617   0.412  -1.079  0.00  0.00    -0.197 NA
ATOM     29  H   UNL     1       2.361  -0.518  -0.395  0.00  0.00    +0.149 HD
BRANCH  27  30
ATOM     30  N   UNL     1       6.357   0.919  -2.596  0.00  0.00    -0.283 N 
ATOM     31  C   UNL     1       7.573   1.413  -2.968  0.00  0.00    +0.206 A 
ATOM     32  N   UNL     1       7.761   1.224  -4.241  0.00  0.00    -0.235 NA
ATOM     33  C   UNL     1       6.681   0.596  -4.775  0.00  0.00    +0.089 A 
ATOM     34  C   UNL     1       5.768   0.386  -3.728  0.00  0.00    +0.075 A 
ATOM     35  C   UNL     1       4.560  -0.249  -3.980  0.00  0.00    +0.028 A 
ATOM     36  C   UNL     1       4.261  -0.674  -5.257  0.00  0.00    +0.002 A 
ATOM     37  C   UNL     1       5.161  -0.472  -6.294  0.00  0.00    +0.002 A 
ATOM     38  C   UNL     1       6.361   0.163  -6.064  0.00  0.00    +0.030 A 
ENDBRANCH  27  30
ENDBRANCH  21  22
ENDBRANCH   7  21
TORSDOF 4
