REMARK  Name = CHEMBL1085316
REMARK  9 active torsions:
REMARK  status: ('A' for Active; 'I' for Inactive)
REMARK    1  A    between atoms: C_1  and  N_2
REMARK    2  A    between atoms: N_5  and  C_8
REMARK    3  A    between atoms: C_12  and  C_14
REMARK    4  A    between atoms: C_21  and  C_24
REMARK    5  A    between atoms: C_22  and  N_23
REMARK    6  A    between atoms: C_27  and  N_30
REMARK    7  A    between atoms: C_31  and  C_33
REMARK    8  A    between atoms: C_33  and  C_34
REMARK    9  A    between atoms: C_34  and  C_35
REMARK                            x       y       z     vdW  Elec       q    Type
REMARK                         _______ _______ _______ _____ _____    ______ ____
ROOT
ATOM      1  C   UNL     1       0.259  -5.913   4.316  0.00  0.00    +0.046 A 
ATOM      2  C   UNL     1       1.640  -6.102   4.178  0.00  0.00    +0.145 A 
ATOM      3  N   UNL     1       2.129  -6.503   5.325  0.00  0.00    -0.171 NA
ATOM      4  N   UNL     1       1.093  -6.593   6.261  0.00  0.00    -0.200 N 
ATOM      5  C   UNL     1      -0.071  -6.222   5.641  0.00  0.00    +0.165 A 
ATOM      6  N   UNL     1      -1.232  -6.209   6.305  0.00  0.00    -0.235 NA
ATOM      7  C   UNL     1      -1.300  -6.547   7.573  0.00  0.00    +0.125 A 
ATOM      8  C   UNL     1      -0.138  -6.933   8.263  0.00  0.00    +0.040 A 
ATOM      9  C   UNL     1       1.073  -6.959   7.580  0.00  0.00    +0.129 A 
ENDROOT
BRANCH   1  14
ATOM     10  C   UNL     1      -1.261  -3.918   1.511  0.00  0.00    +0.030 A 
ATOM     11  C   UNL     1      -2.434  -4.629   1.282  0.00  0.00    +0.023 A 
ATOM     12  C   UNL     1      -2.726  -5.750   2.036  0.00  0.00    +0.002 A 
ATOM     13  C   UNL     1      -1.855  -6.171   3.021  0.00  0.00    +0.009 A 
ATOM     14  C   UNL     1      -0.676  -5.464   3.259  0.00  0.00    -0.011 A 
ATOM     15  C   UNL     1      -0.379  -4.336   2.495  0.00  0.00    +0.031 A 
BRANCH  10  20
ATOM     16  C   UNL     1      -1.285   1.316  -0.084  0.00  0.00    +0.105 C 
ATOM     17  N   UNL     1      -0.980  -0.121  -0.068  0.00  0.00    -0.302 NA
ATOM     18  C   UNL     1      -2.203  -0.920  -0.224  0.00  0.00    +0.103 C 
ATOM     19  C   UNL     1      -1.828  -2.397  -0.384  0.00  0.00    +0.120 C 
ATOM     20  N   UNL     1      -0.970  -2.786   0.746  0.00  0.00    -0.327 N 
ATOM     21  C   UNL     1       0.202  -1.951   1.050  0.00  0.00    +0.120 C 
ATOM     22  C   UNL     1      -0.253  -0.492   1.153  0.00  0.00    +0.103 C 
ENDBRANCH  10  20
ENDBRANCH   1  14
BRANCH   8  23
ATOM     23  C   UNL     1      -0.205  -7.316   9.694  0.00  0.00    -0.013 A 
ATOM     24  C   UNL     1       0.097  -8.620  10.083  0.00  0.00    +0.010 A 
ATOM     25  C   UNL     1       0.034  -8.974  11.415  0.00  0.00    +0.024 A 
ATOM     26  C   UNL     1      -0.329  -8.031  12.368  0.00  0.00    +0.033 A 
ATOM     27  C   UNL     1      -0.630  -6.730  11.984  0.00  0.00    +0.024 A 
ATOM     28  C   UNL     1      -0.563  -6.370  10.654  0.00  0.00    +0.010 A 
BRANCH  26  29
ATOM     29  N   UNL     1      -0.393  -8.393  13.719  0.00  0.00    -0.285 N 
ATOM     30  C   UNL     1      -0.028  -7.511  14.670  0.00  0.00    +0.217 C 
ATOM     31  O   UNL     1       0.276  -6.378  14.363  0.00  0.00    -0.275 OA
ATOM     32  H   UNL     1      -0.700  -9.278  13.970  0.00  0.00    +0.155 HD
BRANCH  30  33
ATOM     33  C   UNL     1       0.001  -7.932  16.117  0.00  0.00    +0.096 C 
BRANCH  33  34
ATOM     34  C   UNL     1       0.446  -6.752  16.983  0.00  0.00    +0.013 C 
BRANCH  34  35
ATOM     35  C   UNL     1       0.476  -7.180  18.452  0.00  0.00    -0.011 C 
ATOM     36  C   UNL     1       1.640  -8.169  18.704  0.00  0.00    +0.003 C 
ATOM     37  C   UNL     1       1.900  -8.011  20.223  0.00  0.00    +0.000 C 
ATOM     38  C   UNL     1       1.705  -6.503  20.485  0.00  0.00    +0.000 C 
ATOM     39  C   UNL     1       0.800  -5.974  19.359  0.00  0.00    +0.003 C 
ENDBRANCH  34  35
ENDBRANCH  33  34
ENDBRANCH  30  33
ENDBRANCH  26  29
ENDBRANCH   8  23
BRANCH   9  40
ATOM     40  N   UNL     1       2.232  -7.329   8.222  0.00  0.00    -0.343 N 
ATOM     41  H   UNL     1       3.074  -7.333   7.740  0.00  0.00    +0.144 HD
ATOM     42  H   UNL     1       2.208  -7.586   9.157  0.00  0.00    +0.144 HD
ENDBRANCH   9  40
TORSDOF 8
