REMARK  Name = CHEMBL350710
REMARK  20 active torsions:
REMARK  status: ('A' for Active; 'I' for Inactive)
REMARK    1  A    between atoms: C_1  and  C_2
REMARK    2  A    between atoms: C_2  and  C_4
REMARK    3  A    between atoms: C_2  and  N_13
REMARK    4  A    between atoms: C_7  and  C_10
REMARK    5  A    between atoms: C_10  and  C_11
REMARK    6  A    between atoms: C_10  and  C_12
REMARK    7  A    between atoms: C_14  and  C_16
REMARK    8  A    between atoms: C_16  and  C_18
REMARK    9  A    between atoms: C_16  and  N_22
REMARK   10  A    between atoms: C_18  and  C_19
REMARK   11  A    between atoms: C_19  and  C_20
REMARK   12  A    between atoms: C_19  and  C_21
REMARK   13  A    between atoms: C_23  and  C_25
REMARK   14  A    between atoms: C_25  and  C_27
REMARK   15  A    between atoms: C_25  and  N_39
REMARK   16  A    between atoms: C_27  and  C_28
REMARK   17  A    between atoms: C_31  and  O_34
REMARK   18  A    between atoms: O_34  and  P_35
REMARK   19  A    between atoms: P_35  and  O_38
REMARK   20  A    between atoms: C_40  and  C_42
REMARK                            x       y       z     vdW  Elec       q    Type
REMARK                         _______ _______ _______ _____ _____    ______ ____
ROOT
ATOM      1  N   UNL     1      -3.766  -1.373  -2.603  0.00  0.00    -0.302 N 
ATOM      2  C   UNL     1      -5.008  -1.701  -3.012  0.00  0.00    +0.234 C 
ATOM      3  O   UNL     1      -5.917  -1.749  -2.211  0.00  0.00    -0.274 OA
ATOM      4  H   UNL     1      -3.054  -1.266  -3.253  0.00  0.00    +0.150 HD
ENDROOT
BRANCH   1   5
ATOM      5  C   UNL     1      -3.492  -1.179  -1.177  0.00  0.00    +0.159 C 
BRANCH   5   7
ATOM      6  N   UNL     1      -1.949   0.188   0.191  0.00  0.00    -0.307 N 
ATOM      7  C   UNL     1      -2.255  -0.334  -1.014  0.00  0.00    +0.234 C 
ATOM      8  O   UNL     1      -1.535  -0.122  -1.967  0.00  0.00    -0.274 OA
ATOM      9  H   UNL     1      -2.549   0.058   0.942  0.00  0.00    +0.149 HD
BRANCH   6  11
ATOM     10  C   UNL     1      -0.946   2.406  -0.041  0.00  0.00    +0.033 C 
ATOM     11  C   UNL     1      -0.711   0.950   0.366  0.00  0.00    +0.100 C 
BRANCH  11  12
ATOM     12  C   UNL     1      -0.286   0.895   1.811  0.00  0.00    -0.027 A 
ATOM     13  C   UNL     1      -1.235   0.980   2.813  0.00  0.00    +0.006 A 
ATOM     14  C   UNL     1      -0.846   0.929   4.139  0.00  0.00    +0.004 A 
ATOM     15  C   UNL     1       0.491   0.793   4.462  0.00  0.00    -0.045 A 
ATOM     16  C   UNL     1       1.439   0.707   3.460  0.00  0.00    +0.004 A 
ATOM     17  C   UNL     1       1.050   0.753   2.134  0.00  0.00    +0.006 A 
BRANCH  15  18
ATOM     18  C   UNL     1       0.915   0.738   5.907  0.00  0.00    +0.013 C 
ATOM     19  C   UNL     1       1.623  -0.590   6.181  0.00  0.00    +0.012 C 
ATOM     20  C   UNL     1       1.871   1.896   6.202  0.00  0.00    +0.012 C 
ENDBRANCH  15  18
ENDBRANCH  11  12
ENDBRANCH   6  11
ENDBRANCH   5   7
BRANCH   5  21
ATOM     21  C   UNL     1      -3.272  -2.538  -0.510  0.00  0.00    +0.034 C 
BRANCH  21  22
ATOM     22  C   UNL     1      -3.021  -2.337   0.986  0.00  0.00    -0.015 C 
ATOM     23  C   UNL     1      -4.288  -1.792   1.647  0.00  0.00    +0.007 C 
ATOM     24  C   UNL     1      -2.648  -3.677   1.624  0.00  0.00    +0.007 C 
ENDBRANCH  21  22
ENDBRANCH   5  21
ENDBRANCH   1   5
BRANCH   2  25
ATOM     25  C   UNL     1      -5.266  -2.009  -4.465  0.00  0.00    +0.163 C 
BRANCH  25  26
ATOM     26  N   UNL     1      -6.507  -2.777  -4.588  0.00  0.00    -0.304 N 
ATOM     27  C   UNL     1      -7.670  -2.251  -4.155  0.00  0.00    +0.211 C 
ATOM     28  O   UNL     1      -7.689  -1.143  -3.663  0.00  0.00    -0.276 OA
ATOM     29  C   UNL     1      -8.948  -3.041  -4.282  0.00  0.00    +0.109 C 
ATOM     30  H   UNL     1      -6.492  -3.664  -4.981  0.00  0.00    +0.149 HD
ENDBRANCH  25  26
BRANCH  25  31
ATOM     31  C   UNL     1      -5.395  -0.702  -5.248  0.00  0.00    +0.067 C 
BRANCH  31  32
ATOM     32  C   UNL     1      -5.530  -1.008  -6.717  0.00  0.00    -0.045 A 
ATOM     33  C   UNL     1      -4.400  -1.107  -7.508  0.00  0.00    +0.007 A 
ATOM     34  C   UNL     1      -4.522  -1.387  -8.856  0.00  0.00    +0.046 A 
ATOM     35  C   UNL     1      -5.778  -1.569  -9.415  0.00  0.00    +0.132 A 
ATOM     36  C   UNL     1      -6.910  -1.469  -8.619  0.00  0.00    +0.046 A 
ATOM     37  C   UNL     1      -6.783  -1.194  -7.271  0.00  0.00    +0.007 A 
BRANCH  35  38
ATOM     38  O   UNL     1      -5.900  -1.844 -10.740  0.00  0.00    -0.403 OA
BRANCH  38  39
ATOM     39  P   UNL     1      -5.881  -3.416 -11.087  0.00  0.00    +0.558 P 
ATOM     40  O   UNL     1      -4.601  -4.056 -10.504  0.00  0.00    -0.213 OA
ATOM     41  O   UNL     1      -7.124  -4.095 -10.470  0.00  0.00    -0.106 OA
BRANCH  39  42
ATOM     42  O   UNL     1      -5.900  -3.614 -12.685  0.00  0.00    -0.291 OA
ATOM     43  H   UNL     1      -5.889  -4.538 -12.967  0.00  0.00    +0.223 HD
ENDBRANCH  39  42
ENDBRANCH  38  39
ENDBRANCH  35  38
ENDBRANCH  31  32
ENDBRANCH  25  31
ENDBRANCH   2  25
TORSDOF 14
