REMARK  Name = CHEMBL220643
REMARK  5 active torsions:
REMARK  status: ('A' for Active; 'I' for Inactive)
REMARK    1  A    between atoms: C_1  and  C_2
REMARK    2  A    between atoms: C_5  and  O_31
REMARK    3  A    between atoms: C_7  and  N_8
REMARK    4  A    between atoms: C_11  and  N_24
REMARK    5  A    between atoms: N_27  and  C_30
REMARK                            x       y       z     vdW  Elec       q    Type
REMARK                         _______ _______ _______ _____ _____    ______ ____
ROOT
ATOM      1  N   UNL     1       0.039  -0.013   2.417  0.00  0.00    -0.299 N 
ATOM      2  C   UNL     1      -0.052  -0.711   3.612  0.00  0.00    +0.130 A 
ATOM      3  C   UNL     1      -0.028  -2.103   3.619  0.00  0.00    +0.087 A 
ATOM      4  C   UNL     1      -0.121  -2.760   4.843  0.00  0.00    +0.128 A 
ATOM      5  N   UNL     1      -0.231  -2.041   5.957  0.00  0.00    -0.197 NA
ATOM      6  C   UNL     1      -0.251  -0.719   5.912  0.00  0.00    +0.240 A 
ATOM      7  N   UNL     1      -0.159  -0.060   4.768  0.00  0.00    -0.197 NA
ATOM      8  N   UNL     1      -0.367  -0.002   7.100  0.00  0.00    -0.267 N 
ATOM      9  C   UNL     1      -0.461  -0.526   8.356  0.00  0.00    +0.207 A 
ATOM     10  N   UNL     1      -0.556   0.430   9.232  0.00  0.00    -0.235 NA
ATOM     11  C   UNL     1      -0.531   1.634   8.602  0.00  0.00    +0.089 A 
ATOM     12  C   UNL     1      -0.403   1.376   7.227  0.00  0.00    +0.076 A 
ATOM     13  C   UNL     1      -0.344   2.429   6.327  0.00  0.00    +0.028 A 
ATOM     14  C   UNL     1      -0.407   3.728   6.786  0.00  0.00    +0.002 A 
ATOM     15  C   UNL     1      -0.530   3.989   8.143  0.00  0.00    +0.002 A 
ATOM     16  C   UNL     1      -0.598   2.956   9.050  0.00  0.00    +0.030 A 
ATOM     17  H   UNL     1       0.099   0.956   2.425  0.00  0.00    +0.154 HD
ENDROOT
BRANCH   4  18
ATOM     18  N   UNL     1      -0.102  -4.145   4.899  0.00  0.00    -0.319 N 
ATOM     19  C   UNL     1      -0.415  -4.856   6.149  0.00  0.00    +0.088 C 
ATOM     20  C   UNL     1      -1.468  -5.928   5.847  0.00  0.00    -0.060 C 
ATOM     21  N   UNL     1      -0.988  -6.793   4.762  0.00  0.00    +0.380 N 
ATOM     22  C   UNL     1      -0.851  -6.014   3.525  0.00  0.00    -0.060 C 
ATOM     23  C   UNL     1       0.227  -4.946   3.710  0.00  0.00    +0.088 C 
ATOM     24  C   UNL     1      -1.946  -7.885   4.548  0.00  0.00    -0.096 C 
ATOM     25  H   UNL     1      -0.091  -7.180   5.015  0.00  0.00    -0.082 HD
ENDBRANCH   4  18
BRANCH   1  32
ATOM     26  C   UNL     1      -2.415  -1.104   1.483  0.00  0.00    +0.045 C 
ATOM     27  C   UNL     1      -1.131  -1.254   0.709  0.00  0.00    -0.029 A 
ATOM     28  C   UNL     1      -1.125  -1.932  -0.495  0.00  0.00    +0.009 A 
ATOM     29  C   UNL     1       0.051  -2.071  -1.208  0.00  0.00    +0.046 A 
ATOM     30  C   UNL     1       1.230  -1.528  -0.717  0.00  0.00    +0.119 A 
ATOM     31  C   UNL     1       1.229  -0.847   0.490  0.00  0.00    +0.069 A 
ATOM     32  C   UNL     1       0.046  -0.704   1.202  0.00  0.00    +0.039 A 
BRANCH  30  33
ATOM     33  O   UNL     1       2.385  -1.665  -1.419  0.00  0.00    -0.507 OA
ATOM     34  H   UNL     1       2.550  -0.950  -2.049  0.00  0.00    +0.292 HD
ENDBRANCH  30  33
ENDBRANCH   1  32
TORSDOF 3
