REMARK  Name = CHEMBL1079945
REMARK  6 active torsions:
REMARK  status: ('A' for Active; 'I' for Inactive)
REMARK    1  A    between atoms: C_1  and  C_2
REMARK    2  A    between atoms: C_5  and  N_25
REMARK    3  A    between atoms: C_7  and  N_8
REMARK    4  A    between atoms: C_20  and  N_24
REMARK    5  A    between atoms: C_26  and  C_28
REMARK    6  A    between atoms: C_32  and  C_34
REMARK                            x       y       z     vdW  Elec       q    Type
REMARK                         _______ _______ _______ _____ _____    ______ ____
ROOT
ATOM      1  C   UNL     1       3.285  -0.110   0.332  0.00  0.00    +0.045 C 
ATOM      2  C   UNL     1       1.895  -0.588   0.001  0.00  0.00    -0.029 A 
ATOM      3  C   UNL     1       1.611  -1.061  -1.266  0.00  0.00    +0.007 A 
ATOM      4  C   UNL     1       0.338  -1.499  -1.574  0.00  0.00    +0.024 A 
ATOM      5  C   UNL     1      -0.662  -1.466  -0.609  0.00  0.00    +0.035 A 
ATOM      6  C   UNL     1      -0.381  -0.992   0.664  0.00  0.00    +0.047 A 
ATOM      7  C   UNL     1       0.901  -0.558   0.972  0.00  0.00    +0.038 A 
ENDROOT
BRANCH   7   8
ATOM      8  N   UNL     1       1.191  -0.085   2.255  0.00  0.00    -0.286 N 
ATOM      9  C   UNL     1       0.957  -0.886   3.354  0.00  0.00    +0.184 A 
ATOM     10  N   UNL     1       0.968  -2.195   3.347  0.00  0.00    -0.327 N 
ATOM     11  C   UNL     1       0.700  -2.662   4.596  0.00  0.00    +0.066 A 
ATOM     12  C   UNL     1       0.591  -3.946   5.136  0.00  0.00    +0.028 A 
ATOM     13  C   UNL     1       0.301  -4.102   6.473  0.00  0.00    +0.002 A 
ATOM     14  C   UNL     1       0.116  -2.995   7.288  0.00  0.00    +0.002 A 
ATOM     15  C   UNL     1       0.219  -1.721   6.769  0.00  0.00    +0.028 A 
ATOM     16  C   UNL     1       0.512  -1.545   5.425  0.00  0.00    +0.074 A 
ATOM     17  N   UNL     1       0.685  -0.430   4.617  0.00  0.00    -0.266 N 
ATOM     18  C   UNL     1       0.595   0.902   5.014  0.00  0.00    +0.145 A 
ATOM     19  C   UNL     1       0.437   1.910   4.070  0.00  0.00    +0.090 A 
ATOM     20  C   UNL     1       0.352   3.226   4.518  0.00  0.00    +0.121 A 
ATOM     21  N   UNL     1       0.424   3.470   5.825  0.00  0.00    -0.221 NA
ATOM     22  C   UNL     1       0.574   2.485   6.688  0.00  0.00    +0.225 A 
ATOM     23  N   UNL     1       0.653   1.228   6.303  0.00  0.00    -0.218 NA
ATOM     24  H   UNL     1       1.556   0.806   2.373  0.00  0.00    +0.155 HD
ATOM     25  H   UNL     1       1.141  -2.748   2.570  0.00  0.00    +0.169 HD
BRANCH  20  26
ATOM     26  N   UNL     1       0.195   4.267   3.616  0.00  0.00    -0.343 N 
ATOM     27  H   UNL     1       0.144   4.082   2.665  0.00  0.00    +0.144 HD
ATOM     28  H   UNL     1       0.137   5.181   3.936  0.00  0.00    +0.144 HD
ENDBRANCH  20  26
ENDBRANCH   7   8
BRANCH   5  29
ATOM     29  N   UNL     1      -1.951  -1.909  -0.922  0.00  0.00    -0.281 N 
ATOM     30  C   UNL     1      -2.124  -2.898  -1.821  0.00  0.00    +0.248 C 
ATOM     31  O   UNL     1      -1.165  -3.524  -2.228  0.00  0.00    -0.270 OA
ATOM     32  H   UNL     1      -2.721  -1.504  -0.492  0.00  0.00    +0.155 HD
BRANCH  30  33
ATOM     33  C   UNL     1      -3.481  -3.223  -2.311  0.00  0.00    +0.038 A 
ATOM     34  C   UNL     1      -4.584  -2.502  -1.850  0.00  0.00    +0.013 A 
ATOM     35  C   UNL     1      -5.847  -2.809  -2.312  0.00  0.00    +0.001 A 
ATOM     36  C   UNL     1      -6.021  -3.829  -3.230  0.00  0.00    +0.012 A 
ATOM     37  C   UNL     1      -4.933  -4.548  -3.691  0.00  0.00    +0.056 A 
ATOM     38  C   UNL     1      -3.663  -4.247  -3.242  0.00  0.00    +0.025 A 
BRANCH  37  39
ATOM     39  C   UNL     1      -5.132  -5.657  -4.691  0.00  0.00    +0.417 C 
ATOM     40  F   UNL     1      -6.493  -5.769  -4.998  0.00  0.00    -0.166 F 
ATOM     41  F   UNL     1      -4.414  -5.369  -5.857  0.00  0.00    -0.166 F 
ATOM     42  F   UNL     1      -4.676  -6.862  -4.148  0.00  0.00    -0.166 F 
ENDBRANCH  37  39
ENDBRANCH  30  33
ENDBRANCH   5  29
TORSDOF 5
