REMARK  Name = CHEMBL426438
REMARK  4 active torsions:
REMARK  status: ('A' for Active; 'I' for Inactive)
REMARK    1  A    between atoms: C_1  and  C_2
REMARK    2  A    between atoms: C_7  and  N_8
REMARK    3  A    between atoms: C_17  and  C_18
REMARK    4  A    between atoms: N_19  and  C_22
REMARK                            x       y       z     vdW  Elec       q    Type
REMARK                         _______ _______ _______ _____ _____    ______ ____
ROOT
ATOM      1  N   UNL     1       0.340   0.487   1.867  0.00  0.00    -0.229 NA
ATOM      2  C   UNL     1      -0.767   0.738   2.532  0.00  0.00    +0.146 C 
ATOM      3  N   UNL     1      -2.058   0.506   2.035  0.00  0.00    -0.303 N 
ATOM      4  C   UNL     1      -3.055   1.559   2.130  0.00  0.00    +0.233 C 
ATOM      5  C   UNL     1      -3.042   2.357   3.435  0.00  0.00    +0.220 C 
ATOM      6  N   UNL     1      -1.917   2.035   4.301  0.00  0.00    -0.302 N 
ATOM      7  C   UNL     1      -0.810   1.294   3.898  0.00  0.00    +0.103 A 
ATOM      8  C   UNL     1       0.048   1.244   4.931  0.00  0.00    +0.142 A 
ATOM      9  N   UNL     1      -0.525   1.893   5.955  0.00  0.00    -0.240 NA
ATOM     10  C   UNL     1      -1.698   2.364   5.582  0.00  0.00    +0.109 A 
ATOM     11  C   UNL     1      -2.650   3.136   6.459  0.00  0.00    +0.086 C 
ATOM     12  N   UNL     1      -2.905   3.752   2.968  0.00  0.00    -0.301 N 
ATOM     13  C   UNL     1      -2.784   3.736   1.610  0.00  0.00    +0.182 C 
ATOM     14  N   UNL     1      -2.853   2.568   1.083  0.00  0.00    -0.250 NA
ATOM     15  C   UNL     1      -2.899   4.946   3.818  0.00  0.00    +0.132 C 
ATOM     16  H   UNL     1      -2.282  -0.348   1.633  0.00  0.00    +0.150 HD
ENDROOT
BRANCH   1  23
ATOM     17  C   UNL     1       0.237   2.317  -0.304  0.00  0.00    +0.046 C 
ATOM     18  C   UNL     1       0.223   0.823  -0.502  0.00  0.00    -0.024 A 
ATOM     19  C   UNL     1       0.164   0.295  -1.775  0.00  0.00    +0.005 A 
ATOM     20  C   UNL     1       0.152  -1.076  -1.960  0.00  0.00    +0.002 A 
ATOM     21  C   UNL     1       0.199  -1.928  -0.870  0.00  0.00    +0.022 A 
ATOM     22  C   UNL     1       0.258  -1.415   0.409  0.00  0.00    +0.067 A 
ATOM     23  C   UNL     1       0.276  -0.030   0.603  0.00  0.00    +0.087 A 
ATOM     24 CL   UNL     1       0.316  -2.485   1.775  0.00  0.00    -0.081 Cl
ENDBRANCH   1  23
TORSDOF 1
