REMARK  Name = CHEMBL360810
REMARK  4 active torsions:
REMARK  status: ('A' for Active; 'I' for Inactive)
REMARK    1  A    between atoms: C_1  and  C_2
REMARK    2  A    between atoms: C_7  and  N_8
REMARK    3  A    between atoms: C_9  and  C_11
REMARK    4  A    between atoms: N_16  and  C_17
REMARK                            x       y       z     vdW  Elec       q    Type
REMARK                         _______ _______ _______ _____ _____    ______ ____
ROOT
ATOM      1  C   UNL     1      -0.446   0.106   4.801  0.00  0.00    +0.095 A 
ATOM      2  C   UNL     1      -0.825  -0.326   6.065  0.00  0.00    +0.133 A 
ATOM      3  N   UNL     1      -0.834   0.579   7.011  0.00  0.00    -0.232 NA
ATOM      4  C   UNL     1      -0.499   1.833   6.768  0.00  0.00    +0.163 A 
ATOM      5  S   UNL     1      -0.125   1.832   5.128  0.00  0.00    -0.048 S 
ATOM      6  N   UNL     1      -0.459   2.893   7.652  0.00  0.00    -0.294 N 
ATOM      7  H   UNL     1      -0.277   3.788   7.328  0.00  0.00    +0.154 HD
ENDROOT
BRANCH   6   8
ATOM      8  C   UNL     1      -0.682   2.675   9.010  0.00  0.00    +0.035 A 
ATOM      9  C   UNL     1      -0.434   1.430   9.586  0.00  0.00    +0.041 A 
ATOM     10  C   UNL     1      -0.668   1.256  10.934  0.00  0.00    +0.084 A 
ATOM     11  N   UNL     1      -1.120   2.249  11.676  0.00  0.00    -0.367 N 
ATOM     12  C   UNL     1      -1.367   3.442  11.169  0.00  0.00    +0.084 A 
ATOM     13  C   UNL     1      -1.154   3.700   9.831  0.00  0.00    +0.041 A 
ATOM     14  H   UNL     1      -1.275   2.098  12.621  0.00  0.00    +0.165 HD
ENDBRANCH   6   8
BRANCH   1  16
ATOM     15  N   UNL     1       0.064  -0.022   2.425  0.00  0.00    -0.280 N 
ATOM     16  C   UNL     1      -0.334  -0.645   3.552  0.00  0.00    +0.256 C 
ATOM     17  O   UNL     1      -0.600  -1.833   3.530  0.00  0.00    -0.269 OA
ATOM     18  H   UNL     1       0.353   0.903   2.458  0.00  0.00    +0.155 HD
BRANCH  15  25
ATOM     19  C   UNL     1      -1.277   1.166   0.215  0.00  0.00    +0.046 C 
ATOM     20  C   UNL     1      -0.583  -0.167   0.103  0.00  0.00    -0.028 A 
ATOM     21  C   UNL     1      -0.580  -0.846  -1.100  0.00  0.00    +0.005 A 
ATOM     22  C   UNL     1       0.057  -2.069  -1.205  0.00  0.00    +0.002 A 
ATOM     23  C   UNL     1       0.693  -2.617  -0.106  0.00  0.00    +0.022 A 
ATOM     24  C   UNL     1       0.694  -1.943   1.101  0.00  0.00    +0.062 A 
ATOM     25  C   UNL     1       0.060  -0.711   1.207  0.00  0.00    +0.055 A 
ATOM     26 CL   UNL     1       1.493  -2.631   2.480  0.00  0.00    -0.082 Cl
ENDBRANCH  15  25
ENDBRANCH   1  16
TORSDOF 3
