REMARK  Name = CHEMBL214495
REMARK  7 active torsions:
REMARK  status: ('A' for Active; 'I' for Inactive)
REMARK    1  A    between atoms: C_1  and  C_2
REMARK    2  A    between atoms: C_5  and  C_20
REMARK    3  A    between atoms: C_7  and  C_8
REMARK    4  A    between atoms: N_18  and  C_19
REMARK    5  A    between atoms: N_22  and  C_23
REMARK    6  A    between atoms: C_25  and  C_35
REMARK    7  A    between atoms: C_28  and  N_29
REMARK                            x       y       z     vdW  Elec       q    Type
REMARK                         _______ _______ _______ _____ _____    ______ ____
ROOT
ATOM      1  C   UNL     1       0.032   1.504   0.009  0.00  0.00    +0.044 C 
ATOM      2  C   UNL     1       0.040  -0.003   0.001  0.00  0.00    -0.043 A 
ATOM      3  C   UNL     1       0.040  -0.686  -1.200  0.00  0.00    +0.005 A 
ATOM      4  C   UNL     1       0.048  -2.066  -1.216  0.00  0.00    +0.013 A 
ATOM      5  C   UNL     1       0.055  -2.781  -0.016  0.00  0.00    +0.038 A 
ATOM      6  C   UNL     1       0.056  -2.096   1.198  0.00  0.00    +0.021 A 
ATOM      7  C   UNL     1       0.054  -0.705   1.206  0.00  0.00    -0.014 A 
ENDROOT
BRANCH   7   8
ATOM      8  C   UNL     1       0.060   0.031   2.494  0.00  0.00    -0.017 A 
ATOM      9  C   UNL     1       0.986   1.065   2.700  0.00  0.00    +0.010 A 
ATOM     10  C   UNL     1       1.014   1.756   3.870  0.00  0.00    +0.029 A 
ATOM     11  C   UNL     1       0.107   1.437   4.893  0.00  0.00    +0.076 A 
ATOM     12  C   UNL     1      -0.834   0.393   4.695  0.00  0.00    +0.019 A 
ATOM     13  C   UNL     1      -0.850  -0.304   3.480  0.00  0.00    +0.020 A 
ATOM     14  C   UNL     1      -1.732   0.094   5.737  0.00  0.00    +0.124 A 
ATOM     15  N   UNL     1      -1.660   0.796   6.848  0.00  0.00    -0.222 NA
ATOM     16  C   UNL     1      -0.765   1.770   7.000  0.00  0.00    +0.215 A 
ATOM     17  N   UNL     1       0.101   2.094   6.060  0.00  0.00    -0.215 NA
ATOM     18  N   UNL     1      -0.742   2.470   8.193  0.00  0.00    -0.317 N 
ATOM     19  C   UNL     1      -1.690   2.134   9.258  0.00  0.00    +0.128 C 
ATOM     20  H   UNL     1      -0.097   3.183   8.325  0.00  0.00    +0.149 HD
ENDBRANCH   7   8
BRANCH   5  21
ATOM     21  C   UNL     1       0.062  -4.259  -0.034  0.00  0.00    +0.248 C 
ATOM     22  O   UNL     1       0.069  -4.879   1.012  0.00  0.00    -0.270 OA
ATOM     23  N   UNL     1       0.061  -4.919  -1.209  0.00  0.00    -0.280 N 
ATOM     24  H   UNL     1      -0.025  -4.428  -2.041  0.00  0.00    +0.155 HD
BRANCH  23  25
ATOM     25  C   UNL     1       0.185  -6.314  -1.229  0.00  0.00    +0.055 A 
ATOM     26  C   UNL     1       0.804  -6.972  -0.176  0.00  0.00    +0.037 A 
ATOM     27  C   UNL     1       0.925  -8.349  -0.198  0.00  0.00    +0.057 A 
ATOM     28  C   UNL     1       0.431  -9.074  -1.267  0.00  0.00    +0.014 A 
ATOM     29  C   UNL     1      -0.188  -8.427  -2.320  0.00  0.00    +0.025 A 
ATOM     30  C   UNL     1      -0.319  -7.046  -2.304  0.00  0.00    +0.051 A 
BRANCH  30  31
ATOM     31  N   UNL     1      -0.950  -6.389  -3.365  0.00  0.00    -0.328 N 
ATOM     32  C   UNL     1      -0.178  -5.935  -4.530  0.00  0.00    +0.105 C 
ATOM     33  C   UNL     1      -0.825  -6.497  -5.800  0.00  0.00    +0.019 C 
ATOM     34  C   UNL     1      -2.303  -6.100  -5.833  0.00  0.00    +0.003 C 
ATOM     35  C   UNL     1      -3.020  -6.698  -4.620  0.00  0.00    +0.019 C 
ATOM     36  C   UNL     1      -2.399  -6.144  -3.340  0.00  0.00    +0.105 C 
ENDBRANCH  30  31
BRANCH  27  37
ATOM     37  C   UNL     1       1.599  -9.062   0.946  0.00  0.00    +0.417 C 
ATOM     38  F   UNL     1       0.646  -9.395   1.914  0.00  0.00    -0.166 F 
ATOM     39  F   UNL     1       2.211 -10.228   0.473  0.00  0.00    -0.166 F 
ATOM     40  F   UNL     1       2.567  -8.225   1.512  0.00  0.00    -0.166 F 
ENDBRANCH  27  37
ENDBRANCH  23  25
ENDBRANCH   5  21
TORSDOF 5
