REMARK  Name = CHEMBL1076197
REMARK  11 active torsions:
REMARK  status: ('A' for Active; 'I' for Inactive)
REMARK    1  A    between atoms: C_1  and  C_2
REMARK    2  A    between atoms: C_6  and  N_8
REMARK    3  A    between atoms: C_9  and  C_11
REMARK    4  A    between atoms: C_14  and  C_44
REMARK    5  A    between atoms: C_15  and  N_17
REMARK    6  A    between atoms: C_29  and  N_33
REMARK    7  A    between atoms: N_33  and  C_34
REMARK    8  A    between atoms: C_34  and  C_35
REMARK    9  A    between atoms: C_35  and  C_36
REMARK   10  A    between atoms: C_36  and  N_37
REMARK   11  A    between atoms: N_40  and  C_43
REMARK                            x       y       z     vdW  Elec       q    Type
REMARK                         _______ _______ _______ _____ _____    ______ ____
ROOT
ATOM      1  N   UNL     1       1.274  -8.803   4.584  0.00  0.00    -0.284 N 
ATOM      2  C   UNL     1       0.487  -9.261   3.547  0.00  0.00    +0.207 A 
ATOM      3  N   UNL     1       0.324  -8.652   2.400  0.00  0.00    -0.214 NA
ATOM      4  C   UNL     1      -0.512  -9.377   1.611  0.00  0.00    +0.091 A 
ATOM      5  C   UNL     1      -1.013  -9.192   0.320  0.00  0.00    +0.030 A 
ATOM      6  C   UNL     1      -1.866 -10.127  -0.224  0.00  0.00    +0.002 A 
ATOM      7  C   UNL     1      -2.233 -11.250   0.502  0.00  0.00    +0.002 A 
ATOM      8  C   UNL     1      -1.748 -11.447   1.778  0.00  0.00    +0.028 A 
ATOM      9  C   UNL     1      -0.887 -10.517   2.341  0.00  0.00    +0.077 A 
ATOM     10  N   UNL     1      -0.237 -10.424   3.563  0.00  0.00    -0.264 N 
ATOM     11  C   UNL     1      -0.309 -11.340   4.611  0.00  0.00    +0.145 A 
ATOM     12  C   UNL     1      -0.537 -10.906   5.911  0.00  0.00    +0.090 A 
ATOM     13  C   UNL     1      -0.601 -11.861   6.923  0.00  0.00    +0.124 A 
ATOM     14  N   UNL     1      -0.442 -13.145   6.610  0.00  0.00    -0.221 NA
ATOM     15  C   UNL     1      -0.227 -13.515   5.364  0.00  0.00    +0.225 A 
ATOM     16  N   UNL     1      -0.165 -12.642   4.379  0.00  0.00    -0.218 NA
ATOM     17  H   UNL     1       1.412  -9.355   5.369  0.00  0.00    +0.155 HD
ENDROOT
BRANCH   1  22
ATOM     18  C   UNL     1       2.031  -5.368   3.483  0.00  0.00    +0.039 A 
ATOM     19  C   UNL     1       3.071  -5.041   4.356  0.00  0.00    +0.013 A 
ATOM     20  C   UNL     1       3.502  -5.960   5.291  0.00  0.00    +0.006 A 
ATOM     21  C   UNL     1       2.907  -7.206   5.368  0.00  0.00    -0.029 A 
ATOM     22  C   UNL     1       1.871  -7.541   4.503  0.00  0.00    +0.037 A 
ATOM     23  C   UNL     1       1.428  -6.622   3.564  0.00  0.00    +0.036 A 
ATOM     24  C   UNL     1       3.383  -8.204   6.391  0.00  0.00    +0.045 C 
BRANCH  18  26
ATOM     25  N   UNL     1       2.154  -3.174   2.404  0.00  0.00    -0.281 N 
ATOM     26  C   UNL     1       1.569  -4.385   2.481  0.00  0.00    +0.248 C 
ATOM     27  O   UNL     1       0.660  -4.670   1.725  0.00  0.00    -0.270 OA
ATOM     28  H   UNL     1       2.928  -2.973   2.954  0.00  0.00    +0.155 HD
BRANCH  25  34
ATOM     29  C   UNL     1       2.941   0.539  -0.721  0.00  0.00    +0.044 C 
ATOM     30  C   UNL     1       2.004  -0.392   0.005  0.00  0.00    -0.049 A 
ATOM     31  C   UNL     1       0.638  -0.287  -0.189  0.00  0.00    +0.003 A 
ATOM     32  C   UNL     1      -0.225  -1.139   0.476  0.00  0.00    +0.002 A 
ATOM     33  C   UNL     1       0.275  -2.097   1.336  0.00  0.00    +0.023 A 
ATOM     34  C   UNL     1       1.645  -2.205   1.533  0.00  0.00    +0.034 A 
ATOM     35  C   UNL     1       2.510  -1.351   0.860  0.00  0.00    +0.026 A 
ENDBRANCH  25  34
ENDBRANCH  18  26
ENDBRANCH   1  22
BRANCH  13  36
ATOM     36  N   UNL     1      -0.827 -11.480   8.236  0.00  0.00    -0.329 N 
ATOM     37  H   UNL     1      -0.870 -12.151   8.936  0.00  0.00    +0.147 HD
BRANCH  36  38
ATOM     38  C   UNL     1      -1.000 -10.064   8.569  0.00  0.00    +0.101 C 
BRANCH  38  39
ATOM     39  C   UNL     1      -1.232  -9.918  10.074  0.00  0.00    +0.000 C 
BRANCH  39  40
ATOM     40  C   UNL     1      -1.413  -8.439  10.421  0.00  0.00    -0.077 C 
BRANCH  40  41
ATOM     41  N   UNL     1      -1.636  -8.299  11.866  0.00  0.00    +0.381 N 
ATOM     42  C   UNL     1      -2.905  -8.943  12.230  0.00  0.00    -0.063 C 
ATOM     43  C   UNL     1      -3.129  -8.813  13.738  0.00  0.00    +0.065 C 
ATOM     44  N   UNL     1      -3.159  -7.391  14.106  0.00  0.00    -0.309 NA
ATOM     45  C   UNL     1      -1.904  -6.727  13.725  0.00  0.00    +0.065 C 
ATOM     46  C   UNL     1      -1.690  -6.873  12.217  0.00  0.00    -0.063 C 
ATOM     47  C   UNL     1      -3.429  -7.223  15.540  0.00  0.00    +0.104 C 
ATOM     48  H   UNL     1      -0.880  -8.740  12.368  0.00  0.00    -0.082 HD
ENDBRANCH  40  41
ENDBRANCH  39  40
ENDBRANCH  38  39
ENDBRANCH  36  38
ENDBRANCH  13  36
TORSDOF 8
