REMARK  Name = CHEMBL456463
REMARK  5 active torsions:
REMARK  status: ('A' for Active; 'I' for Inactive)
REMARK    1  A    between atoms: C_1  and  N_2
REMARK    2  A    between atoms: C_7  and  C_9
REMARK    3  A    between atoms: C_14  and  O_15
REMARK    4  A    between atoms: O_15  and  C_16
REMARK    5  A    between atoms: C_19  and  N_26
REMARK                            x       y       z     vdW  Elec       q    Type
REMARK                         _______ _______ _______ _____ _____    ______ ____
ROOT
ATOM      1  C   UNL     1      -0.951  -5.392   0.534  0.00  0.00    +0.138 A 
ATOM      2  C   UNL     1      -0.435  -6.640   0.797  0.00  0.00    +0.049 A 
ATOM      3  C   UNL     1      -0.833  -7.354   1.923  0.00  0.00    +0.027 A 
ATOM      4  C   UNL     1      -1.755  -6.829   2.803  0.00  0.00    +0.043 A 
ATOM      5  C   UNL     1      -2.302  -5.552   2.560  0.00  0.00    +0.007 A 
ATOM      6  C   UNL     1      -1.891  -4.824   1.417  0.00  0.00    +0.026 A 
ATOM      7  C   UNL     1      -2.434  -3.550   1.180  0.00  0.00    +0.012 A 
ATOM      8  C   UNL     1      -3.340  -3.030   2.053  0.00  0.00    +0.001 A 
ATOM      9  C   UNL     1      -3.740  -3.744   3.181  0.00  0.00    +0.001 A 
ATOM     10  C   UNL     1      -3.244  -4.987   3.435  0.00  0.00    +0.010 A 
ENDROOT
BRANCH   4  11
ATOM     11  N   UNL     1      -2.145  -7.559   3.929  0.00  0.00    -0.268 N 
ATOM     12  C   UNL     1      -1.480  -8.717   4.263  0.00  0.00    +0.293 A 
ATOM     13  N   UNL     1      -0.393  -9.153   3.680  0.00  0.00    -0.195 NA
ATOM     14  C   UNL     1      -0.019 -10.322   4.269  0.00  0.00    +0.111 A 
ATOM     15  C   UNL     1       1.036 -11.211   4.063  0.00  0.00    +0.031 A 
ATOM     16  C   UNL     1       1.142 -12.339   4.847  0.00  0.00    +0.002 A 
ATOM     17  C   UNL     1       0.207 -12.596   5.838  0.00  0.00    +0.004 A 
ATOM     18  C   UNL     1      -0.842 -11.725   6.052  0.00  0.00    +0.048 A 
ATOM     19  C   UNL     1      -0.964 -10.585   5.274  0.00  0.00    +0.157 A 
ATOM     20  O   UNL     1      -1.850  -9.563   5.242  0.00  0.00    -0.424 OA
ATOM     21  H   UNL     1      -2.885  -7.249   4.475  0.00  0.00    +0.157 HD
ENDBRANCH   4  11
BRANCH   1  22
ATOM     22  O   UNL     1      -0.552  -4.707  -0.571  0.00  0.00    -0.437 OA
BRANCH  22  28
ATOM     23  C   UNL     1       0.801  -2.988  -1.518  0.00  0.00    +0.062 A 
ATOM     24  C   UNL     1       1.669  -1.912  -1.320  0.00  0.00    +0.017 A 
ATOM     25  C   UNL     1       1.998  -1.562  -0.021  0.00  0.00    +0.021 A 
ATOM     26  C   UNL     1       1.463  -2.281   1.032  0.00  0.00    +0.114 A 
ATOM     27  N   UNL     1       0.645  -3.294   0.821  0.00  0.00    -0.220 NA
ATOM     28  C   UNL     1       0.296  -3.664  -0.400  0.00  0.00    +0.230 A 
BRANCH  23  35
ATOM     29  C   UNL     1      -2.018  -6.297  -5.801  0.00  0.00    +0.128 C 
ATOM     30  N   UNL     1      -1.629  -5.866  -4.457  0.00  0.00    -0.317 N 
ATOM     31  C   UNL     1      -0.761  -4.799  -4.297  0.00  0.00    +0.215 A 
ATOM     32  N   UNL     1      -0.298  -4.176  -5.371  0.00  0.00    -0.223 NA
ATOM     33  C   UNL     1       0.533  -3.152  -5.260  0.00  0.00    +0.116 A 
ATOM     34  C   UNL     1       0.920  -2.728  -4.002  0.00  0.00    +0.048 A 
ATOM     35  C   UNL     1       0.416  -3.403  -2.887  0.00  0.00    +0.081 A 
ATOM     36  N   UNL     1      -0.420  -4.423  -3.074  0.00  0.00    -0.214 NA
ATOM     37  H   UNL     1      -1.978  -6.327  -3.679  0.00  0.00    +0.149 HD
ENDBRANCH  23  35
ENDBRANCH  22  28
ENDBRANCH   1  22
TORSDOF 4
