REMARK  Name = CHEMBL396359
REMARK  9 active torsions:
REMARK  status: ('A' for Active; 'I' for Inactive)
REMARK    1  A    between atoms: C_1  and  N_2
REMARK    2  A    between atoms: C_10  and  C_11
REMARK    3  A    between atoms: N_13  and  C_14
REMARK    4  A    between atoms: C_17  and  C_22
REMARK    5  A    between atoms: C_19  and  O_20
REMARK    6  A    between atoms: O_20  and  C_21
REMARK    7  A    between atoms: C_30  and  C_31
REMARK    8  A    between atoms: C_32  and  C_33
REMARK    9  A    between atoms: N_35  and  C_36
REMARK                            x       y       z     vdW  Elec       q    Type
REMARK                         _______ _______ _______ _____ _____    ______ ____
ROOT
ATOM      1  C   UNL     1      -0.094   3.345   7.861  0.00  0.00    -0.000 A 
ATOM      2  C   UNL     1       0.555   4.498   8.191  0.00  0.00    +0.054 A 
ATOM      3  S   UNL     1       0.330   4.588   9.957  0.00  0.00    -0.100 S 
ATOM      4  C   UNL     1      -0.546   3.200  10.203  0.00  0.00    +0.009 A 
ATOM      5  C   UNL     1      -0.711   2.632   8.960  0.00  0.00    +0.031 A 
ATOM      6  C   UNL     1      -1.471   1.351   8.879  0.00  0.00    +0.098 C 
ATOM      7  N   UNL     1      -2.177   0.993   9.914  0.00  0.00    -0.372 N 
ATOM      8  C   UNL     1      -2.355   1.803  11.110  0.00  0.00    +0.126 C 
ATOM      9  C   UNL     1      -1.087   2.598  11.464  0.00  0.00    +0.068 C 
ATOM     10  N   UNL     1      -1.429   0.571   7.743  0.00  0.00    -0.344 N 
ATOM     11  H   UNL     1      -0.766   0.748   7.057  0.00  0.00    +0.144 HD
ATOM     12  H   UNL     1      -2.062  -0.156   7.630  0.00  0.00    +0.144 HD
ATOM     13  H   UNL     1      -2.614   0.128   9.884  0.00  0.00    +0.161 HD
ENDROOT
BRANCH   1  17
ATOM     14  C   UNL     1      -0.316   1.943   3.848  0.00  0.00    +0.076 A 
ATOM     15  C   UNL     1      -1.477   2.107   4.592  0.00  0.00    +0.027 A 
ATOM     16  C   UNL     1      -1.407   2.562   5.892  0.00  0.00    +0.010 A 
ATOM     17  C   UNL     1      -0.169   2.857   6.463  0.00  0.00    -0.013 A 
ATOM     18  C   UNL     1       0.998   2.692   5.718  0.00  0.00    +0.056 A 
ATOM     19  C   UNL     1       0.924   2.231   4.416  0.00  0.00    +0.142 A 
BRANCH  14  22
ATOM     20  C   UNL     1      -1.385   0.650   2.160  0.00  0.00    +0.265 C 
ATOM     21  O   UNL     1      -2.250   0.344   2.960  0.00  0.00    -0.268 OA
ATOM     22  N   UNL     1      -0.391   1.481   2.528  0.00  0.00    -0.277 N 
ATOM     23  H   UNL     1       0.274   1.760   1.879  0.00  0.00    +0.155 HD
BRANCH  20  33
ATOM     24  C   UNL     1      -3.643  -1.096   0.984  0.00  0.00    +0.149 C 
ATOM     25  N   UNL     1      -2.438  -0.669   0.269  0.00  0.00    -0.339 N 
ATOM     26  C   UNL     1      -2.131  -0.975  -1.036  0.00  0.00    +0.049 A 
ATOM     27  C   UNL     1      -2.783  -1.712  -2.021  0.00  0.00    +0.026 A 
ATOM     28  C   UNL     1      -2.214  -1.845  -3.267  0.00  0.00    +0.002 A 
ATOM     29  C   UNL     1      -0.991  -1.249  -3.554  0.00  0.00    +0.001 A 
ATOM     30  C   UNL     1      -0.333  -0.522  -2.606  0.00  0.00    +0.010 A 
ATOM     31  C   UNL     1      -0.892  -0.372  -1.330  0.00  0.00    +0.001 A 
ATOM     32  C   UNL     1      -0.473   0.302  -0.157  0.00  0.00    +0.041 A 
ATOM     33  C   UNL     1      -1.426   0.113   0.792  0.00  0.00    +0.105 A 
ENDBRANCH  20  33
ENDBRANCH  14  22
BRANCH  19  34
ATOM     34  O   UNL     1       2.061   2.064   3.688  0.00  0.00    -0.493 OA
ATOM     35  C   UNL     1       3.296   2.379   4.333  0.00  0.00    +0.277 C 
ENDBRANCH  19  34
ENDBRANCH   1  17
BRANCH   9  36
ATOM     36  C   UNL     1      -0.054   1.689  12.077  0.00  0.00    -0.011 C 
ATOM     37  C   UNL     1       0.404   1.934  13.302  0.00  0.00    +0.063 C 
BRANCH  37  38
ATOM     38  C   UNL     1       1.413   1.047  13.901  0.00  0.00    +0.237 C 
ATOM     39  O   UNL     1       1.828   0.089  13.276  0.00  0.00    -0.271 OA
ATOM     40  N   UNL     1       1.878   1.295  15.141  0.00  0.00    -0.309 N 
ATOM     41  H   UNL     1       1.547   2.059  15.639  0.00  0.00    +0.149 HD
BRANCH  40  42
ATOM     42  C   UNL     1       2.882   0.411  15.738  0.00  0.00    +0.070 C 
ATOM     43  C   UNL     1       2.186  -0.778  16.405  0.00  0.00    +0.003 C 
ATOM     44  C   UNL     1       3.234  -1.655  17.094  0.00  0.00    -0.081 C 
ATOM     45  N   UNL     1       3.944  -0.868  18.110  0.00  0.00    +0.379 N 
ATOM     46  C   UNL     1       4.673   0.233  17.468  0.00  0.00    -0.081 C 
ATOM     47  C   UNL     1       3.680   1.182  16.794  0.00  0.00    +0.003 C 
ATOM     48  H   UNL     1       3.278  -0.491  18.768  0.00  0.00    -0.086 HD
ATOM     49  H   UNL     1       4.597  -1.462  18.599  0.00  0.00    -0.086 HD
ENDBRANCH  40  42
ENDBRANCH  37  38
ENDBRANCH   9  36
TORSDOF 7
