REMARK  Name = CHEMBL337689
REMARK  4 active torsions:
REMARK  status: ('A' for Active; 'I' for Inactive)
REMARK    1  A    between atoms: C_1  and  O_2
REMARK    2  A    between atoms: O_2  and  C_3
REMARK    3  A    between atoms: C_4  and  C_20
REMARK    4  A    between atoms: C_5  and  O_19
REMARK                            x       y       z     vdW  Elec       q    Type
REMARK                         _______ _______ _______ _____ _____    ______ ____
ROOT
ATOM      1  C   UNL     1      -1.230  -0.544  -0.020  0.00  0.00    +0.122 C 
ATOM      2  C   UNL     1      -2.343   0.249  -0.100  0.00  0.00    +0.093 C 
ATOM      3  C   UNL     1      -3.681  -0.387  -0.170  0.00  0.00    +0.127 C 
ATOM      4  C   UNL     1      -3.844  -1.632   0.292  0.00  0.00    +0.032 C 
ATOM      5  C   UNL     1      -2.659  -2.356   0.863  0.00  0.00    +0.104 C 
ATOM      6  C   UNL     1      -1.419  -2.036   0.009  0.00  0.00    +0.141 C 
ATOM      7  C   UNL     1      -0.231  -2.727   0.635  0.00  0.00    +0.175 C 
ATOM      8  O   UNL     1       0.811  -2.138   0.828  0.00  0.00    -0.291 OA
ATOM      9  C   UNL     1      -0.387  -4.151   1.003  0.00  0.00    +0.029 A 
ATOM     10  C   UNL     1       0.725  -4.944   1.262  0.00  0.00    +0.012 A 
ATOM     11  C   UNL     1       0.554  -6.276   1.598  0.00  0.00    +0.001 A 
ATOM     12  C   UNL     1      -0.714  -6.825   1.677  0.00  0.00    +0.001 A 
ATOM     13  C   UNL     1      -1.833  -6.050   1.427  0.00  0.00    +0.012 A 
ATOM     14  C   UNL     1      -1.682  -4.709   1.092  0.00  0.00    +0.029 A 
ATOM     15  C   UNL     1      -2.864  -3.852   0.844  0.00  0.00    +0.172 C 
ATOM     16  O   UNL     1      -3.953  -4.336   0.621  0.00  0.00    -0.291 OA
ENDROOT
BRANCH   1  18
ATOM     17  C   UNL     1       0.847  -0.219  -1.106  0.00  0.00    +0.276 C 
ATOM     18  O   UNL     1       0.001  -0.004   0.025  0.00  0.00    -0.498 OA
ENDBRANCH   1  18
BRANCH   3  19
ATOM     19  O   UNL     1      -4.733   0.289  -0.701  0.00  0.00    -0.506 OA
ATOM     20  H   UNL     1      -4.515   1.180  -1.006  0.00  0.00    +0.292 HD
ENDBRANCH   3  19
BRANCH   2  21
ATOM     21  C   UNL     1      -2.219   1.660  -0.115  0.00  0.00    +0.265 C 
ATOM     22  O   UNL     1      -3.212   2.358  -0.083  0.00  0.00    -0.295 OA
ENDBRANCH   2  21
TORSDOF 3
