REMARK  Name = CHEMBL188993
REMARK  2 active torsions:
REMARK  status: ('A' for Active; 'I' for Inactive)
REMARK    1  A    between atoms: C_1  and  C_2
REMARK    2  A    between atoms: C_7  and  N_8
REMARK                            x       y       z     vdW  Elec       q    Type
REMARK                         _______ _______ _______ _____ _____    ______ ____
ROOT
ATOM      1  N   UNL     1       0.025  -0.015   2.416  0.00  0.00    -0.296 N 
ATOM      2  C   UNL     1      -0.364  -0.657   3.576  0.00  0.00    +0.149 A 
ATOM      3  C   UNL     1      -0.473   0.092   4.826  0.00  0.00    +0.106 A 
ATOM      4  C   UNL     1      -0.269   1.393   5.176  0.00  0.00    +0.142 A 
ATOM      5  N   UNL     1      -0.526   1.508   6.481  0.00  0.00    -0.243 NA
ATOM      6  C   UNL     1      -0.882   0.345   6.966  0.00  0.00    +0.204 A 
ATOM      7  N   UNL     1      -0.865  -0.567   5.979  0.00  0.00    -0.294 N 
ATOM      8  C   UNL     1      -1.141  -1.923   5.907  0.00  0.00    +0.076 A 
ATOM      9  C   UNL     1      -1.540  -2.640   7.029  0.00  0.00    +0.048 A 
ATOM     10  C   UNL     1      -1.803  -3.989   6.901  0.00  0.00    +0.113 A 
ATOM     11  N   UNL     1      -1.682  -4.601   5.737  0.00  0.00    -0.261 NA
ATOM     12  C   UNL     1      -1.309  -3.970   4.644  0.00  0.00    +0.140 A 
ATOM     13  C   UNL     1      -1.022  -2.601   4.681  0.00  0.00    +0.108 A 
ATOM     14  N   UNL     1      -0.643  -1.944   3.555  0.00  0.00    -0.227 NA
ATOM     15  H   UNL     1       0.228   0.933   2.432  0.00  0.00    +0.154 HD
ENDROOT
BRANCH   1  22
ATOM     16  C   UNL     1       2.527  -1.207   1.774  0.00  0.00    +0.046 C 
ATOM     17  C   UNL     1       1.329  -1.330   0.868  0.00  0.00    -0.028 A 
ATOM     18  C   UNL     1       1.425  -2.043  -0.312  0.00  0.00    +0.005 A 
ATOM     19  C   UNL     1       0.327  -2.156  -1.145  0.00  0.00    +0.002 A 
ATOM     20  C   UNL     1      -0.871  -1.558  -0.800  0.00  0.00    +0.022 A 
ATOM     21  C   UNL     1      -0.974  -0.843   0.378  0.00  0.00    +0.062 A 
ATOM     22  C   UNL     1       0.127  -0.732   1.220  0.00  0.00    +0.054 A 
ATOM     23 CL   UNL     1      -2.478  -0.091   0.810  0.00  0.00    -0.082 Cl
ENDBRANCH   1  22
TORSDOF 1
