REMARK  Name = CHEMBL301143
REMARK  6 active torsions:
REMARK  status: ('A' for Active; 'I' for Inactive)
REMARK    1  A    between atoms: C_1  and  N_2
REMARK    2  A    between atoms: N_2  and  S_3
REMARK    3  A    between atoms: S_3  and  C_6
REMARK    4  A    between atoms: C_13  and  C_14
REMARK    5  A    between atoms: C_15  and  C_24
REMARK    6  A    between atoms: C_24  and  N_25
REMARK                            x       y       z     vdW  Elec       q    Type
REMARK                         _______ _______ _______ _____ _____    ______ ____
ROOT
ATOM      1  C   UNL     1       2.611  -0.179  -1.182  0.00  0.00    +0.106 A 
ATOM      2  C   UNL     1       3.094   0.325  -2.378  0.00  0.00    +0.030 A 
ATOM      3  C   UNL     1       4.388   0.062  -2.780  0.00  0.00    +0.026 A 
ATOM      4  C   UNL     1       5.222  -0.715  -1.984  0.00  0.00    +0.042 A 
ATOM      5  C   UNL     1       4.730  -1.222  -0.774  0.00  0.00    +0.010 A 
ATOM      6  C   UNL     1       3.425  -0.947  -0.375  0.00  0.00    +0.039 A 
ATOM      7  C   UNL     1       5.835  -1.995  -0.165  0.00  0.00    +0.048 C 
ATOM      8  C   UNL     1       5.821  -2.680   1.034  0.00  0.00    +0.039 C 
ATOM      9  C   UNL     1       6.951  -1.875  -1.112  0.00  0.00    +0.249 C 
ATOM     10  O   UNL     1       8.056  -2.371  -0.982  0.00  0.00    -0.270 OA
ATOM     11  N   UNL     1       6.540  -1.123  -2.147  0.00  0.00    -0.281 N 
ATOM     12  H   UNL     1       7.093  -0.895  -2.911  0.00  0.00    +0.155 HD
ENDROOT
BRANCH   8  13
ATOM     13  C   UNL     1       7.012  -3.237   1.543  0.00  0.00    +0.042 A 
ATOM     14  C   UNL     1       7.123  -4.413   2.273  0.00  0.00    -0.036 A 
ATOM     15  C   UNL     1       8.471  -4.582   2.568  0.00  0.00    -0.025 A 
ATOM     16  C   UNL     1       9.156  -3.535   2.030  0.00  0.00    +0.020 A 
ATOM     17  N   UNL     1       8.282  -2.717   1.400  0.00  0.00    -0.358 N 
ATOM     18  H   UNL     1       8.510  -1.901   0.929  0.00  0.00    +0.166 HD
ATOM     19  C   UNL     1      10.653  -3.363   2.143  0.00  0.00    +0.053 C 
ATOM     20  C   UNL     1      11.162  -4.277   3.265  0.00  0.00    +0.006 C 
ATOM     21  C   UNL     1      10.618  -5.693   3.058  0.00  0.00    +0.005 C 
ATOM     22  C   UNL     1       9.111  -5.708   3.341  0.00  0.00    +0.037 C 
BRANCH  14  23
ATOM     23  C   UNL     1       5.996  -5.331   2.671  0.00  0.00    -0.040 C 
BRANCH  23  24
ATOM     24  N   UNL     1       5.797  -6.344   1.625  0.00  0.00    +0.385 N 
ATOM     25  C   UNL     1       5.346  -5.690   0.389  0.00  0.00    -0.050 C 
ATOM     26  C   UNL     1       5.140  -6.747  -0.699  0.00  0.00    +0.141 C 
ATOM     27  O   UNL     1       4.192  -7.716  -0.241  0.00  0.00    -0.383 OA
ATOM     28  C   UNL     1       4.576  -8.364   0.975  0.00  0.00    +0.141 C 
ATOM     29  C   UNL     1       4.781  -7.310   2.066  0.00  0.00    -0.050 C 
ATOM     30  H   UNL     1       6.667  -6.825   1.454  0.00  0.00    -0.081 HD
ENDBRANCH  23  24
ENDBRANCH  14  23
ENDBRANCH   8  13
BRANCH   1  31
ATOM     31  S   UNL     1       0.956   0.167  -0.686  0.00  0.00    +0.058 S 
ATOM     32  O   UNL     1       0.576  -0.867   0.211  0.00  0.00    -0.153 OA
ATOM     33  O   UNL     1       0.228   0.451  -1.873  0.00  0.00    -0.153 OA
BRANCH  31  35
ATOM     34  C   UNL     1       1.377   2.828  -0.449  0.00  0.00    +0.127 C 
ATOM     35  N   UNL     1       0.992   1.569   0.194  0.00  0.00    -0.193 NA
ATOM     36  H   UNL     1       0.757   1.557   1.135  0.00  0.00    +0.148 HD
ENDBRANCH  31  35
ENDBRANCH   1  31
TORSDOF 5
