REMARK  Name = CHEMBL450092
REMARK  8 active torsions:
REMARK  status: ('A' for Active; 'I' for Inactive)
REMARK    1  A    between atoms: C_1  and  C_2
REMARK    2  A    between atoms: C_7  and  N_8
REMARK    3  A    between atoms: C_20  and  N_24
REMARK    4  A    between atoms: C_27  and  N_32
REMARK    5  A    between atoms: C_29  and  C_31
REMARK    6  A    between atoms: N_32  and  C_33
REMARK    7  A    between atoms: C_33  and  C_34
REMARK    8  A    between atoms: C_34  and  N_35
REMARK                            x       y       z     vdW  Elec       q    Type
REMARK                         _______ _______ _______ _____ _____    ______ ____
ROOT
ATOM      1  N   UNL     1      -2.269  -0.256   4.788  0.00  0.00    -0.283 N 
ATOM      2  C   UNL     1      -1.057  -0.723   4.323  0.00  0.00    +0.207 A 
ATOM      3  N   UNL     1      -0.849  -1.919   3.832  0.00  0.00    -0.214 NA
ATOM      4  C   UNL     1       0.455  -2.046   3.471  0.00  0.00    +0.091 A 
ATOM      5  C   UNL     1       1.197  -3.088   2.908  0.00  0.00    +0.030 A 
ATOM      6  C   UNL     1       2.538  -2.911   2.651  0.00  0.00    +0.002 A 
ATOM      7  C   UNL     1       3.158  -1.706   2.945  0.00  0.00    +0.002 A 
ATOM      8  C   UNL     1       2.439  -0.668   3.502  0.00  0.00    +0.028 A 
ATOM      9  C   UNL     1       1.088  -0.829   3.768  0.00  0.00    +0.077 A 
ATOM     10  N   UNL     1       0.108  -0.004   4.301  0.00  0.00    -0.264 N 
ATOM     11  C   UNL     1       0.279   1.309   4.737  0.00  0.00    +0.145 A 
ATOM     12  C   UNL     1       0.921   2.242   3.930  0.00  0.00    +0.090 A 
ATOM     13  C   UNL     1       1.066   3.540   4.411  0.00  0.00    +0.129 A 
ATOM     14  N   UNL     1       0.588   3.840   5.617  0.00  0.00    -0.220 NA
ATOM     15  C   UNL     1      -0.015   2.927   6.350  0.00  0.00    +0.225 A 
ATOM     16  N   UNL     1      -0.176   1.689   5.928  0.00  0.00    -0.218 NA
ATOM     17  H   UNL     1      -2.359   0.670   5.063  0.00  0.00    +0.155 HD
ENDROOT
BRANCH  13  18
ATOM     18  N   UNL     1       1.700   4.508   3.644  0.00  0.00    -0.286 N 
ATOM     19  C   UNL     1       1.952   5.764   4.181  0.00  0.00    +0.106 A 
ATOM     20  C   UNL     1       1.981   5.950   5.559  0.00  0.00    +0.085 A 
ATOM     21  C   UNL     1       2.237   7.228   6.047  0.00  0.00    +0.124 A 
ATOM     22  N   UNL     1       2.444   8.220   5.183  0.00  0.00    -0.220 NA
ATOM     23  C   UNL     1       2.409   8.003   3.884  0.00  0.00    +0.107 A 
ATOM     24  N   UNL     1       2.174   6.807   3.383  0.00  0.00    -0.332 N 
ATOM     25  C   UNL     1       2.649   9.155   2.943  0.00  0.00    +0.086 C 
ATOM     26  H   UNL     1       1.968   4.307   2.734  0.00  0.00    +0.155 HD
ATOM     27  H   UNL     1       2.160   6.685   2.421  0.00  0.00    +0.168 HD
BRANCH  21  28
ATOM     28  N   UNL     1       2.276   7.465   7.412  0.00  0.00    -0.328 N 
ATOM     29  H   UNL     1       2.380   8.370   7.745  0.00  0.00    +0.147 HD
BRANCH  28  30
ATOM     30  C   UNL     1       2.161   6.348   8.353  0.00  0.00    +0.118 C 
BRANCH  30  31
ATOM     31  C   UNL     1       2.130   6.888   9.784  0.00  0.00    +0.103 C 
BRANCH  31  32
ATOM     32  N   UNL     1       2.097   5.765  10.731  0.00  0.00    -0.297 NA
ATOM     33  C   UNL     1       0.814   5.050  10.656  0.00  0.00    +0.112 C 
ATOM     34  C   UNL     1       0.845   3.856  11.613  0.00  0.00    +0.175 C 
ATOM     35  O   UNL     1       1.131   4.318  12.936  0.00  0.00    -0.377 OA
ATOM     36  C   UNL     1       2.373   5.018  13.045  0.00  0.00    +0.175 C 
ATOM     37  C   UNL     1       2.358   6.224  12.103  0.00  0.00    +0.112 C 
ENDBRANCH  31  32
ENDBRANCH  30  31
ENDBRANCH  28  30
ENDBRANCH  21  28
ENDBRANCH  13  18
BRANCH   1  44
ATOM     38  C   UNL     1      -3.497  -0.653   7.323  0.00  0.00    +0.046 C 
ATOM     39  C   UNL     1      -3.998  -1.340   6.079  0.00  0.00    -0.028 A 
ATOM     40  C   UNL     1      -5.088  -2.186   6.147  0.00  0.00    +0.005 A 
ATOM     41  C   UNL     1      -5.549  -2.816   5.006  0.00  0.00    +0.002 A 
ATOM     42  C   UNL     1      -4.922  -2.601   3.792  0.00  0.00    +0.022 A 
ATOM     43  C   UNL     1      -3.831  -1.756   3.716  0.00  0.00    +0.062 A 
ATOM     44  C   UNL     1      -3.369  -1.117   4.861  0.00  0.00    +0.055 A 
ATOM     45 CL   UNL     1      -3.045  -1.487   2.193  0.00  0.00    -0.082 Cl
ENDBRANCH   1  44
TORSDOF 6
