REMARK  Name = CHEMBL434369
REMARK  11 active torsions:
REMARK  status: ('A' for Active; 'I' for Inactive)
REMARK    1  A    between atoms: C_1  and  C_2
REMARK    2  A    between atoms: C_2  and  N_3
REMARK    3  A    between atoms: N_3  and  C_4
REMARK    4  A    between atoms: N_3  and  C_6
REMARK    5  A    between atoms: C_4  and  C_5
REMARK    6  A    between atoms: C_6  and  C_7
REMARK    7  A    between atoms: C_7  and  N_8
REMARK    8  A    between atoms: C_11  and  N_24
REMARK    9  A    between atoms: N_24  and  C_25
REMARK   10  A    between atoms: C_27  and  O_32
REMARK   11  A    between atoms: C_30  and  C_31
REMARK                            x       y       z     vdW  Elec       q    Type
REMARK                         _______ _______ _______ _____ _____    ______ ____
ROOT
ATOM      1  N   UNL     1      -1.865  -4.075  -1.572  0.00  0.00    -0.331 N 
ATOM      2  C   UNL     1      -3.153  -4.541  -1.785  0.00  0.00    +0.126 A 
ATOM      3  C   UNL     1      -4.211  -3.648  -1.932  0.00  0.00    +0.087 A 
ATOM      4  C   UNL     1      -5.486  -4.162  -2.144  0.00  0.00    +0.130 A 
ATOM      5  N   UNL     1      -5.651  -5.482  -2.200  0.00  0.00    -0.197 NA
ATOM      6  C   UNL     1      -4.622  -6.300  -2.056  0.00  0.00    +0.240 A 
ATOM      7  N   UNL     1      -3.394  -5.848  -1.857  0.00  0.00    -0.197 NA
ATOM      8  N   UNL     1      -4.835  -7.675  -2.120  0.00  0.00    -0.267 N 
ATOM      9  C   UNL     1      -3.888  -8.648  -1.986  0.00  0.00    +0.207 A 
ATOM     10  N   UNL     1      -4.436  -9.822  -2.100  0.00  0.00    -0.235 NA
ATOM     11  C   UNL     1      -5.771  -9.687  -2.314  0.00  0.00    +0.089 A 
ATOM     12  C   UNL     1      -6.048  -8.309  -2.325  0.00  0.00    +0.076 A 
ATOM     13  C   UNL     1      -7.347  -7.866  -2.521  0.00  0.00    +0.028 A 
ATOM     14  C   UNL     1      -8.364  -8.779  -2.702  0.00  0.00    +0.002 A 
ATOM     15  C   UNL     1      -8.097 -10.140  -2.689  0.00  0.00    +0.002 A 
ATOM     16  C   UNL     1      -6.812 -10.599  -2.503  0.00  0.00    +0.030 A 
ATOM     17  H   UNL     1      -1.132  -4.703  -1.475  0.00  0.00    +0.147 HD
ENDROOT
BRANCH   4  18
ATOM     18  N   UNL     1      -6.571  -3.311  -2.296  0.00  0.00    -0.299 N 
ATOM     19  H   UNL     1      -7.468  -3.675  -2.354  0.00  0.00    +0.154 HD
BRANCH  18  20
ATOM     20  C   UNL     1      -6.371  -1.929  -2.365  0.00  0.00    +0.039 A 
ATOM     21  C   UNL     1      -6.668  -1.129  -1.270  0.00  0.00    +0.069 A 
ATOM     22  C   UNL     1      -6.468   0.241  -1.342  0.00  0.00    +0.119 A 
ATOM     23  C   UNL     1      -5.972   0.809  -2.507  0.00  0.00    +0.046 A 
ATOM     24  C   UNL     1      -5.677   0.011  -3.596  0.00  0.00    +0.009 A 
ATOM     25  C   UNL     1      -5.870  -1.356  -3.527  0.00  0.00    -0.029 A 
ATOM     26  C   UNL     1      -5.542  -2.224  -4.714  0.00  0.00    +0.045 C 
BRANCH  22  27
ATOM     27  O   UNL     1      -6.758   1.027  -0.272  0.00  0.00    -0.507 OA
ATOM     28  H   UNL     1      -6.017   1.150   0.338  0.00  0.00    +0.292 HD
ENDBRANCH  22  27
ENDBRANCH  18  20
ENDBRANCH   4  18
BRANCH   1  29
ATOM     29  C   UNL     1      -1.610  -2.634  -1.494  0.00  0.00    +0.084 C 
BRANCH  29  30
ATOM     30  C   UNL     1      -0.118  -2.392  -1.256  0.00  0.00    -0.060 C 
BRANCH  30  31
ATOM     31  N   UNL     1       0.137  -0.948  -1.178  0.00  0.00    +0.380 N 
ATOM     32  H   UNL     1      -0.216  -0.498  -2.010  0.00  0.00    -0.082 HD
BRANCH  31  34
ATOM     33  C   UNL     1      -0.395   1.129   0.006  0.00  0.00    -0.017 C 
ATOM     34  C   UNL     1      -0.540  -0.394   0.002  0.00  0.00    -0.082 C 
ENDBRANCH  31  34
BRANCH  31  35
ATOM     35  C   UNL     1       1.583  -0.711  -1.068  0.00  0.00    -0.082 C 
ATOM     36  C   UNL     1       2.271  -1.157  -2.360  0.00  0.00    -0.017 C 
ENDBRANCH  31  35
ENDBRANCH  30  31
ENDBRANCH  29  30
ENDBRANCH   1  29
TORSDOF 8
