REMARK  Name = CHEMBL216240
REMARK  7 active torsions:
REMARK  status: ('A' for Active; 'I' for Inactive)
REMARK    1  A    between atoms: C_1  and  C_2
REMARK    2  A    between atoms: C_7  and  N_8
REMARK    3  A    between atoms: C_9  and  C_11
REMARK    4  A    between atoms: C_19  and  N_24
REMARK    5  A    between atoms: C_21  and  C_23
REMARK    6  A    between atoms: C_27  and  C_30
REMARK    7  A    between atoms: C_30  and  O_31
REMARK                            x       y       z     vdW  Elec       q    Type
REMARK                         _______ _______ _______ _____ _____    ______ ____
ROOT
ATOM      1  C   UNL     1      -1.084   0.266   4.721  0.00  0.00    +0.095 A 
ATOM      2  C   UNL     1      -1.480  -0.139   5.988  0.00  0.00    +0.133 A 
ATOM      3  N   UNL     1      -1.278   0.714   6.961  0.00  0.00    -0.232 NA
ATOM      4  C   UNL     1      -0.727   1.894   6.740  0.00  0.00    +0.164 A 
ATOM      5  S   UNL     1      -0.433   1.889   5.083  0.00  0.00    -0.047 S 
ATOM      6  N   UNL     1      -0.451   2.892   7.654  0.00  0.00    -0.280 N 
ATOM      7  C   UNL     1      -0.675   2.676   9.007  0.00  0.00    +0.106 A 
ATOM      8  C   UNL     1      -1.037   1.415   9.470  0.00  0.00    +0.085 A 
ATOM      9  C   UNL     1      -1.251   1.251  10.835  0.00  0.00    +0.126 A 
ATOM     10  N   UNL     1      -1.103   2.299  11.643  0.00  0.00    -0.219 NA
ATOM     11  C   UNL     1      -0.759   3.478  11.166  0.00  0.00    +0.107 A 
ATOM     12  N   UNL     1      -0.542   3.672   9.881  0.00  0.00    -0.332 N 
ATOM     13  C   UNL     1      -0.603   4.635  12.118  0.00  0.00    +0.086 C 
ATOM     14  H   UNL     1      -0.100   3.744   7.350  0.00  0.00    +0.155 HD
ATOM     15  H   UNL     1      -0.286   4.553   9.567  0.00  0.00    +0.168 HD
ENDROOT
BRANCH   9  16
ATOM     16  N   UNL     1      -1.614   0.014  11.346  0.00  0.00    -0.315 N 
ATOM     17  C   UNL     1      -2.055  -0.119  12.742  0.00  0.00    +0.107 C 
ATOM     18  C   UNL     1      -3.415  -0.823  12.764  0.00  0.00    +0.025 C 
ATOM     19  C   UNL     1      -3.311  -2.149  12.008  0.00  0.00    +0.017 C 
ATOM     20  C   UNL     1      -2.931  -1.880  10.550  0.00  0.00    +0.025 C 
ATOM     21  C   UNL     1      -1.571  -1.187  10.502  0.00  0.00    +0.107 C 
BRANCH  19  22
ATOM     22  C   UNL     1      -4.659  -2.871  12.058  0.00  0.00    +0.159 C 
BRANCH  22  23
ATOM     23  O   UNL     1      -4.532  -4.160  11.454  0.00  0.00    -0.395 OA
ATOM     24  H   UNL     1      -5.350  -4.675  11.450  0.00  0.00    +0.209 HD
ENDBRANCH  22  23
ENDBRANCH  19  22
ENDBRANCH   9  16
BRANCH   1  26
ATOM     25  N   UNL     1      -0.715   0.141   2.318  0.00  0.00    -0.280 N 
ATOM     26  C   UNL     1      -1.170  -0.442   3.444  0.00  0.00    +0.256 C 
ATOM     27  O   UNL     1      -1.654  -1.559   3.399  0.00  0.00    -0.269 OA
ATOM     28  H   UNL     1      -0.258   0.995   2.365  0.00  0.00    +0.155 HD
BRANCH  25  35
ATOM     29  C   UNL     1      -1.910   1.643   0.217  0.00  0.00    +0.046 C 
ATOM     30  C   UNL     1      -1.481   0.211   0.029  0.00  0.00    -0.028 A 
ATOM     31  C   UNL     1      -1.658  -0.409  -1.193  0.00  0.00    +0.005 A 
ATOM     32  C   UNL     1      -1.265  -1.723  -1.368  0.00  0.00    +0.002 A 
ATOM     33  C   UNL     1      -0.693  -2.422  -0.320  0.00  0.00    +0.022 A 
ATOM     34  C   UNL     1      -0.513  -1.808   0.905  0.00  0.00    +0.062 A 
ATOM     35  C   UNL     1      -0.902  -0.485   1.081  0.00  0.00    +0.055 A 
ATOM     36 CL   UNL     1       0.205  -2.686   2.219  0.00  0.00    -0.082 Cl
ENDBRANCH  25  35
ENDBRANCH   1  26
TORSDOF 5
