REMARK  Name = CHEMBL582959
REMARK  10 active torsions:
REMARK  status: ('A' for Active; 'I' for Inactive)
REMARK    1  A    between atoms: C_1  and  N_2
REMARK    2  A    between atoms: N_2  and  C_3
REMARK    3  A    between atoms: N_2  and  C_4
REMARK    4  A    between atoms: C_4  and  C_5
REMARK    5  A    between atoms: C_5  and  O_6
REMARK    6  A    between atoms: O_6  and  C_7
REMARK    7  A    between atoms: C_17  and  C_38
REMARK    8  A    between atoms: C_18  and  C_20
REMARK    9  A    between atoms: C_23  and  N_26
REMARK   10  A    between atoms: N_29  and  C_30
REMARK                            x       y       z     vdW  Elec       q    Type
REMARK                         _______ _______ _______ _____ _____    ______ ____
ROOT
ATOM      1  C   UNL     1      -4.127  -1.389   4.904  0.00  0.00    +0.121 A 
ATOM      2  C   UNL     1      -4.613  -1.902   3.710  0.00  0.00    +0.047 A 
ATOM      3  C   UNL     1      -4.289  -3.193   3.361  0.00  0.00    +0.027 A 
ATOM      4  C   UNL     1      -3.482  -3.982   4.187  0.00  0.00    +0.036 A 
ATOM      5  C   UNL     1      -2.985  -3.483   5.368  0.00  0.00    -0.021 A 
ATOM      6  C   UNL     1      -3.326  -2.166   5.711  0.00  0.00    +0.051 A 
ATOM      7  C   UNL     1      -2.080  -4.134   6.393  0.00  0.00    +0.060 C 
ATOM      8  C   UNL     1      -1.416  -5.410   5.922  0.00  0.00    +0.150 C 
ATOM      9  N   UNL     1      -2.410  -6.439   5.601  0.00  0.00    -0.249 N 
ATOM     10  C   UNL     1      -3.261  -6.354   4.595  0.00  0.00    +0.134 A 
ATOM     11  C   UNL     1      -4.074  -7.474   4.593  0.00  0.00    +0.104 A 
ATOM     12  C   UNL     1      -3.612  -8.291   5.728  0.00  0.00    +0.107 A 
ATOM     13  N   UNL     1      -2.620  -7.638   6.294  0.00  0.00    -0.169 NA
ATOM     14  N   UNL     1      -3.240  -5.281   3.732  0.00  0.00    -0.299 N 
ATOM     15  H   UNL     1      -3.054  -5.429   2.791  0.00  0.00    +0.154 HD
ENDROOT
BRANCH  12  16
ATOM     16  C   UNL     1      -4.162  -9.600   6.152  0.00  0.00    +0.003 A 
ATOM     17  C   UNL     1      -5.526  -9.860   6.024  0.00  0.00    +0.012 A 
ATOM     18  C   UNL     1      -6.035 -11.079   6.420  0.00  0.00    +0.024 A 
ATOM     19  C   UNL     1      -5.189 -12.048   6.946  0.00  0.00    +0.035 A 
ATOM     20  C   UNL     1      -3.830 -11.791   7.075  0.00  0.00    +0.024 A 
ATOM     21  C   UNL     1      -3.315 -10.577   6.675  0.00  0.00    +0.012 A 
BRANCH  19  22
ATOM     22  N   UNL     1      -5.708 -13.283   7.346  0.00  0.00    -0.269 N 
ATOM     23  C   UNL     1      -6.797 -13.788   6.733  0.00  0.00    +0.308 C 
ATOM     24  O   UNL     1      -7.265 -13.223   5.764  0.00  0.00    -0.252 OA
ATOM     25  N   UNL     1      -7.366 -14.919   7.194  0.00  0.00    -0.267 N 
ATOM     26  H   UNL     1      -5.284 -13.777   8.066  0.00  0.00    +0.156 HD
ATOM     27  H   UNL     1      -7.025 -15.341   7.998  0.00  0.00    +0.156 HD
BRANCH  25  28
ATOM     28  C   UNL     1      -8.451 -15.485   6.513  0.00  0.00    +0.072 A 
ATOM     29  C   UNL     1      -8.426 -15.588   5.128  0.00  0.00    +0.064 A 
ATOM     30  C   UNL     1      -9.499 -16.147   4.458  0.00  0.00    +0.022 A 
ATOM     31  C   UNL     1     -10.596 -16.603   5.166  0.00  0.00    +0.003 A 
ATOM     32  C   UNL     1     -10.624 -16.502   6.545  0.00  0.00    +0.022 A 
ATOM     33  C   UNL     1      -9.553 -15.949   7.221  0.00  0.00    +0.064 A 
ATOM     34 CL   UNL     1      -9.586 -15.830   8.952  0.00  0.00    -0.082 Cl
ATOM     35 CL   UNL     1      -7.050 -15.015   4.238  0.00  0.00    -0.082 Cl
ENDBRANCH  25  28
ENDBRANCH  19  22
ENDBRANCH  12  16
BRANCH  11  36
ATOM     36  C   UNL     1      -5.162  -7.782   3.660  0.00  0.00    +0.247 C 
ATOM     37  O   UNL     1      -4.932  -8.404   2.640  0.00  0.00    -0.270 OA
ATOM     38  N   UNL     1      -6.418  -7.376   3.933  0.00  0.00    -0.325 N 
ATOM     39  H   UNL     1      -6.602  -6.881   4.746  0.00  0.00    +0.145 HD
ATOM     40  H   UNL     1      -7.138  -7.580   3.316  0.00  0.00    +0.145 HD
ENDBRANCH  11  36
BRANCH   1  41
ATOM     41  O   UNL     1      -4.437  -0.118   5.275  0.00  0.00    -0.494 OA
BRANCH  41  42
ATOM     42  C   UNL     1      -5.273   0.631   4.390  0.00  0.00    +0.210 C 
BRANCH  42  43
ATOM     43  C   UNL     1      -5.511   2.026   4.971  0.00  0.00    -0.038 C 
BRANCH  43  45
ATOM     44  C   UNL     1      -3.731   2.981   3.677  0.00  0.00    -0.096 C 
ATOM     45  N   UNL     1      -4.236   2.752   5.037  0.00  0.00    +0.378 N 
ATOM     46  C   UNL     1      -4.442   4.044   5.707  0.00  0.00    -0.096 C 
ATOM     47  H   UNL     1      -3.565   2.207   5.558  0.00  0.00    -0.082 HD
ENDBRANCH  43  45
ENDBRANCH  42  43
ENDBRANCH  41  42
ENDBRANCH   1  41
TORSDOF 8
