REMARK  Name = CHEMBL408070
REMARK  9 active torsions:
REMARK  status: ('A' for Active; 'I' for Inactive)
REMARK    1  A    between atoms: C_1  and  C_2
REMARK    2  A    between atoms: C_5  and  C_31
REMARK    3  A    between atoms: C_7  and  C_8
REMARK    4  A    between atoms: N_10  and  C_11
REMARK    5  A    between atoms: N_17  and  C_18
REMARK    6  A    between atoms: C_21  and  N_24
REMARK    7  A    between atoms: N_27  and  C_30
REMARK    8  A    between atoms: N_33  and  C_34
REMARK    9  A    between atoms: C_38  and  C_40
REMARK                            x       y       z     vdW  Elec       q    Type
REMARK                         _______ _______ _______ _____ _____    ______ ____
ROOT
ATOM      1  C   UNL     1       0.901   0.004   2.491  0.00  0.00    +0.249 C 
ATOM      2  O   UNL     1       1.385   1.117   2.553  0.00  0.00    -0.270 OA
ATOM      3  N   UNL     1       0.473  -0.609   3.612  0.00  0.00    -0.279 N 
ATOM      4  H   UNL     1       0.160  -1.526   3.574  0.00  0.00    +0.155 HD
ENDROOT
BRANCH   3   5
ATOM      5  C   UNL     1       0.479   0.080   4.833  0.00  0.00    +0.070 A 
ATOM      6  C   UNL     1       0.374   1.467   4.869  0.00  0.00    +0.139 A 
ATOM      7  N   UNL     1       0.383   2.083   6.039  0.00  0.00    -0.221 NA
ATOM      8  C   UNL     1       0.490   1.396   7.167  0.00  0.00    +0.220 A 
ATOM      9  N   UNL     1       0.592   0.075   7.170  0.00  0.00    -0.221 NA
ATOM     10  C   UNL     1       0.585  -0.609   6.038  0.00  0.00    +0.139 A 
ATOM     11  N   UNL     1       0.496   2.077   8.374  0.00  0.00    -0.284 N 
ATOM     12  H   UNL     1       0.340   3.034   8.392  0.00  0.00    +0.155 HD
BRANCH  11  13
ATOM     13  C   UNL     1       0.728   1.383   9.569  0.00  0.00    +0.034 A 
ATOM     14  C   UNL     1       1.606   0.307   9.588  0.00  0.00    +0.025 A 
ATOM     15  C   UNL     1       1.835  -0.377  10.765  0.00  0.00    +0.025 A 
ATOM     16  C   UNL     1       1.188   0.011  11.931  0.00  0.00    +0.030 A 
ATOM     17  C   UNL     1       0.310   1.087  11.912  0.00  0.00    +0.025 A 
ATOM     18  C   UNL     1       0.085   1.774  10.736  0.00  0.00    +0.025 A 
BRANCH  16  19
ATOM     19  N   UNL     1       1.420  -0.682  13.124  0.00  0.00    -0.327 N 
ATOM     20  C   UNL     1       0.649  -0.373  14.338  0.00  0.00    +0.120 C 
ATOM     21  C   UNL     1       0.080  -1.681  14.899  0.00  0.00    +0.103 C 
ATOM     22  N   UNL     1       1.171  -2.647  15.084  0.00  0.00    -0.302 NA
ATOM     23  C   UNL     1       1.800  -2.993  13.803  0.00  0.00    +0.103 C 
ATOM     24  C   UNL     1       2.436  -1.743  13.195  0.00  0.00    +0.120 C 
ATOM     25  C   UNL     1       0.695  -3.851  15.779  0.00  0.00    +0.105 C 
ENDBRANCH  16  19
ENDBRANCH  11  13
ENDBRANCH   3   5
BRANCH   1  32
ATOM     26  C   UNL     1       1.986   1.258   0.125  0.00  0.00    +0.044 C 
ATOM     27  C   UNL     1       1.305  -0.083   0.034  0.00  0.00    -0.038 A 
ATOM     28  C   UNL     1       1.201  -0.722  -1.186  0.00  0.00    +0.005 A 
ATOM     29  C   UNL     1       0.579  -1.950  -1.278  0.00  0.00    +0.013 A 
ATOM     30  C   UNL     1       0.049  -2.556  -0.136  0.00  0.00    +0.038 A 
ATOM     31  C   UNL     1       0.150  -1.917   1.098  0.00  0.00    +0.026 A 
ATOM     32  C   UNL     1       0.785  -0.679   1.185  0.00  0.00    +0.041 A 
BRANCH  30  33
ATOM     33  C   UNL     1      -0.619  -3.871  -0.236  0.00  0.00    +0.248 C 
ATOM     34  O   UNL     1      -1.079  -4.396   0.758  0.00  0.00    -0.270 OA
ATOM     35  N   UNL     1      -0.716  -4.487  -1.431  0.00  0.00    -0.281 N 
ATOM     36  H   UNL     1      -0.282  -4.107  -2.210  0.00  0.00    +0.155 HD
BRANCH  35  37
ATOM     37  C   UNL     1      -1.445  -5.676  -1.547  0.00  0.00    +0.034 A 
ATOM     38  C   UNL     1      -1.027  -6.664  -2.429  0.00  0.00    +0.023 A 
ATOM     39  C   UNL     1      -1.748  -7.837  -2.541  0.00  0.00    +0.002 A 
ATOM     40  C   UNL     1      -2.885  -8.027  -1.777  0.00  0.00    +0.012 A 
ATOM     41  C   UNL     1      -3.304  -7.045  -0.898  0.00  0.00    +0.057 A 
ATOM     42  C   UNL     1      -2.583  -5.872  -0.777  0.00  0.00    +0.035 A 
BRANCH  41  43
ATOM     43  C   UNL     1      -4.543  -7.256  -0.067  0.00  0.00    +0.417 C 
ATOM     44  F   UNL     1      -5.091  -8.510  -0.358  0.00  0.00    -0.166 F 
ATOM     45  F   UNL     1      -4.210  -7.197   1.290  0.00  0.00    -0.166 F 
ATOM     46  F   UNL     1      -5.478  -6.258  -0.362  0.00  0.00    -0.166 F 
ENDBRANCH  41  43
ENDBRANCH  35  37
ENDBRANCH  30  33
ENDBRANCH   1  32
TORSDOF 7
