REMARK  Name = CHEMBL564940
REMARK  5 active torsions:
REMARK  status: ('A' for Active; 'I' for Inactive)
REMARK    1  A    between atoms: C_1  and  O_2
REMARK    2  A    between atoms: O_2  and  C_3
REMARK    3  A    between atoms: C_3  and  C_5
REMARK    4  A    between atoms: C_5  and  O_36
REMARK    5  A    between atoms: C_26  and  O_28
REMARK                            x       y       z     vdW  Elec       q    Type
REMARK                         _______ _______ _______ _____ _____    ______ ____
ROOT
ATOM      1  C   UNL     1       0.658  -2.110  -1.120  0.00  0.00    +0.208 C 
ATOM      2  C   UNL     1       1.803  -2.600  -0.252  0.00  0.00    +0.171 C 
ATOM      3  N   UNL     1       1.471  -3.894   0.356  0.00  0.00    -0.335 N 
ATOM      4  C   UNL     1       1.285  -4.030   1.720  0.00  0.00    +0.050 A 
ATOM      5  C   UNL     1       1.377  -3.086   2.741  0.00  0.00    +0.026 A 
ATOM      6  C   UNL     1       1.129  -3.530   4.030  0.00  0.00    +0.002 A 
ATOM      7  C   UNL     1       0.804  -4.846   4.306  0.00  0.00    +0.001 A 
ATOM      8  C   UNL     1       0.710  -5.801   3.308  0.00  0.00    +0.010 A 
ATOM      9  C   UNL     1       0.959  -5.372   2.003  0.00  0.00    +0.008 A 
ATOM     10  C   UNL     1       0.961  -6.074   0.721  0.00  0.00    +0.022 A 
ATOM     11  C   UNL     1       1.294  -5.115  -0.257  0.00  0.00    +0.075 A 
ATOM     12  C   UNL     1       1.398  -5.507  -1.603  0.00  0.00    +0.075 A 
ATOM     13  C   UNL     1       1.154  -6.849  -1.958  0.00  0.00    +0.022 A 
ATOM     14  C   UNL     1       1.350  -6.936  -3.403  0.00  0.00    +0.008 A 
ATOM     15  C   UNL     1       1.249  -8.000  -4.301  0.00  0.00    +0.010 A 
ATOM     16  C   UNL     1       1.515  -7.720  -5.632  0.00  0.00    +0.001 A 
ATOM     17  C   UNL     1       1.864  -6.449  -6.054  0.00  0.00    +0.002 A 
ATOM     18  C   UNL     1       1.965  -5.381  -5.177  0.00  0.00    +0.026 A 
ATOM     19  C   UNL     1       1.700  -5.641  -3.834  0.00  0.00    +0.050 A 
ATOM     20  N   UNL     1       1.710  -4.794  -2.740  0.00  0.00    -0.336 N 
ATOM     21  C   UNL     1       2.017  -3.365  -2.874  0.00  0.00    +0.157 C 
ATOM     22  C   UNL     1       0.788  -2.525  -2.585  0.00  0.00    +0.178 C 
ATOM     23  C   UNL     1       0.801  -7.793  -0.984  0.00  0.00    +0.060 A 
ATOM     24  C   UNL     1       0.705  -7.404   0.362  0.00  0.00    +0.060 A 
ATOM     25  C   UNL     1       0.323  -8.615   1.109  0.00  0.00    +0.252 C 
ATOM     26  O   UNL     1       0.142  -8.687   2.308  0.00  0.00    -0.270 OA
ATOM     27  N   UNL     1       0.206  -9.635   0.240  0.00  0.00    -0.248 N 
ATOM     28  C   UNL     1       0.473  -9.229  -1.015  0.00  0.00    +0.252 C 
ATOM     29  O   UNL     1       0.447  -9.933  -2.005  0.00  0.00    -0.270 OA
ATOM     30  H   UNL     1      -0.039 -10.541   0.484  0.00  0.00    +0.158 HD
ENDROOT
BRANCH   1  31
ATOM     31  C   UNL     1       0.598  -0.600  -1.043  0.00  0.00    +0.343 C 
ATOM     32  O   UNL     1       1.088   0.070  -1.921  0.00  0.00    -0.247 OA
BRANCH  31  34
ATOM     33  C   UNL     1      -0.017   1.425   0.010  0.00  0.00    +0.280 C 
ATOM     34  O   UNL     1       0.002  -0.004   0.002  0.00  0.00    -0.466 OA
ENDBRANCH  31  34
ENDBRANCH   1  31
BRANCH  22  35
ATOM     35  O   UNL     1      -0.385  -3.256  -2.970  0.00  0.00    -0.387 OA
ATOM     36  H   UNL     1      -0.378  -3.555  -3.890  0.00  0.00    +0.210 HD
ENDBRANCH  22  35
BRANCH   1  37
ATOM     37  O   UNL     1      -0.576  -2.629  -0.599  0.00  0.00    -0.374 OA
ATOM     38  H   UNL     1      -0.749  -2.384   0.320  0.00  0.00    +0.211 HD
ENDBRANCH   1  37
TORSDOF 4
