REMARK  Name = CHEMBL566284
REMARK  7 active torsions:
REMARK  status: ('A' for Active; 'I' for Inactive)
REMARK    1  A    between atoms: C_1  and  C_2
REMARK    2  A    between atoms: C_2  and  C_4
REMARK    3  A    between atoms: C_2  and  N_25
REMARK    4  A    between atoms: N_10  and  C_11
REMARK    5  A    between atoms: N_14  and  C_15
REMARK    6  A    between atoms: C_30  and  N_32
REMARK    7  A    between atoms: C_39  and  C_41
REMARK                            x       y       z     vdW  Elec       q    Type
REMARK                         _______ _______ _______ _____ _____    ______ ____
ROOT
ATOM      1  N   UNL     1       1.047  -0.242  -0.320  0.00  0.00    -0.312 N 
ATOM      2  C   UNL     1       2.419  -0.406  -0.234  0.00  0.00    +0.217 A 
ATOM      3  N   UNL     1       3.018  -0.234   0.935  0.00  0.00    -0.223 NA
ATOM      4  C   UNL     1       4.328  -0.383   1.056  0.00  0.00    +0.118 A 
ATOM      5  C   UNL     1       5.076  -0.722  -0.057  0.00  0.00    +0.066 A 
ATOM      6  C   UNL     1       4.417  -0.895  -1.273  0.00  0.00    +0.144 A 
ATOM      7  N   UNL     1       3.099  -0.735  -1.321  0.00  0.00    -0.197 NA
ATOM      8  H   UNL     1       0.596  -0.368  -1.169  0.00  0.00    +0.149 HD
ENDROOT
BRANCH   6   9
ATOM      9  N   UNL     1       5.130  -1.237  -2.421  0.00  0.00    -0.283 N 
ATOM     10  C   UNL     1       6.476  -1.440  -2.506  0.00  0.00    +0.206 A 
ATOM     11  N   UNL     1       6.805  -1.745  -3.727  0.00  0.00    -0.235 NA
ATOM     12  C   UNL     1       5.695  -1.758  -4.511  0.00  0.00    +0.090 A 
ATOM     13  C   UNL     1       4.603  -1.438  -3.684  0.00  0.00    +0.075 A 
ATOM     14  C   UNL     1       3.321  -1.380  -4.213  0.00  0.00    +0.029 A 
ATOM     15  C   UNL     1       3.114  -1.637  -5.538  0.00  0.00    +0.012 A 
ATOM     16  C   UNL     1       4.187  -1.961  -6.374  0.00  0.00    +0.003 A 
ATOM     17  C   UNL     1       5.479  -2.016  -5.864  0.00  0.00    +0.040 A 
BRANCH  16  18
ATOM     18  C   UNL     1       3.948  -2.239  -7.810  0.00  0.00    +0.076 A 
ATOM     19  C   UNL     1       2.674  -2.073  -8.362  0.00  0.00    +0.048 A 
ATOM     20  C   UNL     1       2.499  -2.344  -9.707  0.00  0.00    +0.116 A 
ATOM     21  N   UNL     1       3.534  -2.749 -10.427  0.00  0.00    -0.223 NA
ATOM     22  C   UNL     1       4.731  -2.897  -9.877  0.00  0.00    +0.213 A 
ATOM     23  N   UNL     1       4.944  -2.644  -8.595  0.00  0.00    -0.215 NA
ATOM     24  N   UNL     1       5.787  -3.322 -10.665  0.00  0.00    -0.327 N 
ATOM     25  H   UNL     1       5.645  -3.507 -11.607  0.00  0.00    +0.145 HD
ATOM     26  H   UNL     1       6.668  -3.435 -10.275  0.00  0.00    +0.145 HD
ENDBRANCH  16  18
ENDBRANCH   6   9
BRANCH   1  28
ATOM     27  C   UNL     1       0.300   1.643   1.049  0.00  0.00    +0.026 C 
ATOM     28  C   UNL     1       0.277   0.123   0.872  0.00  0.00    +0.058 C 
BRANCH  28  29
ATOM     29  C   UNL     1      -1.169  -0.349   0.709  0.00  0.00    -0.031 C 
ATOM     30  C   UNL     1      -1.948  -0.064   1.997  0.00  0.00    +0.096 C 
ATOM     31  N   UNL     1      -3.295  -0.642   1.866  0.00  0.00    -0.289 N 
ATOM     32  C   UNL     1      -3.408  -2.045   1.437  0.00  0.00    +0.091 C 
ATOM     33  C   UNL     1      -2.560  -2.237   0.175  0.00  0.00    -0.059 C 
ATOM     34  N   UNL     1      -1.185  -1.792   0.438  0.00  0.00    +0.383 N 
ATOM     35  C   UNL     1      -0.654  -2.514   1.602  0.00  0.00    -0.096 C 
ATOM     36  C   UNL     1      -4.393   0.092   2.131  0.00  0.00    +0.306 C 
ATOM     37  O   UNL     1      -4.285   1.275   2.394  0.00  0.00    -0.252 OA
ATOM     38  N   UNL     1      -5.611  -0.484   2.105  0.00  0.00    -0.269 N 
ATOM     39  H   UNL     1      -5.693  -1.439   1.962  0.00  0.00    +0.156 HD
ATOM     40  H   UNL     1      -0.610  -1.989  -0.367  0.00  0.00    -0.082 HD
BRANCH  38  41
ATOM     41  C   UNL     1      -6.756   0.296   2.284  0.00  0.00    +0.042 A 
ATOM     42  C   UNL     1      -6.703   1.661   2.105  0.00  0.00    +0.024 A 
ATOM     43  C   UNL     1      -7.838   2.447   2.281  0.00  0.00    +0.002 A 
ATOM     44  C   UNL     1      -9.029   1.891   2.636  0.00  0.00    +0.008 A 
ATOM     45  C   UNL     1      -9.126   0.503   2.828  0.00  0.00    -0.016 A 
ATOM     46  C   UNL     1      -7.979  -0.308   2.646  0.00  0.00    +0.003 A 
ATOM     47  C   UNL     1      -8.078  -1.696   2.833  0.00  0.00    +0.010 A 
ATOM     48  C   UNL     1      -9.275  -2.245   3.182  0.00  0.00    +0.001 A 
ATOM     49  C   UNL     1     -10.405  -1.449   3.355  0.00  0.00    +0.001 A 
ATOM     50  C   UNL     1     -10.343  -0.099   3.195  0.00  0.00    +0.008 A 
ENDBRANCH  38  41
ENDBRANCH  28  29
ENDBRANCH   1  28
TORSDOF 5
