REMARK  Name = CHEMBL187198
REMARK  4 active torsions:
REMARK  status: ('A' for Active; 'I' for Inactive)
REMARK    1  A    between atoms: C_1  and  C_2
REMARK    2  A    between atoms: C_7  and  N_8
REMARK    3  A    between atoms: C_9  and  C_11
REMARK    4  A    between atoms: N_16  and  C_17
REMARK                            x       y       z     vdW  Elec       q    Type
REMARK                         _______ _______ _______ _____ _____    ______ ____
ROOT
ATOM      1  C   UNL     1      -0.459   0.108   4.799  0.00  0.00    +0.095 A 
ATOM      2  C   UNL     1      -0.820  -0.328   6.066  0.00  0.00    +0.133 A 
ATOM      3  N   UNL     1      -0.826   0.576   7.013  0.00  0.00    -0.233 NA
ATOM      4  C   UNL     1      -0.503   1.834   6.768  0.00  0.00    +0.159 A 
ATOM      5  S   UNL     1      -0.148   1.836   5.123  0.00  0.00    -0.048 S 
ATOM      6  N   UNL     1      -0.462   2.891   7.651  0.00  0.00    -0.321 N 
ATOM      7  H   UNL     1      -0.207   3.774   7.339  0.00  0.00    +0.148 HD
ENDROOT
BRANCH   6   8
ATOM      8  C   UNL     1      -0.804   2.683   9.060  0.00  0.00    +0.072 C 
ATOM      9  C   UNL     1       0.431   2.193   9.817  0.00  0.00    +0.022 C 
ATOM     10  C   UNL     1       0.074   1.975  11.289  0.00  0.00    +0.002 C 
ATOM     11  C   UNL     1      -0.408   3.294  11.897  0.00  0.00    +0.000 C 
ATOM     12  C   UNL     1      -1.644   3.784  11.140  0.00  0.00    +0.002 C 
ATOM     13  C   UNL     1      -1.286   4.002   9.668  0.00  0.00    +0.022 C 
ENDBRANCH   6   8
BRANCH   1  15
ATOM     14  N   UNL     1       0.025  -0.015   2.417  0.00  0.00    -0.280 N 
ATOM     15  C   UNL     1      -0.355  -0.641   3.548  0.00  0.00    +0.256 C 
ATOM     16  O   UNL     1      -0.613  -1.831   3.528  0.00  0.00    -0.269 OA
ATOM     17  H   UNL     1       0.299   0.915   2.446  0.00  0.00    +0.155 HD
BRANCH  14  24
ATOM     18  C   UNL     1      -2.321   0.098   0.811  0.00  0.00    +0.046 C 
ATOM     19  C   UNL     1      -1.101  -0.677   0.386  0.00  0.00    -0.028 A 
ATOM     20  C   UNL     1      -1.098  -1.356  -0.818  0.00  0.00    +0.005 A 
ATOM     21  C   UNL     1       0.021  -2.067  -1.209  0.00  0.00    +0.002 A 
ATOM     22  C   UNL     1       1.141  -2.102  -0.398  0.00  0.00    +0.022 A 
ATOM     23  C   UNL     1       1.145  -1.426   0.806  0.00  0.00    +0.062 A 
ATOM     24  C   UNL     1       0.023  -0.705   1.200  0.00  0.00    +0.055 A 
ATOM     25 CL   UNL     1       2.550  -1.471   1.824  0.00  0.00    -0.082 Cl
ENDBRANCH  14  24
ENDBRANCH   1  15
TORSDOF 3
