REMARK  Name = CHEMBL568542
REMARK  7 active torsions:
REMARK  status: ('A' for Active; 'I' for Inactive)
REMARK    1  A    between atoms: C_1  and  C_2
REMARK    2  A    between atoms: C_2  and  C_3
REMARK    3  A    between atoms: C_2  and  N_14
REMARK    4  A    between atoms: N_5  and  S_10
REMARK    5  A    between atoms: N_8  and  C_9
REMARK    6  A    between atoms: S_10  and  C_13
REMARK    7  A    between atoms: C_19  and  N_21
REMARK                            x       y       z     vdW  Elec       q    Type
REMARK                         _______ _______ _______ _____ _____    ______ ____
ROOT
ATOM      1  N   UNL     1       0.688  -0.476  -1.203  0.00  0.00    -0.309 N 
ATOM      2  C   UNL     1       2.067  -0.590  -1.215  0.00  0.00    +0.217 A 
ATOM      3  N   UNL     1       2.751  -0.272  -0.126  0.00  0.00    -0.223 NA
ATOM      4  C   UNL     1       4.071  -0.368  -0.099  0.00  0.00    +0.118 A 
ATOM      5  C   UNL     1       4.740  -0.807  -1.228  0.00  0.00    +0.066 A 
ATOM      6  C   UNL     1       3.993  -1.134  -2.358  0.00  0.00    +0.144 A 
ATOM      7  N   UNL     1       2.670  -1.019  -2.313  0.00  0.00    -0.197 NA
ATOM      8  H   UNL     1       0.175  -0.710  -1.993  0.00  0.00    +0.149 HD
ENDROOT
BRANCH   6   9
ATOM      9  N   UNL     1       4.624  -1.580  -3.518  0.00  0.00    -0.283 N 
ATOM     10  C   UNL     1       5.966  -1.753  -3.693  0.00  0.00    +0.206 A 
ATOM     11  N   UNL     1       6.207  -2.182  -4.897  0.00  0.00    -0.235 NA
ATOM     12  C   UNL     1       5.039  -2.314  -5.579  0.00  0.00    +0.089 A 
ATOM     13  C   UNL     1       4.007  -1.936  -4.704  0.00  0.00    +0.075 A 
ATOM     14  C   UNL     1       2.688  -1.977  -5.130  0.00  0.00    +0.028 A 
ATOM     15  C   UNL     1       2.393  -2.392  -6.412  0.00  0.00    +0.002 A 
ATOM     16  C   UNL     1       3.408  -2.769  -7.279  0.00  0.00    +0.002 A 
ATOM     17  C   UNL     1       4.724  -2.728  -6.876  0.00  0.00    +0.030 A 
ENDBRANCH   6   9
BRANCH   1  19
ATOM     18  C   UNL     1      -0.019   1.526   0.010  0.00  0.00    +0.029 C 
ATOM     19  C   UNL     1       0.002  -0.004   0.002  0.00  0.00    +0.088 C 
BRANCH  19  20
ATOM     20  C   UNL     1      -1.433  -0.534   0.013  0.00  0.00    +0.092 C 
ATOM     21  C   UNL     1      -2.111  -0.148   1.332  0.00  0.00    +0.129 C 
ATOM     22  N   UNL     1      -3.432  -0.792   1.385  0.00  0.00    -0.179 NA
ATOM     23  C   UNL     1      -3.512  -2.238   1.129  0.00  0.00    +0.124 C 
ATOM     24  C   UNL     1      -2.780  -2.541  -0.183  0.00  0.00    +0.101 C 
ATOM     25  N   UNL     1      -1.417  -1.997  -0.116  0.00  0.00    -0.298 NA
ATOM     26  C   UNL     1      -0.657  -2.613   0.980  0.00  0.00    +0.105 C 
BRANCH  22  27
ATOM     27  S   UNL     1      -4.793   0.088   1.723  0.00  0.00    +0.029 S 
ATOM     28  O   UNL     1      -5.701  -0.850   2.286  0.00  0.00    -0.158 OA
ATOM     29  O   UNL     1      -4.330   1.194   2.486  0.00  0.00    -0.158 OA
ATOM     30  C   UNL     1      -5.398   0.652   0.109  0.00  0.00    +0.215 C 
ENDBRANCH  22  27
ENDBRANCH  19  20
ENDBRANCH   1  19
TORSDOF 4
