REMARK  Name = CHEMBL337689
REMARK  3 active torsions:
REMARK  status: ('A' for Active; 'I' for Inactive)
REMARK    1  A    between atoms: C_1  and  O_2
REMARK    2  A    between atoms: O_2  and  C_3
REMARK    3  A    between atoms: C_4  and  C_20
REMARK                            x       y       z     vdW  Elec       q    Type
REMARK                         _______ _______ _______ _____ _____    ______ ____
ROOT
ATOM      1  C   UNL     1      -1.141  -0.712  -0.039  0.00  0.00    +0.123 C 
ATOM      2  C   UNL     1      -2.355  -0.082  -0.108  0.00  0.00    +0.099 C 
ATOM      3  C   UNL     1      -3.593  -0.899  -0.124  0.00  0.00    +0.189 C 
ATOM      4  C   UNL     1      -3.537  -2.174  -0.526  0.00  0.00    +0.037 C 
ATOM      5  C   UNL     1      -2.213  -2.747  -0.943  0.00  0.00    +0.104 C 
ATOM      6  C   UNL     1      -1.119  -2.216  -0.011  0.00  0.00    +0.141 C 
ATOM      7  C   UNL     1       0.207  -2.754  -0.495  0.00  0.00    +0.175 C 
ATOM      8  O   UNL     1       1.171  -2.030  -0.624  0.00  0.00    -0.291 OA
ATOM      9  C   UNL     1       0.284  -4.197  -0.805  0.00  0.00    +0.029 A 
ATOM     10  C   UNL     1       1.515  -4.834  -0.925  0.00  0.00    +0.012 A 
ATOM     11  C   UNL     1       1.561  -6.188  -1.209  0.00  0.00    +0.001 A 
ATOM     12  C   UNL     1       0.394  -6.914  -1.371  0.00  0.00    +0.001 A 
ATOM     13  C   UNL     1      -0.840  -6.297  -1.259  0.00  0.00    +0.012 A 
ATOM     14  C   UNL     1      -0.907  -4.936  -0.979  0.00  0.00    +0.029 A 
ATOM     15  C   UNL     1      -2.211  -4.254  -0.856  0.00  0.00    +0.172 C 
ATOM     16  O   UNL     1      -3.240  -4.878  -0.706  0.00  0.00    -0.291 OA
ATOM     17  O   UNL     1      -4.776  -0.357   0.269  0.00  0.00    -0.287 OA
ENDROOT
BRANCH   1  19
ATOM     18  C   UNL     1       0.758  -0.053   1.209  0.00  0.00    +0.276 C 
ATOM     19  O   UNL     1       0.002  -0.004  -0.003  0.00  0.00    -0.498 OA
ENDBRANCH   1  19
BRANCH   2  20
ATOM     20  C   UNL     1      -2.428   1.331  -0.164  0.00  0.00    +0.265 C 
ATOM     21  O   UNL     1      -3.508   1.885  -0.136  0.00  0.00    -0.295 OA
ENDBRANCH   2  20
TORSDOF 2
