REMARK  Name = CHEMBL398422
REMARK  4 active torsions:
REMARK  status: ('A' for Active; 'I' for Inactive)
REMARK    1  A    between atoms: C_1  and  C_2
REMARK    2  A    between atoms: C_7  and  N_8
REMARK    3  A    between atoms: N_15  and  C_16
REMARK    4  A    between atoms: C_20  and  C_22
REMARK                            x       y       z     vdW  Elec       q    Type
REMARK                         _______ _______ _______ _____ _____    ______ ____
ROOT
ATOM      1  N   UNL     1      -0.698  -0.161   2.513  0.00  0.00    -0.299 N 
ATOM      2  C   UNL     1      -1.018   1.188   2.490  0.00  0.00    +0.128 A 
ATOM      3  C   UNL     1      -1.395   1.807   1.297  0.00  0.00    +0.063 A 
ATOM      4  C   UNL     1      -1.705   3.153   1.322  0.00  0.00    +0.118 A 
ATOM      5  N   UNL     1      -1.635   3.813   2.469  0.00  0.00    -0.223 NA
ATOM      6  C   UNL     1      -1.274   3.200   3.587  0.00  0.00    +0.221 A 
ATOM      7  N   UNL     1      -0.974   1.909   3.606  0.00  0.00    -0.199 NA
ATOM      8  N   UNL     1      -1.214   3.924   4.765  0.00  0.00    -0.284 N 
ATOM      9  H   UNL     1      -0.330  -0.559   3.317  0.00  0.00    +0.154 HD
ATOM     10  H   UNL     1      -0.873   3.509   5.573  0.00  0.00    +0.155 HD
ENDROOT
BRANCH   1  17
ATOM     11  C   UNL     1      -2.570  -2.257   2.669  0.00  0.00    +0.045 C 
ATOM     12  C   UNL     1      -1.804  -1.975   1.402  0.00  0.00    -0.029 A 
ATOM     13  C   UNL     1      -2.032  -2.768   0.278  0.00  0.00    +0.007 A 
ATOM     14  C   UNL     1      -1.382  -2.574  -0.895  0.00  0.00    +0.030 A 
ATOM     15  C   UNL     1      -0.430  -1.539  -1.020  0.00  0.00    +0.094 A 
ATOM     16  C   UNL     1      -0.166  -0.684   0.149  0.00  0.00    +0.041 A 
ATOM     17  C   UNL     1      -0.906  -0.945   1.380  0.00  0.00    +0.046 A 
ATOM     18  C   UNL     1       0.791   0.230  -0.241  0.00  0.00    +0.115 A 
ATOM     19  N   UNL     1       1.100  -0.019  -1.521  0.00  0.00    -0.284 N 
ATOM     20  N   UNL     1       0.350  -1.103  -1.992  0.00  0.00    -0.174 NA
ATOM     21  H   UNL     1       1.749   0.478  -2.044  0.00  0.00    +0.188 HD
ENDBRANCH   1  17
BRANCH   8  22
ATOM     22  C   UNL     1      -1.645   5.255   4.791  0.00  0.00    +0.034 A 
ATOM     23  C   UNL     1      -2.689   5.663   3.969  0.00  0.00    +0.023 A 
ATOM     24  C   UNL     1      -3.118   6.977   3.990  0.00  0.00    +0.003 A 
ATOM     25  C   UNL     1      -2.513   7.892   4.828  0.00  0.00    +0.013 A 
ATOM     26  C   UNL     1      -1.463   7.492   5.657  0.00  0.00    +0.038 A 
ATOM     27  C   UNL     1      -1.034   6.165   5.640  0.00  0.00    +0.036 A 
BRANCH  26  28
ATOM     28  C   UNL     1      -0.813   8.470   6.555  0.00  0.00    +0.242 C 
ATOM     29  O   UNL     1       0.101   8.120   7.276  0.00  0.00    -0.270 OA
ATOM     30  N   UNL     1      -1.233   9.751   6.573  0.00  0.00    -0.325 N 
ATOM     31  H   UNL     1      -1.962  10.030   5.998  0.00  0.00    +0.145 HD
ATOM     32  H   UNL     1      -0.806  10.393   7.162  0.00  0.00    +0.145 HD
ENDBRANCH  26  28
ENDBRANCH   8  22
TORSDOF 3
