REMARK  Name = CHEMBL220958
REMARK  4 active torsions:
REMARK  status: ('A' for Active; 'I' for Inactive)
REMARK    1  A    between atoms: C_1  and  C_2
REMARK    2  A    between atoms: C_5  and  O_24
REMARK    3  A    between atoms: C_7  and  N_8
REMARK    4  A    between atoms: C_13  and  N_15
REMARK                            x       y       z     vdW  Elec       q    Type
REMARK                         _______ _______ _______ _____ _____    ______ ____
ROOT
ATOM      1  N   UNL     1       0.025  -0.013   2.416  0.00  0.00    -0.283 N 
ATOM      2  C   UNL     1      -0.058  -0.710   3.611  0.00  0.00    +0.221 A 
ATOM      3  N   UNL     1      -0.034  -2.034   3.588  0.00  0.00    -0.223 NA
ATOM      4  C   UNL     1      -0.112  -2.735   4.710  0.00  0.00    +0.118 A 
ATOM      5  C   UNL     1      -0.220  -2.069   5.917  0.00  0.00    +0.066 A 
ATOM      6  C   UNL     1      -0.243  -0.674   5.907  0.00  0.00    +0.144 A 
ATOM      7  N   UNL     1      -0.155  -0.035   4.746  0.00  0.00    -0.196 NA
ATOM      8  H   UNL     1      -0.074   0.952   2.410  0.00  0.00    +0.155 HD
ENDROOT
BRANCH   6   9
ATOM      9  N   UNL     1      -0.350   0.038   7.100  0.00  0.00    -0.283 N 
ATOM     10  C   UNL     1      -0.436  -0.491   8.354  0.00  0.00    +0.206 A 
ATOM     11  N   UNL     1      -0.524   0.462   9.235  0.00  0.00    -0.235 NA
ATOM     12  C   UNL     1      -0.501   1.668   8.610  0.00  0.00    +0.089 A 
ATOM     13  C   UNL     1      -0.384   1.415   7.233  0.00  0.00    +0.075 A 
ATOM     14  C   UNL     1      -0.331   2.473   6.337  0.00  0.00    +0.028 A 
ATOM     15  C   UNL     1      -0.390   3.770   6.802  0.00  0.00    +0.002 A 
ATOM     16  C   UNL     1      -0.502   4.025   8.161  0.00  0.00    +0.002 A 
ATOM     17  C   UNL     1      -0.565   2.988   9.064  0.00  0.00    +0.030 A 
ENDBRANCH   6   9
BRANCH   1  24
ATOM     18  C   UNL     1      -1.155   1.006   0.038  0.00  0.00    +0.045 C 
ATOM     19  C   UNL     1      -0.304  -0.237   0.035  0.00  0.00    -0.029 A 
ATOM     20  C   UNL     1      -0.074  -0.913  -1.148  0.00  0.00    +0.009 A 
ATOM     21  C   UNL     1       0.706  -2.054  -1.154  0.00  0.00    +0.046 A 
ATOM     22  C   UNL     1       1.261  -2.524   0.028  0.00  0.00    +0.119 A 
ATOM     23  C   UNL     1       1.033  -1.849   1.216  0.00  0.00    +0.069 A 
ATOM     24  C   UNL     1       0.253  -0.700   1.220  0.00  0.00    +0.040 A 
BRANCH  22  25
ATOM     25  O   UNL     1       2.027  -3.646   0.020  0.00  0.00    -0.507 OA
ATOM     26  H   UNL     1       2.969  -3.479  -0.124  0.00  0.00    +0.292 HD
ENDBRANCH  22  25
ENDBRANCH   1  24
TORSDOF 3
