REMARK  Name = CHEMBL568543
REMARK  7 active torsions:
REMARK  status: ('A' for Active; 'I' for Inactive)
REMARK    1  A    between atoms: C_1  and  C_2
REMARK    2  A    between atoms: C_2  and  C_3
REMARK    3  A    between atoms: C_2  and  N_17
REMARK    4  A    between atoms: N_5  and  C_10
REMARK    5  A    between atoms: N_8  and  C_9
REMARK    6  A    between atoms: C_10  and  C_11
REMARK    7  A    between atoms: C_22  and  N_24
REMARK                            x       y       z     vdW  Elec       q    Type
REMARK                         _______ _______ _______ _____ _____    ______ ____
ROOT
ATOM      1  C   UNL     1       0.567  -0.101   0.900  0.00  0.00    +0.029 C 
ATOM      2  C   UNL     1      -0.243   0.197  -0.364  0.00  0.00    +0.085 C 
ENDROOT
BRANCH   2   3
ATOM      3  C   UNL     1       0.436  -0.454  -1.570  0.00  0.00    +0.060 C 
ATOM      4  C   UNL     1       1.825   0.156  -1.765  0.00  0.00    -0.057 C 
ATOM      5  N   UNL     1       2.485  -0.483  -2.912  0.00  0.00    +0.384 N 
ATOM      6  C   UNL     1       2.631  -1.922  -2.654  0.00  0.00    -0.063 C 
ATOM      7  C   UNL     1       1.248  -2.550  -2.466  0.00  0.00    +0.066 C 
ATOM      8  N   UNL     1       0.567  -1.900  -1.338  0.00  0.00    -0.304 NA
ATOM      9  C   UNL     1      -0.744  -2.514  -1.089  0.00  0.00    +0.105 C 
ATOM     10  H   UNL     1       1.926  -0.345  -3.741  0.00  0.00    -0.081 HD
BRANCH   5  11
ATOM     11  C   UNL     1       3.811   0.116  -3.110  0.00  0.00    -0.043 C 
BRANCH  11  12
ATOM     12  C   UNL     1       4.438  -0.452  -4.357  0.00  0.00    -0.064 A 
ATOM     13  C   UNL     1       5.213  -1.594  -4.282  0.00  0.00    +0.002 A 
ATOM     14  C   UNL     1       5.788  -2.115  -5.426  0.00  0.00    +0.000 A 
ATOM     15  C   UNL     1       5.587  -1.495  -6.645  0.00  0.00    +0.000 A 
ATOM     16  C   UNL     1       4.810  -0.354  -6.720  0.00  0.00    +0.000 A 
ATOM     17  C   UNL     1       4.232   0.165  -5.577  0.00  0.00    +0.002 A 
ENDBRANCH  11  12
ENDBRANCH   5  11
ENDBRANCH   2   3
BRANCH   2  18
ATOM     18  N   UNL     1      -0.316   1.646  -0.567  0.00  0.00    -0.309 N 
ATOM     19  C   UNL     1      -1.318   2.381   0.041  0.00  0.00    +0.217 A 
ATOM     20  N   UNL     1      -2.202   1.758   0.807  0.00  0.00    -0.223 NA
ATOM     21  C   UNL     1      -3.175   2.428   1.405  0.00  0.00    +0.118 A 
ATOM     22  C   UNL     1      -3.265   3.796   1.223  0.00  0.00    +0.066 A 
ATOM     23  C   UNL     1      -2.321   4.423   0.411  0.00  0.00    +0.144 A 
ATOM     24  N   UNL     1      -1.368   3.690  -0.155  0.00  0.00    -0.197 NA
ATOM     25  H   UNL     1       0.340   2.090  -1.128  0.00  0.00    +0.149 HD
BRANCH  23  26
ATOM     26  N   UNL     1      -2.374   5.799   0.198  0.00  0.00    -0.283 N 
ATOM     27  C   UNL     1      -3.288   6.665   0.724  0.00  0.00    +0.206 A 
ATOM     28  N   UNL     1      -3.040   7.875   0.318  0.00  0.00    -0.235 NA
ATOM     29  C   UNL     1      -1.952   7.873  -0.495  0.00  0.00    +0.089 A 
ATOM     30  C   UNL     1      -1.505   6.543  -0.580  0.00  0.00    +0.075 A 
ATOM     31  C   UNL     1      -0.392   6.235  -1.348  0.00  0.00    +0.028 A 
ATOM     32  C   UNL     1       0.275   7.235  -2.023  0.00  0.00    +0.002 A 
ATOM     33  C   UNL     1      -0.161   8.550  -1.940  0.00  0.00    +0.002 A 
ATOM     34  C   UNL     1      -1.268   8.874  -1.190  0.00  0.00    +0.030 A 
ENDBRANCH  23  26
ENDBRANCH   2  18
TORSDOF 5
