REMARK  Name = CHEMBL1084028
REMARK  8 active torsions:
REMARK  status: ('A' for Active; 'I' for Inactive)
REMARK    1  A    between atoms: C_1  and  N_2
REMARK    2  A    between atoms: N_5  and  C_8
REMARK    3  A    between atoms: C_12  and  C_14
REMARK    4  A    between atoms: C_21  and  C_24
REMARK    5  A    between atoms: C_22  and  N_23
REMARK    6  A    between atoms: C_27  and  N_30
REMARK    7  A    between atoms: N_33  and  C_34
REMARK    8  A    between atoms: C_34  and  C_35
REMARK                            x       y       z     vdW  Elec       q    Type
REMARK                         _______ _______ _______ _____ _____    ______ ____
ROOT
ATOM      1  C   UNL     1       0.255  -5.851   4.536  0.00  0.00    +0.046 A 
ATOM      2  C   UNL     1       1.552  -6.327   4.306  0.00  0.00    +0.145 A 
ATOM      3  N   UNL     1       2.039  -6.787   5.432  0.00  0.00    -0.171 NA
ATOM      4  N   UNL     1       1.086  -6.632   6.444  0.00  0.00    -0.200 N 
ATOM      5  C   UNL     1      -0.023  -6.046   5.895  0.00  0.00    +0.165 A 
ATOM      6  N   UNL     1      -1.099  -5.772   6.641  0.00  0.00    -0.235 NA
ATOM      7  C   UNL     1      -1.132  -6.051   7.924  0.00  0.00    +0.125 A 
ATOM      8  C   UNL     1      -0.022  -6.650   8.545  0.00  0.00    +0.040 A 
ATOM      9  C   UNL     1       1.099  -6.947   7.777  0.00  0.00    +0.129 A 
ENDROOT
BRANCH   1  14
ATOM     10  C   UNL     1      -1.046  -3.666   1.763  0.00  0.00    +0.030 A 
ATOM     11  C   UNL     1      -2.354  -4.124   1.653  0.00  0.00    +0.023 A 
ATOM     12  C   UNL     1      -2.807  -5.137   2.476  0.00  0.00    +0.002 A 
ATOM     13  C   UNL     1      -1.965  -5.701   3.413  0.00  0.00    +0.009 A 
ATOM     14  C   UNL     1      -0.650  -5.248   3.531  0.00  0.00    -0.011 A 
ATOM     15  C   UNL     1      -0.190  -4.230   2.697  0.00  0.00    +0.031 A 
BRANCH  10  20
ATOM     16  C   UNL     1      -0.121   1.402  -0.038  0.00  0.00    -0.096 C 
ATOM     17  N   UNL     1      -0.093  -0.066  -0.036  0.00  0.00    +0.380 N 
ATOM     18  C   UNL     1      -1.468  -0.581  -0.032  0.00  0.00    -0.060 C 
ATOM     19  C   UNL     1      -1.442  -2.108  -0.146  0.00  0.00    +0.086 C 
ATOM     20  N   UNL     1      -0.591  -2.642   0.929  0.00  0.00    -0.333 N 
ATOM     21  C   UNL     1       0.751  -2.065   1.102  0.00  0.00    +0.086 C 
ATOM     22  C   UNL     1       0.621  -0.539   1.157  0.00  0.00    -0.060 C 
ATOM     23  H   UNL     1       0.383  -0.393  -0.863  0.00  0.00    -0.082 HD
ENDBRANCH  10  20
ENDBRANCH   1  14
BRANCH   8  24
ATOM     24  C   UNL     1      -0.050  -6.968   9.993  0.00  0.00    -0.013 A 
ATOM     25  C   UNL     1       0.009  -8.295  10.418  0.00  0.00    +0.010 A 
ATOM     26  C   UNL     1      -0.016  -8.588  11.765  0.00  0.00    +0.024 A 
ATOM     27  C   UNL     1      -0.100  -7.562  12.699  0.00  0.00    +0.035 A 
ATOM     28  C   UNL     1      -0.158  -6.239  12.278  0.00  0.00    +0.024 A 
ATOM     29  C   UNL     1      -0.128  -5.941  10.932  0.00  0.00    +0.010 A 
BRANCH  27  30
ATOM     30  N   UNL     1      -0.126  -7.862  14.066  0.00  0.00    -0.269 N 
ATOM     31  C   UNL     1       0.581  -8.907  14.540  0.00  0.00    +0.304 C 
ATOM     32  O   UNL     1       1.319  -9.528  13.799  0.00  0.00    -0.253 OA
ATOM     33  N   UNL     1       0.470  -9.264  15.835  0.00  0.00    -0.299 N 
ATOM     34  H   UNL     1      -0.653  -7.319  14.672  0.00  0.00    +0.156 HD
ATOM     35  H   UNL     1      -0.119  -8.769  16.425  0.00  0.00    +0.150 HD
BRANCH  33  36
ATOM     36  C   UNL     1       1.239 -10.400  16.350  0.00  0.00    +0.109 C 
BRANCH  36  37
ATOM     37  C   UNL     1       0.932 -10.591  17.837  0.00  0.00    +0.006 C 
ATOM     38  C   UNL     1       1.431  -9.375  18.620  0.00  0.00    +0.005 C 
ATOM     39  C   UNL     1       1.124  -9.566  20.107  0.00  0.00    +0.000 C 
ATOM     40  C   UNL     1       1.829 -10.825  20.616  0.00  0.00    +0.000 C 
ATOM     41  C   UNL     1       1.330 -12.041  19.832  0.00  0.00    +0.000 C 
ATOM     42  C   UNL     1       1.637 -11.850  18.345  0.00  0.00    +0.005 C 
ENDBRANCH  36  37
ENDBRANCH  33  36
ENDBRANCH  27  30
ENDBRANCH   8  24
BRANCH   9  43
ATOM     43  N   UNL     1       2.206  -7.531   8.348  0.00  0.00    -0.343 N 
ATOM     44  H   UNL     1       2.987  -7.724   7.806  0.00  0.00    +0.144 HD
ATOM     45  H   UNL     1       2.205  -7.750   9.293  0.00  0.00    +0.144 HD
ENDBRANCH   9  43
TORSDOF 7
