REMARK  Name = CHEMBL384822
REMARK  5 active torsions:
REMARK  status: ('A' for Active; 'I' for Inactive)
REMARK    1  A    between atoms: C_1  and  C_2
REMARK    2  A    between atoms: C_7  and  N_8
REMARK    3  A    between atoms: C_9  and  C_11
REMARK    4  A    between atoms: C_12  and  C_24
REMARK    5  A    between atoms: C_17  and  C_19
REMARK                            x       y       z     vdW  Elec       q    Type
REMARK                         _______ _______ _______ _____ _____    ______ ____
ROOT
ATOM      1  C   UNL     1      -0.457   0.109   4.800  0.00  0.00    +0.098 A 
ATOM      2  C   UNL     1      -0.818  -0.327   6.067  0.00  0.00    +0.060 A 
ATOM      3  N   UNL     1      -0.823   0.577   7.014  0.00  0.00    -0.229 NA
ATOM      4  C   UNL     1      -0.500   1.834   6.769  0.00  0.00    +0.166 A 
ATOM      5  S   UNL     1      -0.144   1.837   5.124  0.00  0.00    -0.047 S 
ATOM      6  N   UNL     1      -0.458   2.895   7.654  0.00  0.00    -0.260 N 
ATOM      7  C   UNL     1      -0.103   4.121   7.221  0.00  0.00    +0.256 C 
ATOM      8  O   UNL     1       0.181   4.294   6.051  0.00  0.00    -0.269 OA
ATOM      9  C   UNL     1      -1.185  -1.763   6.339  0.00  0.00    +0.067 C 
ATOM     10  H   UNL     1      -0.685   2.757   8.587  0.00  0.00    +0.157 HD
ENDROOT
BRANCH   7  11
ATOM     11  C   UNL     1      -0.058   5.245   8.160  0.00  0.00    +0.074 A 
ATOM     12  C   UNL     1       0.272   6.571   7.921  0.00  0.00    +0.021 A 
ATOM     13  C   UNL     1       0.223   7.404   9.013  0.00  0.00    +0.008 A 
ATOM     14  C   UNL     1      -0.134   6.892  10.217  0.00  0.00    +0.046 A 
ATOM     15  S   UNL     1      -0.422   5.267   9.905  0.00  0.00    -0.092 S 
ENDBRANCH   7  11
BRANCH   1  17
ATOM     16  N   UNL     1       0.026  -0.015   2.417  0.00  0.00    -0.280 N 
ATOM     17  C   UNL     1      -0.354  -0.641   3.548  0.00  0.00    +0.257 C 
ATOM     18  O   UNL     1      -0.612  -1.831   3.528  0.00  0.00    -0.269 OA
ATOM     19  H   UNL     1       0.301   0.915   2.446  0.00  0.00    +0.155 HD
BRANCH  16  26
ATOM     20  C   UNL     1      -2.321   0.099   0.812  0.00  0.00    +0.046 C 
ATOM     21  C   UNL     1      -1.101  -0.676   0.386  0.00  0.00    -0.028 A 
ATOM     22  C   UNL     1      -1.099  -1.354  -0.818  0.00  0.00    +0.005 A 
ATOM     23  C   UNL     1       0.020  -2.066  -1.210  0.00  0.00    +0.002 A 
ATOM     24  C   UNL     1       1.140  -2.103  -0.399  0.00  0.00    +0.022 A 
ATOM     25  C   UNL     1       1.144  -1.427   0.806  0.00  0.00    +0.062 A 
ATOM     26  C   UNL     1       0.023  -0.705   1.200  0.00  0.00    +0.055 A 
ATOM     27 CL   UNL     1       2.550  -1.474   1.824  0.00  0.00    -0.082 Cl
ENDBRANCH  16  26
ENDBRANCH   1  17
TORSDOF 3
