REMARK  Name = CHEMBL165399
REMARK  3 active torsions:
REMARK  status: ('A' for Active; 'I' for Inactive)
REMARK    1  A    between atoms: C_2  and  C_14
REMARK    2  A    between atoms: C_4  and  S_10
REMARK    3  A    between atoms: C_6  and  C_7
REMARK                            x       y       z     vdW  Elec       q    Type
REMARK                         _______ _______ _______ _____ _____    ______ ____
ROOT
ATOM      1  C   UNL     1      -0.017   1.390   0.010  0.00  0.00    +0.030 A 
ATOM      2  C   UNL     1       1.185   2.097   0.002  0.00  0.00    +0.066 A 
ATOM      3  C   UNL     1       2.400   1.404  -0.013  0.00  0.00    +0.044 A 
ATOM      4  C   UNL     1       2.410   0.023  -0.021  0.00  0.00    +0.121 A 
ATOM      5  C   UNL     1       1.224  -0.683  -0.014  0.00  0.00    +0.044 A 
ATOM      6  C   UNL     1       0.002  -0.004   0.002  0.00  0.00    +0.066 A 
ENDROOT
BRANCH   4   7
ATOM      7  S   UNL     1       3.946  -0.841  -0.041  0.00  0.00    +0.140 S 
ATOM      8  O   UNL     1       3.716  -2.095  -0.742  0.00  0.00    -0.140 OA
ATOM      9  O   UNL     1       4.899   0.006  -0.742  0.00  0.00    -0.140 OA
ATOM     10  O   UNL     1       4.327  -1.056   1.346  0.00  0.00    -0.043 OA
ENDBRANCH   4   7
BRANCH   6  11
ATOM     11  C   UNL     1      -1.265  -0.761   0.011  0.00  0.00    +0.387 C 
ATOM     12  O   UNL     1      -2.333  -0.166   0.024  0.00  0.00    -0.241 OA
ATOM     13  O   UNL     1      -1.246  -1.984   0.004  0.00  0.00    -0.241 OA
ENDBRANCH   6  11
BRANCH   2  14
ATOM     14  C   UNL     1       1.175   3.572   0.009  0.00  0.00    +0.387 C 
ATOM     15  O   UNL     1       0.112   4.177   0.022  0.00  0.00    -0.241 OA
ATOM     16  O   UNL     1       2.230   4.191   0.003  0.00  0.00    -0.241 OA
ENDBRANCH   2  14
TORSDOF 3
