REMARK  Name = CHEMBL187802
REMARK  9 active torsions:
REMARK  status: ('A' for Active; 'I' for Inactive)
REMARK    1  A    between atoms: C_1  and  C_2
REMARK    2  A    between atoms: C_7  and  N_8
REMARK    3  A    between atoms: C_18  and  N_22
REMARK    4  A    between atoms: N_22  and  C_23
REMARK    5  A    between atoms: N_22  and  C_24
REMARK    6  A    between atoms: C_24  and  C_25
REMARK    7  A    between atoms: C_25  and  N_26
REMARK    8  A    between atoms: N_26  and  C_27
REMARK    9  A    between atoms: N_26  and  C_28
REMARK                            x       y       z     vdW  Elec       q    Type
REMARK                         _______ _______ _______ _____ _____    ______ ____
ROOT
ATOM      1  N   UNL     1       0.025  -0.015   2.416  0.00  0.00    -0.296 N 
ATOM      2  C   UNL     1      -0.365  -0.657   3.575  0.00  0.00    +0.149 A 
ATOM      3  C   UNL     1      -0.474   0.092   4.824  0.00  0.00    +0.106 A 
ATOM      4  C   UNL     1      -0.268   1.403   5.178  0.00  0.00    +0.142 A 
ATOM      5  N   UNL     1      -0.527   1.512   6.483  0.00  0.00    -0.243 NA
ATOM      6  C   UNL     1      -0.883   0.346   6.963  0.00  0.00    +0.204 A 
ATOM      7  N   UNL     1      -0.865  -0.565   5.977  0.00  0.00    -0.293 N 
ATOM      8  C   UNL     1      -1.143  -1.926   5.907  0.00  0.00    +0.092 A 
ATOM      9  C   UNL     1      -1.539  -2.633   7.029  0.00  0.00    +0.141 A 
ATOM     10  N   UNL     1      -1.800  -3.925   6.952  0.00  0.00    -0.238 NA
ATOM     11  C   UNL     1      -1.699  -4.599   5.814  0.00  0.00    +0.123 A 
ATOM     12  C   UNL     1      -1.309  -3.971   4.643  0.00  0.00    +0.073 A 
ATOM     13  C   UNL     1      -1.021  -2.600   4.677  0.00  0.00    +0.095 A 
ATOM     14  N   UNL     1      -0.643  -1.945   3.554  0.00  0.00    -0.228 NA
ATOM     15  H   UNL     1       0.225   0.934   2.431  0.00  0.00    +0.154 HD
ENDROOT
BRANCH   1  22
ATOM     16  C   UNL     1       2.530  -1.202   1.779  0.00  0.00    +0.046 C 
ATOM     17  C   UNL     1       1.335  -1.328   0.871  0.00  0.00    -0.028 A 
ATOM     18  C   UNL     1       1.434  -2.041  -0.308  0.00  0.00    +0.005 A 
ATOM     19  C   UNL     1       0.338  -2.158  -1.143  0.00  0.00    +0.002 A 
ATOM     20  C   UNL     1      -0.862  -1.562  -0.800  0.00  0.00    +0.022 A 
ATOM     21  C   UNL     1      -0.969  -0.847   0.377  0.00  0.00    +0.062 A 
ATOM     22  C   UNL     1       0.130  -0.733   1.221  0.00  0.00    +0.054 A 
ATOM     23 CL   UNL     1      -2.476  -0.099   0.806  0.00  0.00    -0.082 Cl
ENDBRANCH   1  22
BRANCH  11  24
ATOM     24  N   UNL     1      -1.988  -5.961   5.797  0.00  0.00    -0.320 N 
ATOM     25  C   UNL     1      -1.775  -6.740   4.574  0.00  0.00    +0.130 C 
BRANCH  24  26
ATOM     26  C   UNL     1      -2.505  -6.615   7.001  0.00  0.00    +0.087 C 
BRANCH  26  27
ATOM     27  C   UNL     1      -4.034  -6.551   6.999  0.00  0.00    -0.060 C 
BRANCH  27  28
ATOM     28  N   UNL     1      -4.553  -7.207   8.207  0.00  0.00    +0.377 N 
ATOM     29  C   UNL     1      -6.011  -7.042   8.266  0.00  0.00    -0.097 C 
ATOM     30  C   UNL     1      -4.224  -8.638   8.167  0.00  0.00    -0.097 C 
ATOM     31  H   UNL     1      -4.133  -6.789   9.024  0.00  0.00    -0.083 HD
ENDBRANCH  27  28
ENDBRANCH  26  27
ENDBRANCH  24  26
ENDBRANCH  11  24
TORSDOF 5
