REMARK  Name = CHEMBL1082959
REMARK  10 active torsions:
REMARK  status: ('A' for Active; 'I' for Inactive)
REMARK    1  A    between atoms: C_1  and  C_2
REMARK    2  A    between atoms: C_2  and  C_3
REMARK    3  A    between atoms: C_2  and  C_4
REMARK    4  A    between atoms: C_4  and  O_5
REMARK    5  A    between atoms: O_5  and  C_6
REMARK    6  A    between atoms: N_8  and  C_9
REMARK    7  A    between atoms: C_12  and  C_15
REMARK    8  A    between atoms: C_19  and  C_25
REMARK    9  A    between atoms: C_23  and  N_24
REMARK   10  A    between atoms: C_29  and  N_31
REMARK                            x       y       z     vdW  Elec       q    Type
REMARK                         _______ _______ _______ _____ _____    ______ ____
ROOT
ATOM      1  C   UNL     1      -7.539  -6.751   0.100  0.00  0.00    +0.040 A 
ATOM      2  C   UNL     1      -8.336  -6.690   1.256  0.00  0.00    +0.125 A 
ATOM      3  N   UNL     1      -9.466  -7.359   1.315  0.00  0.00    -0.235 NA
ATOM      4  C   UNL     1      -9.886  -8.108   0.290  0.00  0.00    +0.165 A 
ATOM      5  C   UNL     1     -11.028  -8.899   0.107  0.00  0.00    +0.046 A 
ATOM      6  C   UNL     1     -10.944  -9.459  -1.173  0.00  0.00    +0.145 A 
ATOM      7  N   UNL     1      -9.838  -9.048  -1.743  0.00  0.00    -0.171 NA
ATOM      8  N   UNL     1      -9.152  -8.204  -0.862  0.00  0.00    -0.200 N 
ATOM      9  C   UNL     1      -7.970  -7.522  -0.974  0.00  0.00    +0.129 A 
ENDROOT
BRANCH   1  13
ATOM     10  C   UNL     1      -3.878  -4.596  -0.115  0.00  0.00    +0.036 A 
ATOM     11  C   UNL     1      -5.082  -3.910  -0.015  0.00  0.00    +0.024 A 
ATOM     12  C   UNL     1      -6.270  -4.606   0.055  0.00  0.00    +0.010 A 
ATOM     13  C   UNL     1      -6.263  -6.000   0.025  0.00  0.00    -0.013 A 
ATOM     14  C   UNL     1      -5.053  -6.686  -0.076  0.00  0.00    +0.010 A 
ATOM     15  C   UNL     1      -3.868  -5.985  -0.151  0.00  0.00    +0.024 A 
BRANCH  10  18
ATOM     16  C   UNL     1      -2.525  -2.740   0.506  0.00  0.00    +0.405 C 
ATOM     17  O   UNL     1      -3.462  -2.279   1.126  0.00  0.00    -0.226 OA
ATOM     18  N   UNL     1      -2.673  -3.887  -0.186  0.00  0.00    -0.251 N 
ATOM     19  H   UNL     1      -1.945  -4.221  -0.733  0.00  0.00    +0.158 HD
BRANCH  16  20
ATOM     20  O   UNL     1      -1.337  -2.105   0.510  0.00  0.00    -0.450 OA
BRANCH  20  21
ATOM     21  C   UNL     1      -1.251  -0.895   1.264  0.00  0.00    +0.236 C 
BRANCH  21  23
ATOM     22  C   UNL     1       0.222   1.036   1.853  0.00  0.00    +0.010 C 
ATOM     23  C   UNL     1       0.163  -0.322   1.150  0.00  0.00    +0.021 C 
ATOM     24  C   UNL     1       1.156  -1.281   1.810  0.00  0.00    +0.010 C 
ENDBRANCH  21  23
ENDBRANCH  20  21
ENDBRANCH  16  20
ENDBRANCH  10  18
ENDBRANCH   1  13
BRANCH   5  25
ATOM     25  C   UNL     1     -12.120  -9.105   1.087  0.00  0.00    -0.011 A 
ATOM     26  C   UNL     1     -11.821  -9.461   2.403  0.00  0.00    +0.009 A 
ATOM     27  C   UNL     1     -12.840  -9.653   3.314  0.00  0.00    +0.002 A 
ATOM     28  C   UNL     1     -14.158  -9.494   2.928  0.00  0.00    +0.023 A 
ATOM     29  C   UNL     1     -14.465  -9.139   1.619  0.00  0.00    +0.030 A 
ATOM     30  C   UNL     1     -13.447  -8.939   0.699  0.00  0.00    +0.031 A 
BRANCH  29  31
ATOM     31  N   UNL     1     -15.798  -8.980   1.233  0.00  0.00    -0.325 N 
ATOM     32  C   UNL     1     -16.155  -8.728  -0.172  0.00  0.00    +0.133 C 
ATOM     33  C   UNL     1     -17.247  -9.723  -0.579  0.00  0.00    +0.178 C 
ATOM     34  O   UNL     1     -18.316  -9.662   0.368  0.00  0.00    -0.377 OA
ATOM     35  C   UNL     1     -17.943 -10.038   1.696  0.00  0.00    +0.178 C 
ATOM     36  C   UNL     1     -16.887  -9.065   2.219  0.00  0.00    +0.133 C 
ENDBRANCH  29  31
ENDBRANCH   5  25
BRANCH   9  37
ATOM     37  N   UNL     1      -7.220  -7.603  -2.125  0.00  0.00    -0.343 N 
ATOM     38  H   UNL     1      -6.382  -7.119  -2.193  0.00  0.00    +0.144 HD
ATOM     39  H   UNL     1      -7.529  -8.144  -2.869  0.00  0.00    +0.144 HD
ENDBRANCH   9  37
TORSDOF 8
