REMARK  Name = CHEMBL255989
REMARK  14 active torsions:
REMARK  status: ('A' for Active; 'I' for Inactive)
REMARK    1  A    between atoms: C_1  and  C_2
REMARK    2  A    between atoms: C_5  and  C_30
REMARK    3  A    between atoms: C_7  and  N_8
REMARK    4  A    between atoms: C_9  and  C_11
REMARK    5  A    between atoms: C_16  and  O_17
REMARK    6  A    between atoms: O_17  and  C_18
REMARK    7  A    between atoms: N_19  and  C_20
REMARK    8  A    between atoms: C_20  and  C_21
REMARK    9  A    between atoms: C_21  and  C_22
REMARK   10  A    between atoms: C_22  and  N_23
REMARK   11  A    between atoms: N_26  and  C_29
REMARK   12  A    between atoms: N_32  and  C_33
REMARK   13  A    between atoms: C_37  and  C_40
REMARK   14  A    between atoms: C_38  and  C_39
REMARK                            x       y       z     vdW  Elec       q    Type
REMARK                         _______ _______ _______ _____ _____    ______ ____
ROOT
ATOM      1  N   UNL     1       0.075   0.244   2.946  0.00  0.00    -0.281 N 
ATOM      2  C   UNL     1      -0.072  -0.543   4.030  0.00  0.00    +0.255 C 
ATOM      3  O   UNL     1      -0.105  -1.752   3.904  0.00  0.00    -0.270 OA
ATOM      4  H   UNL     1       0.168   1.203   3.052  0.00  0.00    +0.155 HD
ENDROOT
BRANCH   2   5
ATOM      5  C   UNL     1      -0.191   0.061   5.368  0.00  0.00    +0.117 A 
ATOM      6  C   UNL     1      -0.160   1.450   5.534  0.00  0.00    +0.132 A 
ATOM      7  N   UNL     1      -0.270   1.953   6.750  0.00  0.00    -0.222 NA
ATOM      8  C   UNL     1      -0.408   1.163   7.808  0.00  0.00    +0.218 A 
ATOM      9  N   UNL     1      -0.443  -0.157   7.699  0.00  0.00    -0.179 NA
ATOM     10  C   UNL     1      -0.345  -0.744   6.514  0.00  0.00    +0.231 A 
ATOM     11  N   UNL     1      -0.519   1.734   9.059  0.00  0.00    -0.313 N 
ATOM     12  H   UNL     1      -0.621   1.171   9.842  0.00  0.00    +0.149 HD
BRANCH  10  13
ATOM     13  O   UNL     1      -0.387  -2.092   6.409  0.00  0.00    -0.479 OA
ATOM     14  C   UNL     1      -0.545  -2.833   7.620  0.00  0.00    +0.279 C 
ENDBRANCH  10  13
BRANCH  11  15
ATOM     15  C   UNL     1      -0.483   3.192   9.204  0.00  0.00    +0.102 C 
BRANCH  15  16
ATOM     16  C   UNL     1      -0.625   3.560  10.682  0.00  0.00    +0.000 C 
BRANCH  16  17
ATOM     17  C   UNL     1      -0.588   5.082  10.835  0.00  0.00    -0.077 C 
BRANCH  17  18
ATOM     18  N   UNL     1      -0.724   5.436  12.254  0.00  0.00    +0.381 N 
ATOM     19  C   UNL     1      -2.050   5.028  12.735  0.00  0.00    -0.063 C 
ATOM     20  C   UNL     1      -2.186   5.379  14.218  0.00  0.00    +0.065 C 
ATOM     21  N   UNL     1      -2.005   6.827  14.394  0.00  0.00    -0.309 NA
ATOM     22  C   UNL     1      -0.691   7.254  13.894  0.00  0.00    +0.065 C 
ATOM     23  C   UNL     1      -0.568   6.888  12.413  0.00  0.00    -0.063 C 
ATOM     24  C   UNL     1      -2.184   7.213  15.800  0.00  0.00    +0.104 C 
ATOM     25  H   UNL     1      -0.012   4.961  12.788  0.00  0.00    -0.082 HD
ENDBRANCH  17  18
ENDBRANCH  16  17
ENDBRANCH  15  16
ENDBRANCH  11  15
ENDBRANCH   2   5
BRANCH   1  32
ATOM     26  C   UNL     1      -1.092   1.715   0.813  0.00  0.00    +0.045 C 
ATOM     27  C   UNL     1      -0.466   0.361   0.595  0.00  0.00    -0.029 A 
ATOM     28  C   UNL     1      -0.445  -0.192  -0.671  0.00  0.00    +0.006 A 
ATOM     29  C   UNL     1       0.126  -1.431  -0.879  0.00  0.00    +0.013 A 
ATOM     30  C   UNL     1       0.686  -2.130   0.193  0.00  0.00    +0.039 A 
ATOM     31  C   UNL     1       0.666  -1.571   1.470  0.00  0.00    +0.036 A 
ATOM     32  C   UNL     1       0.093  -0.324   1.667  0.00  0.00    +0.037 A 
BRANCH  30  33
ATOM     33  C   UNL     1       1.298  -3.457  -0.026  0.00  0.00    +0.248 C 
ATOM     34  O   UNL     1       1.786  -4.064   0.908  0.00  0.00    -0.270 OA
ATOM     35  N   UNL     1       1.317  -3.995  -1.262  0.00  0.00    -0.281 N 
ATOM     36  H   UNL     1       0.988  -3.485  -2.018  0.00  0.00    +0.155 HD
BRANCH  35  37
ATOM     37  C   UNL     1       1.810  -5.290  -1.454  0.00  0.00    +0.037 A 
ATOM     38  C   UNL     1       2.869  -5.753  -0.683  0.00  0.00    +0.023 A 
ATOM     39  C   UNL     1       3.353  -7.031  -0.874  0.00  0.00    +0.002 A 
ATOM     40  C   UNL     1       2.785  -7.851  -1.833  0.00  0.00    +0.013 A 
ATOM     41  C   UNL     1       1.732  -7.394  -2.602  0.00  0.00    +0.059 A 
ATOM     42  C   UNL     1       1.238  -6.117  -2.411  0.00  0.00    -0.018 A 
ATOM     43  C   UNL     1       0.086  -5.622  -3.246  0.00  0.00    +0.046 C 
BRANCH  41  44
ATOM     44  C   UNL     1       1.117  -8.290  -3.646  0.00  0.00    +0.418 C 
ATOM     45  F   UNL     1       1.776  -9.524  -3.648  0.00  0.00    -0.166 F 
ATOM     46  F   UNL     1      -0.237  -8.486  -3.353  0.00  0.00    -0.166 F 
ATOM     47  F   UNL     1       1.240  -7.693  -4.905  0.00  0.00    -0.166 F 
ENDBRANCH  41  44
ENDBRANCH  35  37
ENDBRANCH  30  33
ENDBRANCH   1  32
TORSDOF 10
