REMARK  Name = CHEMBL270057
REMARK  8 active torsions:
REMARK  status: ('A' for Active; 'I' for Inactive)
REMARK    1  A    between atoms: C_1  and  C_2
REMARK    2  A    between atoms: C_6  and  N_8
REMARK    3  A    between atoms: C_19  and  O_21
REMARK    4  A    between atoms: O_21  and  C_22
REMARK    5  A    between atoms: C_29  and  O_34
REMARK    6  A    between atoms: C_30  and  O_32
REMARK    7  A    between atoms: O_32  and  C_33
REMARK    8  A    between atoms: O_34  and  C_35
REMARK                            x       y       z     vdW  Elec       q    Type
REMARK                         _______ _______ _______ _____ _____    ______ ____
ROOT
ATOM      1  N   UNL     1       0.307  -5.071   1.304  0.00  0.00    -0.269 N 
ATOM      2  C   UNL     1       0.298  -4.367   2.453  0.00  0.00    +0.311 C 
ATOM      3  O   UNL     1       0.419  -3.158   2.427  0.00  0.00    -0.252 OA
ATOM      4  N   UNL     1       0.154  -5.005   3.632  0.00  0.00    -0.249 N 
ATOM      5  C   UNL     1      -0.036  -6.464   3.692  0.00  0.00    +0.156 C 
ATOM      6  C   UNL     1      -1.115  -6.748   4.746  0.00  0.00    +0.248 C 
ATOM      7  O   UNL     1      -0.689  -6.208   5.999  0.00  0.00    -0.488 OA
ATOM      8  C   UNL     1      -0.248  -4.923   6.019  0.00  0.00    +0.145 A 
ATOM      9  C   UNL     1       0.187  -4.300   4.850  0.00  0.00    +0.080 A 
ATOM     10  C   UNL     1       0.644  -2.992   4.883  0.00  0.00    +0.031 A 
ATOM     11  C   UNL     1       0.672  -2.300   6.080  0.00  0.00    +0.048 A 
ATOM     12  C   UNL     1       0.244  -2.916   7.247  0.00  0.00    +0.132 A 
ATOM     13  C   UNL     1      -0.224  -4.225   7.216  0.00  0.00    +0.093 A 
ATOM     14  H   UNL     1       0.105  -6.019   1.314  0.00  0.00    +0.156 HD
ENDROOT
BRANCH   1  20
ATOM     15  C   UNL     1       2.061  -5.303  -3.284  0.00  0.00    +0.044 C 
ATOM     16  C   UNL     1       1.459  -4.521  -2.145  0.00  0.00    -0.049 A 
ATOM     17  C   UNL     1       1.204  -3.170  -2.294  0.00  0.00    +0.003 A 
ATOM     18  C   UNL     1       0.652  -2.449  -1.251  0.00  0.00    +0.002 A 
ATOM     19  C   UNL     1       0.353  -3.076  -0.057  0.00  0.00    +0.023 A 
ATOM     20  C   UNL     1       0.608  -4.432   0.095  0.00  0.00    +0.035 A 
ATOM     21  C   UNL     1       1.157  -5.155  -0.956  0.00  0.00    +0.026 A 
ENDBRANCH   1  20
BRANCH  12  22
ATOM     22  O   UNL     1       0.272  -2.234   8.422  0.00  0.00    -0.455 OA
BRANCH  22  23
ATOM     23  C   UNL     1       1.275  -2.507   9.293  0.00  0.00    +0.139 A 
ATOM     24  C   UNL     1       2.328  -3.329   8.932  0.00  0.00    +0.066 A 
ATOM     25  C   UNL     1       3.342  -3.590   9.845  0.00  0.00    +0.115 A 
ATOM     26  N   UNL     1       3.334  -3.076  11.053  0.00  0.00    -0.255 NA
ATOM     27  C   UNL     1       2.348  -2.273  11.468  0.00  0.00    +0.078 A 
ATOM     28  C   UNL     1       1.281  -1.955  10.593  0.00  0.00    +0.046 A 
ATOM     29  C   UNL     1       0.250  -1.108  11.030  0.00  0.00    +0.063 A 
ATOM     30  C   UNL     1       0.288  -0.594  12.293  0.00  0.00    +0.162 A 
ATOM     31  C   UNL     1       1.347  -0.903  13.160  0.00  0.00    +0.164 A 
ATOM     32  C   UNL     1       2.356  -1.732  12.765  0.00  0.00    +0.077 A 
BRANCH  31  33
ATOM     33  O   UNL     1       1.362  -0.378  14.413  0.00  0.00    -0.491 OA
ATOM     34  C   UNL     1       2.466  -0.729  15.250  0.00  0.00    +0.277 C 
ENDBRANCH  31  33
BRANCH  30  35
ATOM     35  O   UNL     1      -0.710   0.227  12.716  0.00  0.00    -0.491 OA
ATOM     36  C   UNL     1      -1.760   0.504  11.786  0.00  0.00    +0.277 C 
ENDBRANCH  30  35
ENDBRANCH  22  23
ENDBRANCH  12  22
TORSDOF 5
