REMARK  Name = CHEMBL567880
REMARK  6 active torsions:
REMARK  status: ('A' for Active; 'I' for Inactive)
REMARK    1  A    between atoms: C_1  and  C_2
REMARK    2  A    between atoms: C_2  and  C_3
REMARK    3  A    between atoms: C_2  and  N_18
REMARK    4  A    between atoms: C_9  and  O_11
REMARK    5  A    between atoms: O_11  and  C_12
REMARK    6  A    between atoms: C_23  and  N_25
REMARK                            x       y       z     vdW  Elec       q    Type
REMARK                         _______ _______ _______ _____ _____    ______ ____
ROOT
ATOM      1  C   UNL     1       0.016   1.416  -0.046  0.00  0.00    +0.028 C 
ATOM      2  C   UNL     1      -0.003  -0.114  -0.077  0.00  0.00    +0.075 C 
ENDROOT
BRANCH   2   3
ATOM      3  C   UNL     1      -1.451  -0.607  -0.048  0.00  0.00    +0.027 C 
ATOM      4  C   UNL     1      -2.167  -0.164  -1.326  0.00  0.00    +0.008 C 
ATOM      5  C   UNL     1      -3.606  -0.685  -1.313  0.00  0.00    +0.019 C 
ATOM      6  C   UNL     1      -4.349  -0.090  -0.112  0.00  0.00    +0.111 C 
ATOM      7  N   UNL     1      -3.588  -0.388   1.109  0.00  0.00    -0.267 N 
ATOM      8  C   UNL     1      -2.170  -0.011   1.167  0.00  0.00    +0.116 C 
ATOM      9  C   UNL     1      -4.181  -0.995   2.156  0.00  0.00    +0.408 C 
ATOM     10  O   UNL     1      -3.541  -1.236   3.161  0.00  0.00    -0.226 OA
BRANCH   9  11
ATOM     11  O   UNL     1      -5.483  -1.335   2.089  0.00  0.00    -0.411 OA
BRANCH  11  12
ATOM     12  C   UNL     1      -6.014  -2.035   3.126  0.00  0.00    +0.133 A 
ATOM     13  C   UNL     1      -6.232  -3.400   3.003  0.00  0.00    +0.046 A 
ATOM     14  C   UNL     1      -6.772  -4.109   4.059  0.00  0.00    +0.004 A 
ATOM     15  C   UNL     1      -7.094  -3.461   5.237  0.00  0.00    +0.000 A 
ATOM     16  C   UNL     1      -6.878  -2.101   5.361  0.00  0.00    +0.004 A 
ATOM     17  C   UNL     1      -6.333  -1.388   4.311  0.00  0.00    +0.046 A 
ENDBRANCH  11  12
ENDBRANCH   9  11
ENDBRANCH   2   3
BRANCH   2  18
ATOM     18  N   UNL     1       0.714  -0.634   1.090  0.00  0.00    -0.311 N 
ATOM     19  C   UNL     1       2.089  -0.782   1.048  0.00  0.00    +0.217 A 
ATOM     20  N   UNL     1       2.742  -0.443  -0.054  0.00  0.00    -0.223 NA
ATOM     21  C   UNL     1       4.058  -0.571  -0.131  0.00  0.00    +0.118 A 
ATOM     22  C   UNL     1       4.754  -1.065   0.957  0.00  0.00    +0.066 A 
ATOM     23  C   UNL     1       4.039  -1.413   2.102  0.00  0.00    +0.144 A 
ATOM     24  N   UNL     1       2.720  -1.255   2.113  0.00  0.00    -0.197 NA
ATOM     25  H   UNL     1       0.224  -0.875   1.892  0.00  0.00    +0.149 HD
BRANCH  23  26
ATOM     26  N   UNL     1       4.699  -1.915   3.222  0.00  0.00    -0.283 N 
ATOM     27  C   UNL     1       6.043  -2.117   3.347  0.00  0.00    +0.206 A 
ATOM     28  N   UNL     1       6.314  -2.596   4.525  0.00  0.00    -0.235 NA
ATOM     29  C   UNL     1       5.167  -2.737   5.239  0.00  0.00    +0.089 A 
ATOM     30  C   UNL     1       4.115  -2.298   4.417  0.00  0.00    +0.075 A 
ATOM     31  C   UNL     1       2.811  -2.321   4.889  0.00  0.00    +0.028 A 
ATOM     32  C   UNL     1       2.551  -2.773   6.165  0.00  0.00    +0.002 A 
ATOM     33  C   UNL     1       3.586  -3.205   6.982  0.00  0.00    +0.002 A 
ATOM     34  C   UNL     1       4.886  -3.196   6.528  0.00  0.00    +0.030 A 
ENDBRANCH  23  26
ENDBRANCH   2  18
TORSDOF 5
