REMARK  Name = CHEMBL385055
REMARK  9 active torsions:
REMARK  status: ('A' for Active; 'I' for Inactive)
REMARK    1  A    between atoms: C_1  and  C_2
REMARK    2  A    between atoms: C_5  and  C_20
REMARK    3  A    between atoms: C_7  and  C_8
REMARK    4  A    between atoms: N_18  and  C_19
REMARK    5  A    between atoms: N_22  and  C_23
REMARK    6  A    between atoms: C_25  and  C_36
REMARK    7  A    between atoms: C_28  and  N_29
REMARK    8  A    between atoms: C_31  and  C_34
REMARK    9  A    between atoms: C_31  and  C_35
REMARK                            x       y       z     vdW  Elec       q    Type
REMARK                         _______ _______ _______ _____ _____    ______ ____
ROOT
ATOM      1  C   UNL     1       0.063  -4.259  -0.034  0.00  0.00    +0.248 C 
ATOM      2  O   UNL     1       0.070  -4.879   1.012  0.00  0.00    -0.270 OA
ATOM      3  N   UNL     1       0.062  -4.919  -1.209  0.00  0.00    -0.280 N 
ATOM      4  H   UNL     1      -0.024  -4.428  -2.041  0.00  0.00    +0.155 HD
ENDROOT
BRANCH   1   9
ATOM      5  C   UNL     1       0.032   1.504   0.009  0.00  0.00    +0.044 C 
ATOM      6  C   UNL     1       0.040  -0.003   0.001  0.00  0.00    -0.043 A 
ATOM      7  C   UNL     1       0.040  -0.686  -1.200  0.00  0.00    +0.005 A 
ATOM      8  C   UNL     1       0.048  -2.066  -1.216  0.00  0.00    +0.013 A 
ATOM      9  C   UNL     1       0.055  -2.781  -0.016  0.00  0.00    +0.038 A 
ATOM     10  C   UNL     1       0.055  -2.096   1.198  0.00  0.00    +0.021 A 
ATOM     11  C   UNL     1       0.054  -0.705   1.206  0.00  0.00    -0.014 A 
BRANCH  11  12
ATOM     12  C   UNL     1       0.060   0.031   2.494  0.00  0.00    -0.017 A 
ATOM     13  C   UNL     1       0.987   1.065   2.700  0.00  0.00    +0.010 A 
ATOM     14  C   UNL     1       1.015   1.756   3.871  0.00  0.00    +0.029 A 
ATOM     15  C   UNL     1       0.108   1.437   4.894  0.00  0.00    +0.076 A 
ATOM     16  C   UNL     1      -0.833   0.393   4.695  0.00  0.00    +0.019 A 
ATOM     17  C   UNL     1      -0.850  -0.304   3.480  0.00  0.00    +0.020 A 
ATOM     18  C   UNL     1      -1.731   0.094   5.737  0.00  0.00    +0.124 A 
ATOM     19  N   UNL     1      -1.658   0.795   6.849  0.00  0.00    -0.222 NA
ATOM     20  C   UNL     1      -0.762   1.769   7.001  0.00  0.00    +0.215 A 
ATOM     21  N   UNL     1       0.103   2.093   6.060  0.00  0.00    -0.215 NA
ATOM     22  N   UNL     1      -0.739   2.469   8.194  0.00  0.00    -0.317 N 
ATOM     23  C   UNL     1      -1.688   2.133   9.259  0.00  0.00    +0.128 C 
ATOM     24  H   UNL     1      -0.094   3.181   8.325  0.00  0.00    +0.149 HD
ENDBRANCH  11  12
ENDBRANCH   1   9
BRANCH   3  25
ATOM     25  C   UNL     1       0.186  -6.313  -1.229  0.00  0.00    +0.056 A 
ATOM     26  C   UNL     1       0.805  -6.971  -0.176  0.00  0.00    +0.037 A 
ATOM     27  C   UNL     1       0.927  -8.348  -0.198  0.00  0.00    +0.057 A 
ATOM     28  C   UNL     1       0.432  -9.073  -1.267  0.00  0.00    +0.014 A 
ATOM     29  C   UNL     1      -0.186  -8.426  -2.320  0.00  0.00    +0.026 A 
ATOM     30  C   UNL     1      -0.317  -7.045  -2.304  0.00  0.00    +0.058 A 
BRANCH  30  31
ATOM     31  N   UNL     1      -0.949  -6.387  -3.367  0.00  0.00    -0.268 N 
ATOM     32  C   UNL     1      -0.466  -5.834  -4.625  0.00  0.00    +0.129 C 
ATOM     33  C   UNL     1      -1.900  -5.416  -4.929  0.00  0.00    +0.058 C 
ATOM     34  C   UNL     1      -2.220  -6.040  -3.603  0.00  0.00    +0.227 C 
ATOM     35  O   UNL     1      -3.250  -6.179  -2.977  0.00  0.00    -0.275 OA
ATOM     36  C   UNL     1      -2.521  -6.148  -6.121  0.00  0.00    +0.022 C 
ATOM     37  C   UNL     1      -2.109  -3.901  -4.976  0.00  0.00    +0.022 C 
ENDBRANCH  30  31
BRANCH  27  38
ATOM     38  C   UNL     1       1.600  -9.061   0.946  0.00  0.00    +0.417 C 
ATOM     39  F   UNL     1       0.647  -9.394   1.915  0.00  0.00    -0.166 F 
ATOM     40  F   UNL     1       2.212 -10.227   0.474  0.00  0.00    -0.166 F 
ATOM     41  F   UNL     1       2.567  -8.224   1.513  0.00  0.00    -0.166 F 
ENDBRANCH  27  38
ENDBRANCH   3  25
TORSDOF 5
