REMARK  Name = CHEMBL584721
REMARK  5 active torsions:
REMARK  status: ('A' for Active; 'I' for Inactive)
REMARK    1  A    between atoms: C_1  and  C_2
REMARK    2  A    between atoms: C_2  and  C_4
REMARK    3  A    between atoms: C_2  and  N_10
REMARK    4  A    between atoms: C_15  and  N_17
REMARK    5  A    between atoms: C_24  and  C_26
REMARK                            x       y       z     vdW  Elec       q    Type
REMARK                         _______ _______ _______ _____ _____    ______ ____
ROOT
ATOM      1  N   UNL     1      -1.372  -0.511   0.012  0.00  0.00    -0.307 N 
ATOM      2  C   UNL     1      -2.069  -0.646  -1.176  0.00  0.00    +0.217 A 
ATOM      3  N   UNL     1      -1.476  -0.317  -2.314  0.00  0.00    -0.223 NA
ATOM      4  C   UNL     1      -2.110  -0.433  -3.470  0.00  0.00    +0.118 A 
ATOM      5  C   UNL     1      -3.410  -0.904  -3.483  0.00  0.00    +0.066 A 
ATOM      6  C   UNL     1      -4.008  -1.242  -2.270  0.00  0.00    +0.144 A 
ATOM      7  N   UNL     1      -3.311  -1.106  -1.147  0.00  0.00    -0.197 NA
ATOM      8  H   UNL     1      -1.794  -0.752   0.852  0.00  0.00    +0.149 HD
ENDROOT
BRANCH   6   9
ATOM      9  N   UNL     1      -5.316  -1.721  -2.236  0.00  0.00    -0.283 N 
ATOM     10  C   UNL     1      -6.134  -1.918  -3.310  0.00  0.00    +0.206 A 
ATOM     11  N   UNL     1      -7.286  -2.374  -2.916  0.00  0.00    -0.235 NA
ATOM     12  C   UNL     1      -7.290  -2.502  -1.563  0.00  0.00    +0.090 A 
ATOM     13  C   UNL     1      -6.025  -2.091  -1.107  0.00  0.00    +0.075 A 
ATOM     14  C   UNL     1      -5.729  -2.119   0.249  0.00  0.00    +0.029 A 
ATOM     15  C   UNL     1      -6.666  -2.549   1.146  0.00  0.00    +0.010 A 
ATOM     16  C   UNL     1      -7.928  -2.964   0.710  0.00  0.00    -0.016 A 
ATOM     17  C   UNL     1      -8.244  -2.936  -0.642  0.00  0.00    +0.038 A 
BRANCH  16  18
ATOM     18  C   UNL     1      -8.935  -3.428   1.695  0.00  0.00    -0.015 A 
ATOM     19  C   UNL     1     -10.201  -3.853   1.282  0.00  0.00    +0.028 A 
ATOM     20  C   UNL     1     -11.107  -4.278   2.231  0.00  0.00    +0.111 A 
ATOM     21  N   UNL     1     -10.793  -4.285   3.512  0.00  0.00    -0.263 NA
ATOM     22  C   UNL     1      -9.610  -3.892   3.944  0.00  0.00    +0.111 A 
ATOM     23  C   UNL     1      -8.642  -3.458   3.062  0.00  0.00    +0.028 A 
ENDBRANCH  16  18
ENDBRANCH   6   9
BRANCH   1  25
ATOM     24  C   UNL     1      -0.019   1.526   0.010  0.00  0.00    +0.033 C 
ATOM     25  C   UNL     1       0.002  -0.004   0.002  0.00  0.00    +0.100 C 
BRANCH  25  26
ATOM     26  C   UNL     1       0.731  -0.503   1.223  0.00  0.00    -0.027 A 
ATOM     27  C   UNL     1       0.081  -0.558   2.442  0.00  0.00    +0.005 A 
ATOM     28  C   UNL     1       0.749  -1.016   3.562  0.00  0.00    +0.000 A 
ATOM     29  C   UNL     1       2.068  -1.420   3.463  0.00  0.00    +0.000 A 
ATOM     30  C   UNL     1       2.718  -1.365   2.244  0.00  0.00    +0.000 A 
ATOM     31  C   UNL     1       2.048  -0.911   1.123  0.00  0.00    +0.005 A 
ENDBRANCH  25  26
ENDBRANCH   1  25
TORSDOF 4
