REMARK  Name = CHEMBL429743
REMARK  8 active torsions:
REMARK  status: ('A' for Active; 'I' for Inactive)
REMARK    1  A    between atoms: C_1  and  O_2
REMARK    2  A    between atoms: O_2  and  C_3
REMARK    3  A    between atoms: C_6  and  O_15
REMARK    4  A    between atoms: C_12  and  O_13
REMARK    5  A    between atoms: O_13  and  C_14
REMARK    6  A    between atoms: O_15  and  C_16
REMARK    7  A    between atoms: C_25  and  C_26
REMARK    8  A    between atoms: N_28  and  C_29
REMARK                            x       y       z     vdW  Elec       q    Type
REMARK                         _______ _______ _______ _____ _____    ______ ____
ROOT
ATOM      1  C   UNL     1       2.979   2.401  -5.090  0.00  0.00    +0.129 A 
ATOM      2  C   UNL     1       3.574   1.769  -6.186  0.00  0.00    +0.047 A 
ATOM      3  C   UNL     1       4.150   2.495  -7.183  0.00  0.00    +0.013 A 
ATOM      4  C   UNL     1       4.149   3.895  -7.114  0.00  0.00    -0.006 A 
ATOM      5  C   UNL     1       3.548   4.540  -6.005  0.00  0.00    -0.014 A 
ATOM      6  C   UNL     1       2.957   3.763  -4.995  0.00  0.00    +0.054 A 
ATOM      7  C   UNL     1       3.547   5.944  -5.937  0.00  0.00    +0.008 A 
ATOM      8  C   UNL     1       4.122   6.678  -6.931  0.00  0.00    +0.001 A 
ATOM      9  C   UNL     1       4.715   6.064  -8.027  0.00  0.00    +0.014 A 
ATOM     10  C   UNL     1       4.740   4.681  -8.135  0.00  0.00    +0.045 A 
ENDROOT
BRANCH  10  11
ATOM     11  C   UNL     1       5.373   4.036  -9.300  0.00  0.00    +0.249 C 
ATOM     12  O   UNL     1       5.298   2.830  -9.443  0.00  0.00    -0.270 OA
ATOM     13  N   UNL     1       6.035   4.782 -10.207  0.00  0.00    -0.281 N 
ATOM     14  H   UNL     1       6.042   5.749 -10.127  0.00  0.00    +0.155 HD
BRANCH  13  15
ATOM     15  C   UNL     1       6.712   4.162 -11.262  0.00  0.00    +0.034 A 
ATOM     16  C   UNL     1       7.906   4.694 -11.730  0.00  0.00    +0.025 A 
ATOM     17  C   UNL     1       8.572   4.080 -12.773  0.00  0.00    +0.022 A 
ATOM     18  C   UNL     1       8.050   2.936 -13.351  0.00  0.00    +0.041 A 
ATOM     19  C   UNL     1       6.860   2.405 -12.887  0.00  0.00    +0.022 A 
ATOM     20  C   UNL     1       6.193   3.011 -11.841  0.00  0.00    +0.025 A 
ATOM     21 CL   UNL     1       8.890   2.167 -14.662  0.00  0.00    -0.084 Cl
ENDBRANCH  13  15
ENDBRANCH  10  11
BRANCH   1  22
ATOM     22  O   UNL     1       2.412   1.650  -4.109  0.00  0.00    -0.455 OA
BRANCH  22  26
ATOM     23  C   UNL     1       0.861  -0.471  -0.828  0.00  0.00    +0.162 A 
ATOM     24  C   UNL     1       1.330   0.226  -1.904  0.00  0.00    +0.063 A 
ATOM     25  C   UNL     1       2.712   0.313  -2.127  0.00  0.00    +0.044 A 
ATOM     26  C   UNL     1       3.233   1.026  -3.229  0.00  0.00    +0.139 A 
ATOM     27  C   UNL     1       4.608   1.069  -3.384  0.00  0.00    +0.064 A 
ATOM     28  C   UNL     1       5.424   0.419  -2.466  0.00  0.00    +0.086 A 
ATOM     29  N   UNL     1       4.929  -0.240  -1.445  0.00  0.00    -0.360 N 
ATOM     30  C   UNL     1       3.610  -0.322  -1.235  0.00  0.00    +0.054 A 
ATOM     31  C   UNL     1       3.098  -1.033  -0.137  0.00  0.00    +0.075 A 
ATOM     32  C   UNL     1       1.748  -1.097   0.060  0.00  0.00    +0.163 A 
ATOM     33  H   UNL     1       5.535  -0.680  -0.828  0.00  0.00    +0.165 HD
BRANCH  23  35
ATOM     34  C   UNL     1      -1.330   0.103  -1.551  0.00  0.00    +0.277 C 
ATOM     35  O   UNL     1      -0.478  -0.556  -0.612  0.00  0.00    -0.491 OA
ENDBRANCH  23  35
BRANCH  32  36
ATOM     36  O   UNL     1       1.258  -1.781   1.127  0.00  0.00    -0.491 OA
ATOM     37  C   UNL     1       2.211  -2.397   1.996  0.00  0.00    +0.277 C 
ENDBRANCH  32  36
ENDBRANCH  22  26
ENDBRANCH   1  22
TORSDOF 6
