REMARK  Name = CHEMBL86742
REMARK  5 active torsions:
REMARK  status: ('A' for Active; 'I' for Inactive)
REMARK    1  A    between atoms: C_1  and  C_2
REMARK    2  A    between atoms: C_7  and  N_8
REMARK    3  A    between atoms: C_9  and  C_11
REMARK    4  A    between atoms: C_25  and  C_27
REMARK    5  A    between atoms: C_27  and  N_28
REMARK                            x       y       z     vdW  Elec       q    Type
REMARK                         _______ _______ _______ _____ _____    ______ ____
ROOT
ATOM      1  C   UNL     1       0.650  -0.055   5.138  0.00  0.00    +0.038 A 
ATOM      2  C   UNL     1       0.987   1.304   5.211  0.00  0.00    +0.015 A 
ATOM      3  C   UNL     1       0.699   2.046   6.308  0.00  0.00    +0.029 A 
ATOM      4  C   UNL     1       0.044   1.474   7.427  0.00  0.00    +0.080 A 
ATOM      5  C   UNL     1      -0.287   0.100   7.329  0.00  0.00    +0.041 A 
ATOM      6  C   UNL     1      -0.003  -0.651   6.222  0.00  0.00    +0.030 A 
ATOM      7  S   UNL     1      -1.070  -0.214   8.892  0.00  0.00    -0.052 S 
ATOM      8  C   UNL     1      -0.916   1.439   9.555  0.00  0.00    +0.164 A 
ATOM      9  N   UNL     1      -0.307   2.077   8.579  0.00  0.00    -0.225 NA
ATOM     10  N   UNL     1      -1.331   1.923  10.779  0.00  0.00    -0.280 N 
ATOM     11  C   UNL     1      -1.209   3.279  11.069  0.00  0.00    +0.102 A 
ATOM     12  C   UNL     1      -0.813   4.164  10.072  0.00  0.00    +0.042 A 
ATOM     13  C   UNL     1      -0.696   5.509  10.373  0.00  0.00    +0.005 A 
ATOM     14  C   UNL     1      -0.981   5.925  11.667  0.00  0.00    +0.022 A 
ATOM     15  C   UNL     1      -1.369   4.992  12.607  0.00  0.00    +0.031 A 
ATOM     16  N   UNL     1      -1.477   3.716  12.290  0.00  0.00    -0.346 N 
ATOM     17  H   UNL     1      -1.707   1.318  11.438  0.00  0.00    +0.155 HD
ATOM     18  H   UNL     1      -1.756   3.081  12.968  0.00  0.00    +0.167 HD
ENDROOT
BRANCH   1  20
ATOM     19  N   UNL     1       1.603  -0.259   2.895  0.00  0.00    -0.280 N 
ATOM     20  C   UNL     1       0.974  -0.843   3.934  0.00  0.00    +0.248 C 
ATOM     21  O   UNL     1       0.673  -2.020   3.878  0.00  0.00    -0.270 OA
ATOM     22  H   UNL     1       1.915   0.657   2.970  0.00  0.00    +0.155 HD
BRANCH  19  29
ATOM     23  C   UNL     1       0.757   0.927   0.451  0.00  0.00    +0.046 C 
ATOM     24  C   UNL     1       1.409  -0.431   0.495  0.00  0.00    -0.028 A 
ATOM     25  C   UNL     1       1.617  -1.136  -0.675  0.00  0.00    +0.005 A 
ATOM     26  C   UNL     1       2.215  -2.382  -0.637  0.00  0.00    +0.002 A 
ATOM     27  C   UNL     1       2.608  -2.927   0.572  0.00  0.00    +0.022 A 
ATOM     28  C   UNL     1       2.404  -2.227   1.746  0.00  0.00    +0.062 A 
ATOM     29  C   UNL     1       1.807  -0.972   1.710  0.00  0.00    +0.055 A 
ATOM     30 CL   UNL     1       2.897  -2.912   3.263  0.00  0.00    -0.082 Cl
ENDBRANCH  19  29
ENDBRANCH   1  20
BRANCH  15  31
ATOM     31  C   UNL     1      -1.679   5.437  14.013  0.00  0.00    +0.137 C 
BRANCH  31  32
ATOM     32  N   UNL     1      -3.125   5.662  14.148  0.00  0.00    -0.292 NA
ATOM     33  C   UNL     1      -3.560   6.798  13.324  0.00  0.00    +0.113 C 
ATOM     34  C   UNL     1      -5.078   6.959  13.447  0.00  0.00    +0.175 C 
ATOM     35  O   UNL     1      -5.424   7.125  14.825  0.00  0.00    -0.377 OA
ATOM     36  C   UNL     1      -5.015   6.036  15.656  0.00  0.00    +0.175 C 
ATOM     37  C   UNL     1      -3.497   5.866  15.555  0.00  0.00    +0.113 C 
ENDBRANCH  31  32
ENDBRANCH  15  31
TORSDOF 4
