REMARK  Name = CHEMBL217195
REMARK  7 active torsions:
REMARK  status: ('A' for Active; 'I' for Inactive)
REMARK    1  A    between atoms: C_1  and  C_2
REMARK    2  A    between atoms: C_4  and  C_28
REMARK    3  A    between atoms: C_5  and  N_9
REMARK    4  A    between atoms: C_6  and  C_8
REMARK    5  A    between atoms: C_10  and  C_12
REMARK    6  A    between atoms: C_13  and  C_27
REMARK    7  A    between atoms: N_20  and  C_21
REMARK                            x       y       z     vdW  Elec       q    Type
REMARK                         _______ _______ _______ _____ _____    ______ ____
ROOT
ATOM      1  C   UNL     1       0.349  -6.423   1.002  0.00  0.00    +0.098 A 
ATOM      2  C   UNL     1       0.725  -7.324   1.989  0.00  0.00    +0.060 A 
ATOM      3  N   UNL     1       0.676  -8.592   1.667  0.00  0.00    -0.229 NA
ATOM      4  C   UNL     1       0.288  -8.986   0.467  0.00  0.00    +0.166 A 
ATOM      5  S   UNL     1      -0.057  -7.543  -0.328  0.00  0.00    -0.047 S 
ATOM      6  N   UNL     1       0.185 -10.277  -0.018  0.00  0.00    -0.248 N 
ATOM      7  C   UNL     1      -0.233 -10.490  -1.282  0.00  0.00    +0.310 C 
ATOM      8  O   UNL     1      -0.519  -9.548  -1.994  0.00  0.00    -0.252 OA
ATOM      9  N   UNL     1      -0.333 -11.748  -1.755  0.00  0.00    -0.269 N 
ATOM     10  C   UNL     1       1.167  -6.868   3.355  0.00  0.00    +0.067 C 
ATOM     11  H   UNL     1       0.414 -11.029   0.550  0.00  0.00    +0.158 HD
ATOM     12  H   UNL     1      -0.041 -12.496  -1.210  0.00  0.00    +0.156 HD
ENDROOT
BRANCH   9  13
ATOM     13  C   UNL     1      -0.859 -11.976  -3.032  0.00  0.00    +0.035 A 
ATOM     14  C   UNL     1      -1.635 -13.101  -3.274  0.00  0.00    +0.023 A 
ATOM     15  C   UNL     1      -2.152 -13.323  -4.536  0.00  0.00    +0.002 A 
ATOM     16  C   UNL     1      -1.898 -12.426  -5.556  0.00  0.00    +0.000 A 
ATOM     17  C   UNL     1      -1.125 -11.304  -5.318  0.00  0.00    +0.002 A 
ATOM     18  C   UNL     1      -0.610 -11.073  -4.057  0.00  0.00    +0.023 A 
ENDBRANCH   9  13
BRANCH   1  20
ATOM     19  N   UNL     1      -0.113  -4.272  -0.041  0.00  0.00    -0.281 N 
ATOM     20  C   UNL     1       0.294  -4.962   1.043  0.00  0.00    +0.257 C 
ATOM     21  O   UNL     1       0.615  -4.369   2.057  0.00  0.00    -0.269 OA
ATOM     22  H   UNL     1      -0.445  -4.745  -0.820  0.00  0.00    +0.155 HD
BRANCH  19  27
ATOM     23  C   UNL     1       0.122   1.395  -0.051  0.00  0.00    +0.044 C 
ATOM     24  C   UNL     1       0.060  -0.111  -0.049  0.00  0.00    -0.050 A 
ATOM     25  C   UNL     1       0.716  -0.830  -1.031  0.00  0.00    +0.008 A 
ATOM     26  C   UNL     1       0.660  -2.210  -1.031  0.00  0.00    -0.029 A 
ATOM     27  C   UNL     1      -0.054  -2.875  -0.043  0.00  0.00    +0.040 A 
ATOM     28  C   UNL     1      -0.711  -2.150   0.942  0.00  0.00    -0.029 A 
ATOM     29  C   UNL     1      -0.648  -0.770   0.940  0.00  0.00    +0.008 A 
ATOM     30  C   UNL     1      -1.488  -2.867   2.016  0.00  0.00    +0.045 C 
ATOM     31  C   UNL     1       1.374  -2.993  -2.103  0.00  0.00    +0.045 C 
ENDBRANCH  19  27
ENDBRANCH   1  20
TORSDOF 3
