REMARK  Name = CHEMBL565885
REMARK  7 active torsions:
REMARK  status: ('A' for Active; 'I' for Inactive)
REMARK    1  A    between atoms: C_1  and  C_2
REMARK    2  A    between atoms: C_7  and  N_8
REMARK    3  A    between atoms: C_10  and  C_15
REMARK    4  A    between atoms: C_17  and  N_21
REMARK    5  A    between atoms: N_21  and  C_22
REMARK    6  A    between atoms: C_26  and  N_27
REMARK    7  A    between atoms: N_27  and  C_28
REMARK                            x       y       z     vdW  Elec       q    Type
REMARK                         _______ _______ _______ _____ _____    ______ ____
ROOT
ATOM      1  C   UNL     1      -2.171  -0.656   0.881  0.00  0.00    +0.045 C 
ATOM      2  C   UNL     1      -0.949  -1.387   0.388  0.00  0.00    -0.029 A 
ATOM      3  C   UNL     1      -0.796  -1.632  -0.973  0.00  0.00    +0.006 A 
ATOM      4  C   UNL     1       0.297  -2.291  -1.453  0.00  0.00    +0.012 A 
ATOM      5  C   UNL     1       1.289  -2.732  -0.567  0.00  0.00    +0.022 A 
ATOM      6  C   UNL     1       1.145  -2.488   0.821  0.00  0.00    +0.008 A 
ATOM      7  C   UNL     1       0.009  -1.801   1.291  0.00  0.00    +0.043 A 
ATOM      8  C   UNL     1       2.157  -2.942   1.687  0.00  0.00    +0.028 A 
ATOM      9  C   UNL     1       3.230  -3.594   1.160  0.00  0.00    +0.085 A 
ATOM     10  N   UNL     1       3.347  -3.813  -0.143  0.00  0.00    -0.349 N 
ATOM     11  C   UNL     1       2.440  -3.418  -1.015  0.00  0.00    +0.108 A 
ATOM     12  H   UNL     1       4.132  -4.283  -0.467  0.00  0.00    +0.167 HD
ENDROOT
BRANCH   7  13
ATOM     13  N   UNL     1      -0.148  -1.547   2.653  0.00  0.00    -0.298 N 
ATOM     14  C   UNL     1       0.082  -0.273   3.152  0.00  0.00    +0.132 A 
ATOM     15  C   UNL     1       0.058  -0.052   4.537  0.00  0.00    +0.041 A 
ATOM     16  C   UNL     1       0.292   1.238   5.017  0.00  0.00    +0.015 A 
ATOM     17  C   UNL     1       0.539   2.247   4.100  0.00  0.00    +0.020 A 
ATOM     18  C   UNL     1       0.546   1.953   2.750  0.00  0.00    +0.113 A 
ATOM     19  N   UNL     1       0.328   0.725   2.318  0.00  0.00    -0.240 NA
ATOM     20  H   UNL     1      -0.418  -2.260   3.252  0.00  0.00    +0.154 HD
BRANCH  15  21
ATOM     21  C   UNL     1      -0.211  -1.167   5.474  0.00  0.00    +0.079 A 
ATOM     22  C   UNL     1      -0.075  -0.985   6.849  0.00  0.00    +0.072 A 
ATOM     23  C   UNL     1      -0.340  -2.067   7.686  0.00  0.00    +0.122 A 
ATOM     24  N   UNL     1      -0.711  -3.225   7.147  0.00  0.00    -0.221 NA
ATOM     25  C   UNL     1      -0.828  -3.358   5.841  0.00  0.00    +0.223 A 
ATOM     26  N   UNL     1      -0.593  -2.361   5.015  0.00  0.00    -0.235 NA
BRANCH  23  27
ATOM     27  N   UNL     1      -0.219  -1.938   9.061  0.00  0.00    -0.332 N 
ATOM     28  C   UNL     1       0.190  -0.657   9.644  0.00  0.00    +0.127 C 
ATOM     29  H   UNL     1      -0.405  -2.695   9.637  0.00  0.00    +0.147 HD
ENDBRANCH  23  27
ENDBRANCH  15  21
ENDBRANCH   7  13
BRANCH  11  30
ATOM     30  N   UNL     1       2.615  -3.676  -2.366  0.00  0.00    -0.300 N 
ATOM     31  H   UNL     1       1.991  -3.313  -3.013  0.00  0.00    +0.154 HD
BRANCH  30  32
ATOM     32  C   UNL     1       3.691  -4.459  -2.794  0.00  0.00    +0.032 A 
ATOM     33  C   UNL     1       4.036  -5.609  -2.096  0.00  0.00    +0.025 A 
ATOM     34  C   UNL     1       5.099  -6.381  -2.522  0.00  0.00    +0.022 A 
ATOM     35  C   UNL     1       5.820  -6.009  -3.643  0.00  0.00    +0.041 A 
ATOM     36  C   UNL     1       5.478  -4.864  -4.341  0.00  0.00    +0.022 A 
ATOM     37  C   UNL     1       4.413  -4.091  -3.922  0.00  0.00    +0.025 A 
ATOM     38 CL   UNL     1       7.156  -6.981  -4.176  0.00  0.00    -0.084 Cl
ENDBRANCH  30  32
ENDBRANCH  11  30
TORSDOF 5
