REMARK  Name = CHEMBL593883
REMARK  9 active torsions:
REMARK  status: ('A' for Active; 'I' for Inactive)
REMARK    1  A    between atoms: C_1  and  C_2
REMARK    2  A    between atoms: C_11  and  N_12
REMARK    3  A    between atoms: N_12  and  C_13
REMARK    4  A    between atoms: C_14  and  C_21
REMARK    5  A    between atoms: C_18  and  C_19
REMARK    6  A    between atoms: C_22  and  C_23
REMARK    7  A    between atoms: C_23  and  C_24
REMARK    8  A    between atoms: C_24  and  N_25
REMARK    9  A    between atoms: C_28  and  N_31
REMARK                            x       y       z     vdW  Elec       q    Type
REMARK                         _______ _______ _______ _____ _____    ______ ____
ROOT
ATOM      1  C   UNL     1      -0.045  -0.757   3.575  0.00  0.00    +0.059 A 
ATOM      2  C   UNL     1      -0.459  -0.170   4.786  0.00  0.00    +0.015 A 
ATOM      3  C   UNL     1      -0.514  -0.958   5.932  0.00  0.00    +0.120 A 
ATOM      4  N   UNL     1      -0.187  -2.236   5.895  0.00  0.00    -0.261 NA
ATOM      5  C   UNL     1       0.206  -2.830   4.787  0.00  0.00    +0.131 A 
ATOM      6  C   UNL     1       0.289  -2.125   3.585  0.00  0.00    +0.091 A 
ENDROOT
BRANCH   1   7
ATOM      7  N   UNL     1       0.025  -0.015   2.410  0.00  0.00    -0.313 N 
ATOM      8  H   UNL     1      -0.712  -0.031   1.779  0.00  0.00    +0.152 HD
BRANCH   7  19
ATOM      9  C   UNL     1       0.197   1.275  -0.114  0.00  0.00    +0.046 C 
ATOM     10  C   UNL     1       1.281   1.405   0.925  0.00  0.00    -0.020 A 
ATOM     11  C   UNL     1       2.413   2.181   0.666  0.00  0.00    +0.004 A 
ATOM     12  C   UNL     1       2.856   2.982  -0.478  0.00  0.00    +0.028 A 
ATOM     13  C   UNL     1       4.045   3.511  -0.151  0.00  0.00    +0.083 A 
ATOM     14  N   UNL     1       4.400   3.116   1.110  0.00  0.00    -0.361 N 
ATOM     15  H   UNL     1       5.218   3.371   1.565  0.00  0.00    +0.165 HD
ATOM     16  C   UNL     1       3.422   2.300   1.638  0.00  0.00    +0.047 A 
ATOM     17  C   UNL     1       3.283   1.640   2.855  0.00  0.00    +0.028 A 
ATOM     18  C   UNL     1       2.164   0.877   3.101  0.00  0.00    +0.025 A 
ATOM     19  C   UNL     1       1.159   0.761   2.142  0.00  0.00    +0.035 A 
ENDBRANCH   7  19
ENDBRANCH   1   7
BRANCH   6  20
ATOM     20  C   UNL     1       0.711  -2.780   2.384  0.00  0.00    +0.103 C 
ATOM     21  N   UNL     1       1.046  -3.300   1.431  0.00  0.00    -0.191 NA
ENDBRANCH   6  20
BRANCH   2  22
ATOM     22  C   UNL     1      -0.828   1.259   4.839  0.00  0.00    +0.007 C 
ATOM     23  C   UNL     1      -1.216   1.801   5.985  0.00  0.00    -0.028 C 
BRANCH  23  24
ATOM     24  C   UNL     1      -1.592   3.260   6.040  0.00  0.00    +0.008 C 
BRANCH  24  25
ATOM     25  C   UNL     1      -3.001   3.402   6.620  0.00  0.00    -0.075 C 
BRANCH  25  26
ATOM     26  N   UNL     1      -3.368   4.823   6.673  0.00  0.00    +0.380 N 
ATOM     27  C   UNL     1      -2.480   5.521   7.611  0.00  0.00    -0.077 C 
ATOM     28  C   UNL     1      -2.805   7.016   7.609  0.00  0.00    -0.000 C 
ATOM     29  C   UNL     1      -4.262   7.218   8.036  0.00  0.00    +0.047 C 
ATOM     30  C   UNL     1      -5.173   6.425   7.095  0.00  0.00    -0.000 C 
ATOM     31  C   UNL     1      -4.761   4.951   7.116  0.00  0.00    -0.077 C 
ATOM     32  H   UNL     1      -3.269   5.229   5.754  0.00  0.00    -0.082 HD
BRANCH  29  33
ATOM     33  N   UNL     1      -4.603   8.645   7.963  0.00  0.00    -0.327 NA
ATOM     34  H   UNL     1      -5.560   8.802   8.241  0.00  0.00    +0.118 HD
ATOM     35  H   UNL     1      -3.969   9.197   8.522  0.00  0.00    +0.118 HD
ENDBRANCH  29  33
ENDBRANCH  25  26
ENDBRANCH  24  25
ENDBRANCH  23  24
ENDBRANCH   2  22
TORSDOF 8
