REMARK  Name = CHEMBL186943
REMARK  2 active torsions:
REMARK  status: ('A' for Active; 'I' for Inactive)
REMARK    1  A    between atoms: C_1  and  C_2
REMARK    2  A    between atoms: C_7  and  N_8
REMARK                            x       y       z     vdW  Elec       q    Type
REMARK                         _______ _______ _______ _____ _____    ______ ____
ROOT
ATOM      1  N   UNL     1       0.026  -0.015   2.416  0.00  0.00    -0.296 N 
ATOM      2  C   UNL     1      -0.364  -0.656   3.575  0.00  0.00    +0.151 A 
ATOM      3  C   UNL     1      -0.472   0.092   4.824  0.00  0.00    +0.106 A 
ATOM      4  C   UNL     1      -0.265   1.402   5.181  0.00  0.00    +0.142 A 
ATOM      5  N   UNL     1      -0.524   1.507   6.486  0.00  0.00    -0.243 NA
ATOM      6  C   UNL     1      -0.881   0.340   6.964  0.00  0.00    +0.204 A 
ATOM      7  N   UNL     1      -0.864  -0.568   5.975  0.00  0.00    -0.293 N 
ATOM      8  C   UNL     1      -1.143  -1.927   5.901  0.00  0.00    +0.092 A 
ATOM      9  C   UNL     1      -1.540  -2.629   7.032  0.00  0.00    +0.031 A 
ATOM     10  C   UNL     1      -1.807  -3.983   6.908  0.00  0.00    +0.022 A 
ATOM     11  C   UNL     1      -1.671  -4.592   5.672  0.00  0.00    +0.113 A 
ATOM     12  N   UNL     1      -1.294  -3.910   4.612  0.00  0.00    -0.234 NA
ATOM     13  C   UNL     1      -1.024  -2.605   4.676  0.00  0.00    +0.179 A 
ATOM     14  N   UNL     1      -0.643  -1.943   3.554  0.00  0.00    -0.209 NA
ATOM     15  H   UNL     1       0.235   0.932   2.433  0.00  0.00    +0.154 HD
ENDROOT
BRANCH   1  22
ATOM     16  C   UNL     1       2.518  -1.220   1.760  0.00  0.00    +0.046 C 
ATOM     17  C   UNL     1       1.315  -1.335   0.859  0.00  0.00    -0.028 A 
ATOM     18  C   UNL     1       1.401  -2.046  -0.322  0.00  0.00    +0.005 A 
ATOM     19  C   UNL     1       0.299  -2.151  -1.150  0.00  0.00    +0.002 A 
ATOM     20  C   UNL     1      -0.894  -1.545  -0.799  0.00  0.00    +0.022 A 
ATOM     21  C   UNL     1      -0.988  -0.833   0.381  0.00  0.00    +0.062 A 
ATOM     22  C   UNL     1       0.118  -0.730   1.218  0.00  0.00    +0.054 A 
ATOM     23 CL   UNL     1      -2.485  -0.072   0.821  0.00  0.00    -0.082 Cl
ENDBRANCH   1  22
TORSDOF 1
