REMARK  Name = CHEMBL186551
REMARK  4 active torsions:
REMARK  status: ('A' for Active; 'I' for Inactive)
REMARK    1  A    between atoms: C_1  and  C_2
REMARK    2  A    between atoms: C_7  and  N_8
REMARK    3  A    between atoms: C_18  and  O_22
REMARK    4  A    between atoms: O_22  and  C_23
REMARK                            x       y       z     vdW  Elec       q    Type
REMARK                         _______ _______ _______ _____ _____    ______ ____
ROOT
ATOM      1  N   UNL     1       0.026  -0.015   2.416  0.00  0.00    -0.296 N 
ATOM      2  C   UNL     1      -0.363  -0.656   3.574  0.00  0.00    +0.151 A 
ATOM      3  C   UNL     1      -0.471   0.093   4.822  0.00  0.00    +0.106 A 
ATOM      4  C   UNL     1      -0.265   1.403   5.179  0.00  0.00    +0.142 A 
ATOM      5  N   UNL     1      -0.524   1.509   6.484  0.00  0.00    -0.243 NA
ATOM      6  C   UNL     1      -0.880   0.341   6.962  0.00  0.00    +0.204 A 
ATOM      7  N   UNL     1      -0.863  -0.567   5.974  0.00  0.00    -0.291 N 
ATOM      8  C   UNL     1      -1.140  -1.927   5.897  0.00  0.00    +0.111 A 
ATOM      9  C   UNL     1      -1.537  -2.644   7.014  0.00  0.00    +0.146 A 
ATOM     10  N   UNL     1      -1.790  -3.939   6.886  0.00  0.00    -0.201 NA
ATOM     11  C   UNL     1      -1.669  -4.549   5.717  0.00  0.00    +0.320 A 
ATOM     12  N   UNL     1      -1.294  -3.909   4.625  0.00  0.00    -0.174 NA
ATOM     13  C   UNL     1      -1.020  -2.600   4.667  0.00  0.00    +0.185 A 
ATOM     14  N   UNL     1      -0.643  -1.945   3.552  0.00  0.00    -0.209 NA
ATOM     15  H   UNL     1       0.185   0.942   2.422  0.00  0.00    +0.154 HD
ENDROOT
BRANCH   1  22
ATOM     16  C   UNL     1       2.588  -1.122   1.866  0.00  0.00    +0.046 C 
ATOM     17  C   UNL     1       1.423  -1.302   0.927  0.00  0.00    -0.028 A 
ATOM     18  C   UNL     1       1.581  -2.028  -0.238  0.00  0.00    +0.005 A 
ATOM     19  C   UNL     1       0.513  -2.194  -1.101  0.00  0.00    +0.002 A 
ATOM     20  C   UNL     1      -0.716  -1.635  -0.801  0.00  0.00    +0.022 A 
ATOM     21  C   UNL     1      -0.880  -0.908   0.362  0.00  0.00    +0.062 A 
ATOM     22  C   UNL     1       0.190  -0.744   1.235  0.00  0.00    +0.054 A 
ATOM     23 CL   UNL     1      -2.423  -0.206   0.738  0.00  0.00    -0.082 Cl
ENDBRANCH   1  22
BRANCH  11  24
ATOM     24  O   UNL     1      -1.939  -5.874   5.639  0.00  0.00    -0.466 OA
ATOM     25  C   UNL     1      -2.341  -6.527   6.845  0.00  0.00    +0.280 C 
ENDBRANCH  11  24
TORSDOF 2
