REMARK  Name = CHEMBL263528
REMARK  6 active torsions:
REMARK  status: ('A' for Active; 'I' for Inactive)
REMARK    1  A    between atoms: C_3  and  C_8
REMARK    2  A    between atoms: C_5  and  O_7
REMARK    3  A    between atoms: N_10  and  C_18
REMARK    4  A    between atoms: C_13  and  N_17
REMARK    5  A    between atoms: N_21  and  C_24
REMARK    6  A    between atoms: C_24  and  C_25
REMARK                            x       y       z     vdW  Elec       q    Type
REMARK                         _______ _______ _______ _____ _____    ______ ____
ROOT
ATOM      1  C   UNL     1       3.659   2.171  -0.022  0.00  0.00    +0.012 A 
ATOM      2  C   UNL     1       4.723   1.980   0.795  0.00  0.00    +0.097 A 
ATOM      3  N   UNL     1       5.709   2.875   0.484  0.00  0.00    -0.328 N 
ATOM      4  C   UNL     1       5.311   3.679  -0.551  0.00  0.00    +0.147 A 
ATOM      5  C   UNL     1       4.016   3.276  -0.921  0.00  0.00    +0.066 A 
ATOM      6  C   UNL     1       3.378   3.945  -1.974  0.00  0.00    +0.129 A 
ATOM      7  N   UNL     1       4.029   4.933  -2.581  0.00  0.00    -0.220 NA
ATOM      8  C   UNL     1       5.246   5.278  -2.204  0.00  0.00    +0.225 A 
ATOM      9  N   UNL     1       5.880   4.683  -1.217  0.00  0.00    -0.218 NA
ENDROOT
BRANCH   3  10
ATOM     10  C   UNL     1       7.006   2.962   1.160  0.00  0.00    +0.085 C 
ATOM     11  C   UNL     1       7.747   1.630   1.021  0.00  0.00    +0.006 C 
ATOM     12  C   UNL     1       9.064   1.701   1.796  0.00  0.00    -0.076 C 
ATOM     13  N   UNL     1       8.787   1.963   3.214  0.00  0.00    +0.386 N 
ATOM     14  C   UNL     1       8.141   3.272   3.362  0.00  0.00    -0.076 C 
ATOM     15  C   UNL     1       6.788   3.261   2.647  0.00  0.00    +0.006 C 
ATOM     16  H   UNL     1       8.177   1.245   3.575  0.00  0.00    -0.081 HD
BRANCH  13  17
ATOM     17  C   UNL     1      10.049   1.953   3.967  0.00  0.00    +0.018 C 
BRANCH  17  18
ATOM     18  C   UNL     1       9.756   2.099   5.438  0.00  0.00    +0.194 C 
ATOM     19  O   UNL     1       8.610   2.201   5.822  0.00  0.00    -0.278 OA
ATOM     20  N   UNL     1      10.768   2.116   6.328  0.00  0.00    -0.331 N 
ATOM     21  H   UNL     1      11.685   2.034   6.021  0.00  0.00    +0.145 HD
ATOM     22  H   UNL     1      10.580   2.210   7.275  0.00  0.00    +0.145 HD
ENDBRANCH  17  18
ENDBRANCH  13  17
ENDBRANCH   3  10
BRANCH   1  25
ATOM     23  C   UNL     1      -0.017   1.378   0.010  0.00  0.00    +0.004 A 
ATOM     24  C   UNL     1       1.167   2.088   0.002  0.00  0.00    +0.009 A 
ATOM     25  C   UNL     1       2.386   1.411  -0.013  0.00  0.00    -0.012 A 
ATOM     26  C   UNL     1       2.404   0.018  -0.021  0.00  0.00    +0.054 A 
ATOM     27  C   UNL     1       1.211  -0.686  -0.013  0.00  0.00    +0.117 A 
ATOM     28  C   UNL     1       0.002  -0.004   0.002  0.00  0.00    +0.045 A 
BRANCH  27  29
ATOM     29  O   UNL     1       1.225  -2.045  -0.021  0.00  0.00    -0.507 OA
ATOM     30  H   UNL     1       1.237  -2.443   0.860  0.00  0.00    +0.292 HD
ENDBRANCH  27  29
ENDBRANCH   1  25
BRANCH   6  31
ATOM     31  N   UNL     1       2.102   3.586  -2.372  0.00  0.00    -0.343 N 
ATOM     32  H   UNL     1       1.639   2.863  -1.920  0.00  0.00    +0.144 HD
ATOM     33  H   UNL     1       1.671   4.057  -3.102  0.00  0.00    +0.144 HD
ENDBRANCH   6  31
TORSDOF 6
