REMARK  Name = CHEMBL502835
REMARK  11 active torsions:
REMARK  status: ('A' for Active; 'I' for Inactive)
REMARK    1  A    between atoms: C_1  and  N_2
REMARK    2  A    between atoms: N_5  and  C_8
REMARK    3  A    between atoms: C_8  and  C_9
REMARK    4  A    between atoms: N_11  and  C_12
REMARK    5  A    between atoms: N_11  and  C_13
REMARK    6  A    between atoms: C_16  and  N_19
REMARK    7  A    between atoms: N_19  and  C_20
REMARK    8  A    between atoms: C_20  and  C_35
REMARK    9  A    between atoms: C_25  and  C_31
REMARK   10  A    between atoms: C_31  and  O_33
REMARK   11  A    between atoms: O_33  and  C_34
REMARK                            x       y       z     vdW  Elec       q    Type
REMARK                         _______ _______ _______ _____ _____    ______ ____
ROOT
ATOM      1  C   UNL     1       2.338  -9.225   7.610  0.00  0.00    +0.051 C 
ATOM      2  C   UNL     1       1.992  -9.907   8.773  0.00  0.00    +0.068 C 
ATOM      3  C   UNL     1       2.385 -11.278   9.151  0.00  0.00    +0.010 A 
ATOM      4  C   UNL     1       3.161 -12.258   8.533  0.00  0.00    +0.011 A 
ATOM      5  C   UNL     1       3.351 -13.464   9.145  0.00  0.00    +0.016 A 
ATOM      6  C   UNL     1       2.769 -13.720  10.392  0.00  0.00    +0.061 A 
ATOM      7  C   UNL     1       1.990 -12.744  11.019  0.00  0.00    +0.039 A 
ATOM      8  C   UNL     1       1.795 -11.520  10.403  0.00  0.00    +0.042 A 
ATOM      9  N   UNL     1       1.086 -10.385  10.776  0.00  0.00    -0.281 N 
ATOM     10  C   UNL     1       1.191  -9.425   9.842  0.00  0.00    +0.251 C 
ATOM     11  O   UNL     1       0.680  -8.320   9.901  0.00  0.00    -0.270 OA
ATOM     12  H   UNL     1       0.586 -10.295  11.603  0.00  0.00    +0.155 HD
ENDROOT
BRANCH   1  13
ATOM     13  C   UNL     1       3.049  -9.928   6.527  0.00  0.00    -0.003 A 
ATOM     14  C   UNL     1       2.535 -11.120   6.008  0.00  0.00    +0.010 A 
ATOM     15  C   UNL     1       3.206 -11.772   4.994  0.00  0.00    +0.001 A 
ATOM     16  C   UNL     1       4.384 -11.250   4.491  0.00  0.00    +0.000 A 
ATOM     17  C   UNL     1       4.899 -10.070   5.000  0.00  0.00    +0.001 A 
ATOM     18  C   UNL     1       4.237  -9.403   6.009  0.00  0.00    +0.010 A 
ENDBRANCH   1  13
BRANCH   1  19
ATOM     19  N   UNL     1       2.020  -7.900   7.473  0.00  0.00    -0.313 N 
ATOM     20  H   UNL     1       2.352  -7.252   8.114  0.00  0.00    +0.152 HD
BRANCH  19  24
ATOM     21  C   UNL     1      -0.376  -6.652   4.299  0.00  0.00    +0.036 A 
ATOM     22  C   UNL     1       0.237  -5.712   5.118  0.00  0.00    +0.025 A 
ATOM     23  C   UNL     1       1.030  -6.125   6.169  0.00  0.00    +0.025 A 
ATOM     24  C   UNL     1       1.216  -7.481   6.408  0.00  0.00    +0.031 A 
ATOM     25  C   UNL     1       0.602  -8.421   5.589  0.00  0.00    +0.025 A 
ATOM     26  C   UNL     1      -0.195  -8.007   4.541  0.00  0.00    +0.025 A 
BRANCH  21  29
ATOM     27  C   UNL     1      -0.628  -5.591   2.183  0.00  0.00    +0.234 C 
ATOM     28  O   UNL     1       0.548  -5.298   2.202  0.00  0.00    -0.274 OA
ATOM     29  N   UNL     1      -1.181  -6.232   3.232  0.00  0.00    -0.273 N 
ATOM     30  C   UNL     1      -2.622  -6.491   3.256  0.00  0.00    +0.138 C 
BRANCH  27  31
ATOM     31  C   UNL     1      -1.473  -5.238   0.986  0.00  0.00    +0.180 C 
BRANCH  31  36
ATOM     32  C   UNL     1       1.262  -3.420  -3.593  0.00  0.00    -0.096 C 
ATOM     33  N   UNL     1       0.416  -4.144  -2.634  0.00  0.00    +0.379 N 
ATOM     34  C   UNL     1      -0.581  -3.224  -2.070  0.00  0.00    -0.064 C 
ATOM     35  C   UNL     1      -1.474  -3.981  -1.084  0.00  0.00    +0.066 C 
ATOM     36  N   UNL     1      -0.644  -4.550  -0.013  0.00  0.00    -0.298 NA
ATOM     37  C   UNL     1       0.375  -5.453  -0.565  0.00  0.00    +0.066 C 
ATOM     38  C   UNL     1       1.253  -4.684  -1.554  0.00  0.00    -0.064 C 
ATOM     39  H   UNL     1      -0.055  -4.901  -3.105  0.00  0.00    -0.082 HD
ENDBRANCH  31  36
ENDBRANCH  27  31
ENDBRANCH  21  29
ENDBRANCH  19  24
ENDBRANCH   1  19
BRANCH   6  40
ATOM     40  C   UNL     1       2.979 -15.024  11.046  0.00  0.00    +0.339 C 
ATOM     41  O   UNL     1       2.474 -15.248  12.129  0.00  0.00    -0.245 OA
BRANCH  40  42
ATOM     42  O   UNL     1       3.729 -15.967  10.444  0.00  0.00    -0.464 OA
ATOM     43  C   UNL     1       3.890 -17.207  11.135  0.00  0.00    +0.280 C 
ENDBRANCH  40  42
ENDBRANCH   6  40
TORSDOF 8
