REMARK  Name = CHEMBL189649
REMARK  4 active torsions:
REMARK  status: ('A' for Active; 'I' for Inactive)
REMARK    1  A    between atoms: C_1  and  C_2
REMARK    2  A    between atoms: C_7  and  N_8
REMARK    3  A    between atoms: C_9  and  C_11
REMARK    4  A    between atoms: N_16  and  C_17
REMARK                            x       y       z     vdW  Elec       q    Type
REMARK                         _______ _______ _______ _____ _____    ______ ____
ROOT
ATOM      1  C   UNL     1      -0.411   0.094   4.810  0.00  0.00    +0.095 A 
ATOM      2  C   UNL     1      -0.793  -0.336   6.073  0.00  0.00    +0.133 A 
ATOM      3  N   UNL     1      -0.800   0.570   7.018  0.00  0.00    -0.232 NA
ATOM      4  C   UNL     1      -0.461   1.824   6.774  0.00  0.00    +0.164 A 
ATOM      5  S   UNL     1      -0.085   1.819   5.134  0.00  0.00    -0.047 S 
ATOM      6  N   UNL     1      -0.419   2.884   7.658  0.00  0.00    -0.279 N 
ATOM      7  H   UNL     1      -0.222   3.777   7.335  0.00  0.00    +0.155 HD
ENDROOT
BRANCH   6   8
ATOM      8  C   UNL     1      -0.659   2.672   9.009  0.00  0.00    +0.129 A 
ATOM      9  C   UNL     1      -0.516   3.711   9.923  0.00  0.00    +0.085 A 
ATOM     10  C   UNL     1      -0.768   3.447  11.266  0.00  0.00    +0.103 A 
ATOM     11  N   UNL     1      -1.135   2.219  11.625  0.00  0.00    -0.334 N 
ATOM     12  C   UNL     1      -1.260   1.261  10.729  0.00  0.00    +0.199 A 
ATOM     13  N   UNL     1      -1.035   1.472   9.448  0.00  0.00    -0.222 NA
ATOM     14  N   UNL     1      -0.639   4.449  12.216  0.00  0.00    -0.312 N 
ATOM     15  C   UNL     1      -0.770   4.153  13.651  0.00  0.00    +0.134 C 
ATOM     16  C   UNL     1       0.440   4.747  14.380  0.00  0.00    +0.178 C 
ATOM     17  O   UNL     1       0.573   6.126  14.025  0.00  0.00    -0.377 OA
ATOM     18  C   UNL     1       0.824   6.351  12.636  0.00  0.00    +0.178 C 
ATOM     19  C   UNL     1      -0.361   5.838  11.818  0.00  0.00    +0.134 C 
ATOM     20  H   UNL     1      -1.313   2.026  12.559  0.00  0.00    +0.168 HD
ENDBRANCH   6   8
BRANCH   1  22
ATOM     21  N   UNL     1       0.101  -0.039   2.433  0.00  0.00    -0.280 N 
ATOM     22  C   UNL     1      -0.300  -0.659   3.561  0.00  0.00    +0.256 C 
ATOM     23  O   UNL     1      -0.570  -1.846   3.540  0.00  0.00    -0.269 OA
ATOM     24  H   UNL     1       0.393   0.886   2.466  0.00  0.00    +0.155 HD
BRANCH  21  31
ATOM     25  C   UNL     1      -1.235   1.151   0.221  0.00  0.00    +0.046 C 
ATOM     26  C   UNL     1      -0.543  -0.184   0.111  0.00  0.00    -0.028 A 
ATOM     27  C   UNL     1      -0.541  -0.864  -1.092  0.00  0.00    +0.005 A 
ATOM     28  C   UNL     1       0.093  -2.089  -1.194  0.00  0.00    +0.002 A 
ATOM     29  C   UNL     1       0.726  -2.637  -0.093  0.00  0.00    +0.022 A 
ATOM     30  C   UNL     1       0.727  -1.962   1.112  0.00  0.00    +0.062 A 
ATOM     31  C   UNL     1       0.096  -0.728   1.216  0.00  0.00    +0.055 A 
ATOM     32 CL   UNL     1       1.522  -2.651   2.493  0.00  0.00    -0.082 Cl
ENDBRANCH  21  31
ENDBRANCH   1  22
TORSDOF 3
