REMARK  Name = CHEMBL571581
REMARK  8 active torsions:
REMARK  status: ('A' for Active; 'I' for Inactive)
REMARK    1  A    between atoms: C_1  and  C_2
REMARK    2  A    between atoms: C_11  and  N_12
REMARK    3  A    between atoms: N_12  and  C_13
REMARK    4  A    between atoms: C_14  and  C_36
REMARK    5  A    between atoms: C_18  and  C_19
REMARK    6  A    between atoms: C_23  and  C_28
REMARK    7  A    between atoms: C_28  and  N_29
REMARK    8  A    between atoms: N_32  and  C_35
REMARK                            x       y       z     vdW  Elec       q    Type
REMARK                         _______ _______ _______ _____ _____    ______ ____
ROOT
ATOM      1  C   UNL     1      -0.044  -0.667   3.628  0.00  0.00    +0.063 A 
ATOM      2  C   UNL     1      -0.328  -2.045   3.698  0.00  0.00    +0.092 A 
ATOM      3  C   UNL     1      -0.386  -2.658   4.951  0.00  0.00    +0.131 A 
ATOM      4  N   UNL     1      -0.180  -1.967   6.054  0.00  0.00    -0.261 NA
ATOM      5  C   UNL     1       0.089  -0.675   6.036  0.00  0.00    +0.124 A 
ATOM      6  C   UNL     1       0.173   0.024   4.835  0.00  0.00    +0.058 A 
ENDROOT
BRANCH   6   7
ATOM      7  C   UNL     1       0.481   1.469   4.827  0.00  0.00    +0.140 A 
ATOM      8  C   UNL     1      -0.143   2.402   5.587  0.00  0.00    +0.058 A 
ATOM      9  C   UNL     1       0.483   3.683   5.251  0.00  0.00    +0.021 A 
ATOM     10  C   UNL     1       0.297   4.998   5.678  0.00  0.00    +0.013 A 
ATOM     11  C   UNL     1       1.068   5.997   5.152  0.00  0.00    -0.063 A 
ATOM     12  C   UNL     1       2.034   5.710   4.198  0.00  0.00    +0.005 A 
ATOM     13  C   UNL     1       2.233   4.416   3.764  0.00  0.00    +0.047 A 
ATOM     14  C   UNL     1       1.461   3.386   4.285  0.00  0.00    +0.136 A 
ATOM     15  O   UNL     1       1.427   2.055   4.068  0.00  0.00    -0.455 OA
BRANCH  11  16
ATOM     16  C   UNL     1       0.868   7.418   5.611  0.00  0.00    -0.043 C 
BRANCH  16  17
ATOM     17  N   UNL     1       1.737   7.688   6.764  0.00  0.00    +0.384 N 
ATOM     18  C   UNL     1       1.321   6.850   7.896  0.00  0.00    -0.063 C 
ATOM     19  C   UNL     1       2.237   7.116   9.092  0.00  0.00    +0.065 C 
ATOM     20  N   UNL     1       2.160   8.538   9.458  0.00  0.00    -0.309 NA
ATOM     21  C   UNL     1       2.550   9.390   8.326  0.00  0.00    +0.065 C 
ATOM     22  C   UNL     1       1.631   9.105   7.136  0.00  0.00    -0.063 C 
ATOM     23  C   UNL     1       2.984   8.823  10.640  0.00  0.00    +0.104 C 
ATOM     24  H   UNL     1       2.693   7.474   6.522  0.00  0.00    -0.081 HD
ENDBRANCH  16  17
ENDBRANCH  11  16
ENDBRANCH   6   7
BRANCH   1  25
ATOM     25  N   UNL     1       0.025  -0.015   2.410  0.00  0.00    -0.313 N 
ATOM     26  H   UNL     1       0.879   0.088   1.962  0.00  0.00    +0.152 HD
BRANCH  25  37
ATOM     27  C   UNL     1       0.290   1.531   0.043  0.00  0.00    +0.046 C 
ATOM     28  C   UNL     1      -1.052   1.256   0.671  0.00  0.00    -0.020 A 
ATOM     29  C   UNL     1      -2.217   1.759   0.088  0.00  0.00    +0.004 A 
ATOM     30  C   UNL     1      -2.490   2.571  -1.101  0.00  0.00    +0.028 A 
ATOM     31  C   UNL     1      -3.820   2.746  -1.160  0.00  0.00    +0.083 A 
ATOM     32  N   UNL     1      -4.421   2.114  -0.106  0.00  0.00    -0.361 N 
ATOM     33  H   UNL     1      -5.376   2.099   0.064  0.00  0.00    +0.165 HD
ATOM     34  C   UNL     1      -3.467   1.499   0.677  0.00  0.00    +0.047 A 
ATOM     35  C   UNL     1      -3.533   0.740   1.841  0.00  0.00    +0.028 A 
ATOM     36  C   UNL     1      -2.379   0.248   2.408  0.00  0.00    +0.025 A 
ATOM     37  C   UNL     1      -1.138   0.498   1.824  0.00  0.00    +0.035 A 
ENDBRANCH  25  37
ENDBRANCH   1  25
BRANCH   2  38
ATOM     38  C   UNL     1      -0.553  -2.803   2.505  0.00  0.00    +0.103 C 
ATOM     39  N   UNL     1      -0.732  -3.405   1.558  0.00  0.00    -0.191 NA
ENDBRANCH   2  38
TORSDOF 6
