REMARK  Name = CHEMBL304760
REMARK  3 active torsions:
REMARK  status: ('A' for Active; 'I' for Inactive)
REMARK    1  A    between atoms: C_4  and  O_7
REMARK    2  A    between atoms: O_7  and  C_8
REMARK    3  A    between atoms: C_11  and  N_14
REMARK                            x       y       z     vdW  Elec       q    Type
REMARK                         _______ _______ _______ _____ _____    ______ ____
ROOT
ATOM      1  C   UNL     1       3.279  -2.053   0.543  0.00  0.00    +0.129 A 
ATOM      2  C   UNL     1       2.191  -2.914   0.514  0.00  0.00    +0.048 A 
ATOM      3  C   UNL     1       2.389  -4.272   0.357  0.00  0.00    +0.027 A 
ATOM      4  C   UNL     1       3.676  -4.775   0.227  0.00  0.00    +0.033 A 
ATOM      5  C   UNL     1       4.765  -3.913   0.256  0.00  0.00    +0.027 A 
ATOM      6  C   UNL     1       4.565  -2.555   0.407  0.00  0.00    +0.048 A 
ENDROOT
BRANCH   4   7
ATOM      7  N   UNL     1       3.877  -6.151   0.068  0.00  0.00    -0.299 N 
ATOM      8  C   UNL     1       2.966  -6.904  -0.642  0.00  0.00    +0.134 A 
ATOM      9  C   UNL     1       3.082  -8.314  -0.709  0.00  0.00    +0.040 A 
ATOM     10  C   UNL     1       4.113  -9.007  -0.067  0.00  0.00    +0.013 A 
ATOM     11  C   UNL     1       4.173 -10.366  -0.167  0.00  0.00    +0.001 A 
ATOM     12  C   UNL     1       3.222 -11.072  -0.900  0.00  0.00    +0.002 A 
ATOM     13  C   UNL     1       2.205 -10.425  -1.537  0.00  0.00    +0.028 A 
ATOM     14  C   UNL     1       2.113  -9.030  -1.455  0.00  0.00    +0.076 A 
ATOM     15  N   UNL     1       1.133  -8.345  -2.062  0.00  0.00    -0.235 NA
ATOM     16  C   UNL     1       1.075  -7.038  -1.966  0.00  0.00    +0.223 A 
ATOM     17  N   UNL     1       1.953  -6.327  -1.276  0.00  0.00    -0.220 NA
ATOM     18  H   UNL     1       4.658  -6.575   0.457  0.00  0.00    +0.154 HD
ENDBRANCH   4   7
BRANCH   1  19
ATOM     19  O   UNL     1       3.083  -0.717   0.698  0.00  0.00    -0.456 OA
BRANCH  19  23
ATOM     20  C   UNL     1       2.689   0.751   4.533  0.00  0.00    +0.000 A 
ATOM     21  C   UNL     1       2.653   1.617   3.455  0.00  0.00    +0.004 A 
ATOM     22  C   UNL     1       2.785   1.128   2.170  0.00  0.00    +0.046 A 
ATOM     23  C   UNL     1       2.954  -0.233   1.961  0.00  0.00    +0.128 A 
ATOM     24  C   UNL     1       2.991  -1.100   3.044  0.00  0.00    +0.046 A 
ATOM     25  C   UNL     1       2.858  -0.606   4.327  0.00  0.00    +0.004 A 
ENDBRANCH  19  23
ENDBRANCH   1  19
TORSDOF 3
