REMARK  Name = CHEMBL383275
REMARK  7 active torsions:
REMARK  status: ('A' for Active; 'I' for Inactive)
REMARK    1  A    between atoms: C_1  and  C_2
REMARK    2  A    between atoms: C_5  and  O_32
REMARK    3  A    between atoms: C_7  and  N_8
REMARK    4  A    between atoms: N_11  and  C_12
REMARK    5  A    between atoms: C_15  and  N_19
REMARK    6  A    between atoms: N_19  and  C_20
REMARK    7  A    between atoms: C_23  and  N_26
REMARK                            x       y       z     vdW  Elec       q    Type
REMARK                         _______ _______ _______ _____ _____    ______ ____
ROOT
ATOM      1  N   UNL     1       2.288   0.827   2.975  0.00  0.00    -0.269 N 
ATOM      2  C   UNL     1       2.325   0.195   4.164  0.00  0.00    +0.312 C 
ATOM      3  O   UNL     1       3.365  -0.296   4.560  0.00  0.00    -0.252 OA
ATOM      4  N   UNL     1       1.209   0.106   4.915  0.00  0.00    -0.243 N 
ATOM      5  C   UNL     1      -0.013   0.794   4.494  0.00  0.00    +0.141 C 
ATOM      6  C   UNL     1       1.219  -0.639   6.089  0.00  0.00    +0.133 A 
ATOM      7  C   UNL     1       0.982  -2.009   6.057  0.00  0.00    +0.088 A 
ATOM      8  C   UNL     1       1.002  -2.710   7.260  0.00  0.00    +0.128 A 
ATOM      9  N   UNL     1       1.246  -2.048   8.390  0.00  0.00    -0.221 NA
ATOM     10  C   UNL     1       1.466  -0.749   8.378  0.00  0.00    +0.225 A 
ATOM     11  N   UNL     1       1.460  -0.052   7.259  0.00  0.00    -0.220 NA
ATOM     12  H   UNL     1       1.477   1.276   2.689  0.00  0.00    +0.156 HD
ENDROOT
BRANCH   1  19
ATOM     13  C   UNL     1       2.510   2.881   1.020  0.00  0.00    +0.045 C 
ATOM     14  C   UNL     1       3.568   1.821   1.184  0.00  0.00    -0.029 A 
ATOM     15  C   UNL     1       4.688   1.833   0.375  0.00  0.00    +0.009 A 
ATOM     16  C   UNL     1       5.660   0.862   0.523  0.00  0.00    +0.046 A 
ATOM     17  C   UNL     1       5.515  -0.128   1.484  0.00  0.00    +0.119 A 
ATOM     18  C   UNL     1       4.393  -0.143   2.297  0.00  0.00    +0.069 A 
ATOM     19  C   UNL     1       3.420   0.836   2.151  0.00  0.00    +0.041 A 
BRANCH  17  20
ATOM     20  O   UNL     1       6.472  -1.082   1.628  0.00  0.00    -0.507 OA
ATOM     21  H   UNL     1       7.207  -0.819   2.199  0.00  0.00    +0.292 HD
ENDBRANCH  17  20
ENDBRANCH   1  19
BRANCH   8  22
ATOM     22  N   UNL     1       0.771  -4.077   7.282  0.00  0.00    -0.299 N 
ATOM     23  H   UNL     1       0.671  -4.566   6.450  0.00  0.00    +0.154 HD
BRANCH  22  24
ATOM     24  C   UNL     1       0.683  -4.753   8.505  0.00  0.00    +0.032 A 
ATOM     25  C   UNL     1       0.156  -4.110   9.617  0.00  0.00    +0.025 A 
ATOM     26  C   UNL     1       0.068  -4.777  10.823  0.00  0.00    +0.025 A 
ATOM     27  C   UNL     1       0.507  -6.090  10.924  0.00  0.00    +0.030 A 
ATOM     28  C   UNL     1       1.035  -6.734   9.812  0.00  0.00    +0.025 A 
ATOM     29  C   UNL     1       1.118  -6.069   8.605  0.00  0.00    +0.025 A 
BRANCH  27  30
ATOM     30  N   UNL     1       0.419  -6.766  12.147  0.00  0.00    -0.326 N 
ATOM     31  C   UNL     1       0.977  -8.118  12.307  0.00  0.00    +0.133 C 
ATOM     32  C   UNL     1       1.865  -8.130  13.556  0.00  0.00    +0.178 C 
ATOM     33  O   UNL     1       1.125  -7.613  14.665  0.00  0.00    -0.377 OA
ATOM     34  C   UNL     1       0.714  -6.253  14.511  0.00  0.00    +0.178 C 
ATOM     35  C   UNL     1      -0.228  -6.142  13.312  0.00  0.00    +0.133 C 
ENDBRANCH  27  30
ENDBRANCH  22  24
ENDBRANCH   8  22
TORSDOF 5
