REMARK  Name = CHEMBL26625
REMARK  5 active torsions:
REMARK  status: ('A' for Active; 'I' for Inactive)
REMARK    1  A    between atoms: C_1  and  C_2
REMARK    2  A    between atoms: C_3  and  C_34
REMARK    3  A    between atoms: C_9  and  C_25
REMARK    4  A    between atoms: N_12  and  C_24
REMARK    5  A    between atoms: N_15  and  C_16
REMARK                            x       y       z     vdW  Elec       q    Type
REMARK                         _______ _______ _______ _____ _____    ______ ____
ROOT
ATOM      1  C   UNL     1       4.289  -0.108  -0.649  0.00  0.00    +0.046 C 
ATOM      2  C   UNL     1       3.263  -1.202  -0.508  0.00  0.00    -0.024 A 
ATOM      3  C   UNL     1       2.545  -1.598  -1.571  0.00  0.00    +0.019 A 
ATOM      4  N   UNL     1       1.604  -2.585  -1.491  0.00  0.00    -0.326 N 
ATOM      5  C   UNL     1       1.334  -3.228  -0.338  0.00  0.00    +0.259 A 
ATOM      6  C   UNL     1       2.067  -2.866   0.875  0.00  0.00    +0.072 A 
ATOM      7  C   UNL     1       3.045  -1.847   0.789  0.00  0.00    -0.005 A 
ATOM      8  C   UNL     1       3.770  -1.475   1.922  0.00  0.00    +0.020 A 
ATOM      9  C   UNL     1       3.538  -2.106   3.133  0.00  0.00    +0.015 A 
ATOM     10  C   UNL     1       2.568  -3.129   3.230  0.00  0.00    +0.100 A 
ATOM     11  C   UNL     1       1.828  -3.500   2.101  0.00  0.00    +0.083 A 
ATOM     12  N   UNL     1       0.973  -4.503   2.510  0.00  0.00    -0.314 N 
ATOM     13  C   UNL     1       1.191  -4.704   3.843  0.00  0.00    +0.201 A 
ATOM     14  N   UNL     1       2.139  -3.902   4.261  0.00  0.00    -0.214 NA
ATOM     15  N   UNL     1       0.530  -5.628   4.627  0.00  0.00    -0.283 N 
ATOM     16  C   UNL     1       0.009  -5.219   1.670  0.00  0.00    +0.152 C 
ATOM     17  O   UNL     1       0.487  -4.103  -0.307  0.00  0.00    -0.267 OA
ATOM     18  C   UNL     1       2.785  -0.929  -2.900  0.00  0.00    +0.063 C 
ATOM     19  H   UNL     1      -0.179  -6.169   4.245  0.00  0.00    +0.155 HD
ATOM     20  H   UNL     1       1.113  -2.831  -2.291  0.00  0.00    +0.169 HD
ENDROOT
BRANCH  15  21
ATOM     21  C   UNL     1       0.882  -5.785   5.972  0.00  0.00    +0.071 A 
ATOM     22  C   UNL     1       0.778  -4.712   6.849  0.00  0.00    +0.064 A 
ATOM     23  C   UNL     1       1.127  -4.870   8.177  0.00  0.00    +0.022 A 
ATOM     24  C   UNL     1       1.579  -6.095   8.633  0.00  0.00    +0.003 A 
ATOM     25  C   UNL     1       1.684  -7.165   7.764  0.00  0.00    +0.022 A 
ATOM     26  C   UNL     1       1.331  -7.016   6.436  0.00  0.00    +0.064 A 
ATOM     27 CL   UNL     1       1.455  -8.362   5.347  0.00  0.00    -0.082 Cl
ATOM     28 CL   UNL     1       0.212  -3.174   6.277  0.00  0.00    -0.082 Cl
ENDBRANCH  15  21
BRANCH   9  29
ATOM     29  C   UNL     1       4.310  -1.708   4.332  0.00  0.00    +0.039 A 
ATOM     30  C   UNL     1       4.167  -0.428   4.876  0.00  0.00    +0.017 A 
ATOM     31  C   UNL     1       4.910  -0.103   5.997  0.00  0.00    +0.060 A 
ATOM     32  C   UNL     1       5.767  -1.048   6.540  0.00  0.00    +0.216 A 
ATOM     33  N   UNL     1       5.883  -2.250   6.005  0.00  0.00    -0.190 NA
ATOM     34  C   UNL     1       5.190  -2.607   4.940  0.00  0.00    +0.223 A 
ATOM     35  F   UNL     1       5.336  -3.849   4.431  0.00  0.00    -0.183 F 
ATOM     36  F   UNL     1       6.494  -0.734   7.635  0.00  0.00    -0.184 F 
ENDBRANCH   9  29
TORSDOF 2
