REMARK  Name = CHEMBL568101
REMARK  6 active torsions:
REMARK  status: ('A' for Active; 'I' for Inactive)
REMARK    1  A    between atoms: C_1  and  C_2
REMARK    2  A    between atoms: C_2  and  C_3
REMARK    3  A    between atoms: C_2  and  N_23
REMARK    4  A    between atoms: N_8  and  C_9
REMARK    5  A    between atoms: N_12  and  C_13
REMARK    6  A    between atoms: C_28  and  N_30
REMARK                            x       y       z     vdW  Elec       q    Type
REMARK                         _______ _______ _______ _____ _____    ______ ____
ROOT
ATOM      1  C   UNL     1      -0.005  -1.545   0.901  0.00  0.00    -0.031 C 
ATOM      2  C   UNL     1       0.069  -2.950   1.509  0.00  0.00    +0.096 C 
ATOM      3  N   UNL     1       1.039  -2.930   2.615  0.00  0.00    -0.289 N 
ATOM      4  C   UNL     1       0.904  -1.879   3.636  0.00  0.00    +0.091 C 
ATOM      5  C   UNL     1       0.791  -0.525   2.928  0.00  0.00    -0.059 C 
ATOM      6  N   UNL     1      -0.310  -0.572   1.958  0.00  0.00    +0.383 N 
ATOM      7  C   UNL     1      -1.548  -0.967   2.643  0.00  0.00    -0.096 C 
ATOM      8  C   UNL     1       2.023  -3.848   2.690  0.00  0.00    +0.306 C 
ATOM      9  O   UNL     1       2.063  -4.763   1.891  0.00  0.00    -0.252 OA
ATOM     10  N   UNL     1       2.962  -3.751   3.652  0.00  0.00    -0.269 N 
ATOM     11  H   UNL     1       2.873  -3.086   4.352  0.00  0.00    +0.156 HD
ATOM     12  H   UNL     1      -0.433   0.341   1.546  0.00  0.00    -0.082 HD
ENDROOT
BRANCH  10  13
ATOM     13  C   UNL     1       4.066  -4.611   3.641  0.00  0.00    +0.035 A 
ATOM     14  C   UNL     1       4.606  -5.028   2.419  0.00  0.00    +0.024 A 
ATOM     15  C   UNL     1       5.678  -5.863   2.378  0.00  0.00    +0.010 A 
ATOM     16  C   UNL     1       6.258  -6.318   3.575  0.00  0.00    -0.018 A 
ATOM     17  C   UNL     1       7.367  -7.181   3.564  0.00  0.00    +0.008 A 
ATOM     18  C   UNL     1       7.905  -7.604   4.740  0.00  0.00    +0.001 A 
ATOM     19  C   UNL     1       7.372  -7.194   5.961  0.00  0.00    +0.001 A 
ATOM     20  C   UNL     1       6.299  -6.359   6.012  0.00  0.00    +0.008 A 
ATOM     21  C   UNL     1       5.716  -5.901   4.817  0.00  0.00    -0.016 A 
ATOM     22  C   UNL     1       4.612  -5.034   4.832  0.00  0.00    +0.031 A 
ENDBRANCH  10  13
BRANCH   1  24
ATOM     23  C   UNL     1      -1.179  -0.103  -0.767  0.00  0.00    +0.026 C 
ATOM     24  C   UNL     1      -1.105  -1.506  -0.162  0.00  0.00    +0.058 C 
BRANCH  24  25
ATOM     25  N   UNL     1      -0.800  -2.478  -1.215  0.00  0.00    -0.312 N 
ATOM     26  C   UNL     1      -1.822  -3.008  -1.984  0.00  0.00    +0.217 A 
ATOM     27  N   UNL     1      -3.068  -2.621  -1.757  0.00  0.00    -0.223 NA
ATOM     28  C   UNL     1      -4.072  -3.106  -2.472  0.00  0.00    +0.118 A 
ATOM     29  C   UNL     1      -3.808  -4.028  -3.468  0.00  0.00    +0.066 A 
ATOM     30  C   UNL     1      -2.486  -4.415  -3.684  0.00  0.00    +0.144 A 
ATOM     31  N   UNL     1      -1.528  -3.885  -2.932  0.00  0.00    -0.197 NA
ATOM     32  H   UNL     1       0.117  -2.749  -1.374  0.00  0.00    +0.149 HD
BRANCH  30  33
ATOM     33  N   UNL     1      -2.174  -5.342  -4.676  0.00  0.00    -0.283 N 
ATOM     34  C   UNL     1      -3.055  -5.952  -5.521  0.00  0.00    +0.206 A 
ATOM     35  N   UNL     1      -2.422  -6.757  -6.321  0.00  0.00    -0.235 NA
ATOM     36  C   UNL     1      -1.091  -6.723  -6.048  0.00  0.00    +0.089 A 
ATOM     37  C   UNL     1      -0.911  -5.811  -4.994  0.00  0.00    +0.075 A 
ATOM     38  C   UNL     1       0.361  -5.564  -4.501  0.00  0.00    +0.028 A 
ATOM     39  C   UNL     1       1.448  -6.212  -5.051  0.00  0.00    +0.002 A 
ATOM     40  C   UNL     1       1.276  -7.111  -6.094  0.00  0.00    +0.002 A 
ATOM     41  C   UNL     1       0.019  -7.374  -6.590  0.00  0.00    +0.030 A 
ENDBRANCH  30  33
ENDBRANCH  24  25
ENDBRANCH   1  24
TORSDOF 4
