REMARK  Name = CHEMBL29531
REMARK  1 active torsions:
REMARK  status: ('A' for Active; 'I' for Inactive)
REMARK    1  A    between atoms: N_14  and  C_15
REMARK                            x       y       z     vdW  Elec       q    Type
REMARK                         _______ _______ _______ _____ _____    ______ ____
ROOT
ATOM      1  C   UNL     1       0.003   1.375   0.207  0.00  0.00    +0.002 A 
ATOM      2  C   UNL     1       1.168   2.091  -0.020  0.00  0.00    +0.002 A 
ATOM      3  C   UNL     1       2.365   1.431  -0.211  0.00  0.00    +0.028 A 
ATOM      4  C   UNL     1       2.408   0.044  -0.178  0.00  0.00    +0.073 A 
ATOM      5  C   UNL     1       1.231  -0.686   0.052  0.00  0.00    +0.090 A 
ATOM      6  C   UNL     1       0.025  -0.001   0.244  0.00  0.00    +0.030 A 
ATOM      7  N   UNL     1       1.249  -2.045   0.088  0.00  0.00    -0.228 NA
ATOM      8  C   UNL     1       2.364  -2.721  -0.089  0.00  0.00    +0.149 A 
ATOM      9  C   UNL     1       3.616  -2.008  -0.331  0.00  0.00    +0.106 A 
ATOM     10  N   UNL     1       3.610  -0.626  -0.370  0.00  0.00    -0.294 N 
ATOM     11  C   UNL     1       4.874  -0.233  -0.606  0.00  0.00    +0.204 A 
ATOM     12  N   UNL     1       5.643  -1.289  -0.711  0.00  0.00    -0.243 NA
ATOM     13  C   UNL     1       4.915  -2.396  -0.549  0.00  0.00    +0.142 A 
ATOM     14  N   UNL     1       2.350  -4.102  -0.046  0.00  0.00    -0.297 N 
ATOM     15  H   UNL     1       3.183  -4.598  -0.095  0.00  0.00    +0.154 HD
ENDROOT
BRANCH  14  16
ATOM     16  C   UNL     1       1.136  -4.786   0.067  0.00  0.00    +0.051 A 
ATOM     17  C   UNL     1      -0.022  -4.272  -0.513  0.00  0.00    +0.026 A 
ATOM     18  C   UNL     1      -1.200  -4.986  -0.373  0.00  0.00    +0.021 A 
ATOM     19  C   UNL     1      -1.190  -6.176   0.332  0.00  0.00    +0.111 A 
ATOM     20  N   UNL     1      -0.077  -6.635   0.870  0.00  0.00    -0.261 NA
ATOM     21  C   UNL     1       1.067  -5.991   0.755  0.00  0.00    +0.134 A 
ENDBRANCH  14  16
TORSDOF 1
