REMARK  Name = CHEMBL411050
REMARK  9 active torsions:
REMARK  status: ('A' for Active; 'I' for Inactive)
REMARK    1  A    between atoms: C_1  and  C_2
REMARK    2  A    between atoms: C_5  and  N_31
REMARK    3  A    between atoms: C_7  and  C_8
REMARK    4  A    between atoms: N_10  and  C_11
REMARK    5  A    between atoms: N_17  and  C_18
REMARK    6  A    between atoms: C_21  and  N_24
REMARK    7  A    between atoms: N_27  and  C_30
REMARK    8  A    between atoms: C_32  and  C_34
REMARK    9  A    between atoms: C_38  and  C_39
REMARK                            x       y       z     vdW  Elec       q    Type
REMARK                         _______ _______ _______ _____ _____    ______ ____
ROOT
ATOM      1  C   UNL     1       0.329  -0.424   2.651  0.00  0.00    +0.249 C 
ATOM      2  O   UNL     1       0.747   0.713   2.754  0.00  0.00    -0.270 OA
ATOM      3  N   UNL     1      -0.164  -1.062   3.730  0.00  0.00    -0.279 N 
ATOM      4  H   UNL     1      -0.559  -1.943   3.635  0.00  0.00    +0.155 HD
ENDROOT
BRANCH   3   5
ATOM      5  C   UNL     1      -0.108  -0.452   4.991  0.00  0.00    +0.070 A 
ATOM      6  C   UNL     1      -0.257   0.926   5.123  0.00  0.00    +0.139 A 
ATOM      7  N   UNL     1      -0.198   1.467   6.328  0.00  0.00    -0.221 NA
ATOM      8  C   UNL     1      -0.001   0.715   7.401  0.00  0.00    +0.220 A 
ATOM      9  N   UNL     1       0.145  -0.599   7.313  0.00  0.00    -0.221 NA
ATOM     10  C   UNL     1       0.092  -1.209   6.141  0.00  0.00    +0.139 A 
ATOM     11  N   UNL     1       0.056   1.319   8.648  0.00  0.00    -0.284 N 
ATOM     12  H   UNL     1      -0.130   2.267   8.736  0.00  0.00    +0.155 HD
BRANCH  11  13
ATOM     13  C   UNL     1       0.380   0.560   9.779  0.00  0.00    +0.034 A 
ATOM     14  C   UNL     1       1.291  -0.483   9.678  0.00  0.00    +0.025 A 
ATOM     15  C   UNL     1       1.611  -1.232  10.793  0.00  0.00    +0.025 A 
ATOM     16  C   UNL     1       1.021  -0.941  12.017  0.00  0.00    +0.030 A 
ATOM     17  C   UNL     1       0.111   0.102  12.118  0.00  0.00    +0.025 A 
ATOM     18  C   UNL     1      -0.205   0.854  11.004  0.00  0.00    +0.025 A 
BRANCH  16  19
ATOM     19  N   UNL     1       1.345  -1.700  13.147  0.00  0.00    -0.327 N 
ATOM     20  C   UNL     1       0.639  -1.496  14.421  0.00  0.00    +0.120 C 
ATOM     21  C   UNL     1       0.144  -2.854  14.928  0.00  0.00    +0.103 C 
ATOM     22  N   UNL     1       1.273  -3.792  14.987  0.00  0.00    -0.302 NA
ATOM     23  C   UNL     1       1.835  -4.035  13.651  0.00  0.00    +0.103 C 
ATOM     24  C   UNL     1       2.395  -2.728  13.091  0.00  0.00    +0.120 C 
ATOM     25  C   UNL     1       0.877  -5.053  15.628  0.00  0.00    +0.105 C 
ENDBRANCH  16  19
ENDBRANCH  11  13
ENDBRANCH   3   5
BRANCH   1  32
ATOM     26  C   UNL     1       1.550   0.893   0.385  0.00  0.00    +0.044 C 
ATOM     27  C   UNL     1       0.950  -0.481   0.239  0.00  0.00    -0.038 A 
ATOM     28  C   UNL     1       0.985  -1.124  -0.982  0.00  0.00    +0.006 A 
ATOM     29  C   UNL     1       0.435  -2.384  -1.121  0.00  0.00    +0.023 A 
ATOM     30  C   UNL     1      -0.156  -3.014  -0.032  0.00  0.00    +0.034 A 
ATOM     31  C   UNL     1      -0.197  -2.377   1.198  0.00  0.00    +0.036 A 
ATOM     32  C   UNL     1       0.363  -1.107   1.340  0.00  0.00    +0.042 A 
BRANCH  30  33
ATOM     33  N   UNL     1      -0.712  -4.289  -0.179  0.00  0.00    -0.281 N 
ATOM     34  C   UNL     1      -1.813  -4.629   0.520  0.00  0.00    +0.253 C 
ATOM     35  O   UNL     1      -2.378  -3.799   1.206  0.00  0.00    -0.270 OA
ATOM     36  H   UNL     1      -0.304  -4.929  -0.783  0.00  0.00    +0.155 HD
BRANCH  34  37
ATOM     37  C   UNL     1      -2.332  -6.007   0.454  0.00  0.00    +0.098 A 
ATOM     38  C   UNL     1      -1.766  -7.117  -0.315  0.00  0.00    +0.170 A 
ATOM     39  N   UNL     1      -2.520  -8.154  -0.102  0.00  0.00    -0.086 NA
ATOM     40  O   UNL     1      -3.564  -7.784   0.777  0.00  0.00    -0.359 OA
ATOM     41  C   UNL     1      -3.430  -6.495   1.102  0.00  0.00    +0.146 A 
ATOM     42  C   UNL     1      -4.335  -5.716   2.021  0.00  0.00    +0.090 C 
ENDBRANCH  34  37
ENDBRANCH  30  33
ENDBRANCH   1  32
TORSDOF 6
