REMARK  Name = CHEMBL386167
REMARK  4 active torsions:
REMARK  status: ('A' for Active; 'I' for Inactive)
REMARK    1  A    between atoms: C_1  and  C_2
REMARK    2  A    between atoms: C_7  and  N_8
REMARK    3  A    between atoms: C_9  and  C_11
REMARK    4  A    between atoms: C_17  and  C_19
REMARK                            x       y       z     vdW  Elec       q    Type
REMARK                         _______ _______ _______ _____ _____    ______ ____
ROOT
ATOM      1  C   UNL     1      -0.457   0.109   4.800  0.00  0.00    +0.095 A 
ATOM      2  C   UNL     1      -0.818  -0.327   6.067  0.00  0.00    +0.133 A 
ATOM      3  N   UNL     1      -0.823   0.577   7.014  0.00  0.00    -0.232 NA
ATOM      4  C   UNL     1      -0.500   1.834   6.769  0.00  0.00    +0.165 A 
ATOM      5  S   UNL     1      -0.144   1.837   5.124  0.00  0.00    -0.047 S 
ATOM      6  N   UNL     1      -0.458   2.895   7.655  0.00  0.00    -0.261 N 
ATOM      7  C   UNL     1      -0.772   2.703   8.951  0.00  0.00    +0.250 C 
ATOM      8  O   UNL     1      -1.093   1.597   9.342  0.00  0.00    -0.270 OA
ATOM      9  H   UNL     1      -0.203   3.778   7.343  0.00  0.00    +0.157 HD
ENDROOT
BRANCH   7  10
ATOM     10  C   UNL     1      -0.728   3.832   9.894  0.00  0.00    +0.044 A 
ATOM     11  C   UNL     1      -1.052   3.664  11.290  0.00  0.00    +0.020 A 
ATOM     12  C   UNL     1      -0.973   4.776  12.047  0.00  0.00    +0.046 A 
ATOM     13  S   UNL     1      -0.468   6.023  10.883  0.00  0.00    -0.104 S 
ATOM     14  C   UNL     1      -0.369   5.098   9.486  0.00  0.00    +0.058 A 
ENDBRANCH   7  10
BRANCH   1  16
ATOM     15  N   UNL     1       0.026  -0.015   2.417  0.00  0.00    -0.280 N 
ATOM     16  C   UNL     1      -0.354  -0.641   3.548  0.00  0.00    +0.256 C 
ATOM     17  O   UNL     1      -0.612  -1.831   3.528  0.00  0.00    -0.269 OA
ATOM     18  H   UNL     1       0.301   0.915   2.446  0.00  0.00    +0.155 HD
BRANCH  15  25
ATOM     19  C   UNL     1      -2.321   0.099   0.812  0.00  0.00    +0.046 C 
ATOM     20  C   UNL     1      -1.101  -0.676   0.386  0.00  0.00    -0.028 A 
ATOM     21  C   UNL     1      -1.099  -1.354  -0.818  0.00  0.00    +0.005 A 
ATOM     22  C   UNL     1       0.020  -2.066  -1.210  0.00  0.00    +0.002 A 
ATOM     23  C   UNL     1       1.140  -2.102  -0.399  0.00  0.00    +0.022 A 
ATOM     24  C   UNL     1       1.144  -1.427   0.806  0.00  0.00    +0.062 A 
ATOM     25  C   UNL     1       0.023  -0.705   1.200  0.00  0.00    +0.055 A 
ATOM     26 CL   UNL     1       2.549  -1.474   1.824  0.00  0.00    -0.082 Cl
ENDBRANCH  15  25
ENDBRANCH   1  16
TORSDOF 3
