REMARK  Name = CHEMBL212948
REMARK  3 active torsions:
REMARK  status: ('A' for Active; 'I' for Inactive)
REMARK    1  A    between atoms: C_1  and  O_2
REMARK    2  A    between atoms: O_2  and  C_3
REMARK    3  A    between atoms: C_4  and  C_20
REMARK                            x       y       z     vdW  Elec       q    Type
REMARK                         _______ _______ _______ _____ _____    ______ ____
ROOT
ATOM      1  C   UNL     1      -1.195  -0.635   0.010  0.00  0.00    +0.145 A 
ATOM      2  C   UNL     1      -1.812  -0.966   1.230  0.00  0.00    +0.103 A 
ATOM      3  C   UNL     1      -3.054  -1.620   1.230  0.00  0.00    +0.193 A 
ATOM      4  C   UNL     1      -3.676  -1.943   0.027  0.00  0.00    +0.064 A 
ATOM      5  C   UNL     1      -3.073  -1.619  -1.179  0.00  0.00    +0.040 A 
ATOM      6  C   UNL     1      -1.829  -0.956  -1.194  0.00  0.00    +0.076 A 
ATOM      7  C   UNL     1      -1.201  -0.610  -2.481  0.00  0.00    +0.198 C 
ATOM      8  O   UNL     1      -0.032  -0.278  -2.524  0.00  0.00    -0.286 OA
ATOM      9  C   UNL     1      -2.007  -0.671  -3.720  0.00  0.00    +0.033 A 
ATOM     10  C   UNL     1      -1.546  -0.085  -4.893  0.00  0.00    +0.012 A 
ATOM     11  C   UNL     1      -2.313  -0.151  -6.044  0.00  0.00    +0.001 A 
ATOM     12  C   UNL     1      -3.535  -0.798  -6.035  0.00  0.00    +0.001 A 
ATOM     13  C   UNL     1      -4.009  -1.387  -4.876  0.00  0.00    +0.012 A 
ATOM     14  C   UNL     1      -3.251  -1.329  -3.711  0.00  0.00    +0.033 A 
ATOM     15  C   UNL     1      -3.734  -1.962  -2.461  0.00  0.00    +0.195 C 
ATOM     16  O   UNL     1      -4.668  -2.738  -2.484  0.00  0.00    -0.287 OA
ATOM     17  O   UNL     1      -3.648  -1.939   2.405  0.00  0.00    -0.287 OA
ENDROOT
BRANCH   1  19
ATOM     18  C   UNL     1      -0.017   1.425   0.010  0.00  0.00    +0.277 C 
ATOM     19  O   UNL     1       0.002  -0.004   0.002  0.00  0.00    -0.494 OA
ENDBRANCH   1  19
BRANCH   2  20
ATOM     20  C   UNL     1      -1.159  -0.628   2.499  0.00  0.00    +0.266 C 
ATOM     21  O   UNL     1      -1.692  -0.914   3.550  0.00  0.00    -0.295 OA
ENDBRANCH   2  20
TORSDOF 2
