REMARK  Name = CHEMBL375666
REMARK  7 active torsions:
REMARK  status: ('A' for Active; 'I' for Inactive)
REMARK    1  A    between atoms: C_1  and  C_2
REMARK    2  A    between atoms: C_5  and  O_33
REMARK    3  A    between atoms: C_7  and  N_8
REMARK    4  A    between atoms: C_11  and  C_24
REMARK    5  A    between atoms: C_24  and  C_25
REMARK    6  A    between atoms: C_25  and  C_26
REMARK    7  A    between atoms: C_26  and  C_27
REMARK                            x       y       z     vdW  Elec       q    Type
REMARK                         _______ _______ _______ _____ _____    ______ ____
ROOT
ATOM      1  N   UNL     1       0.025  -0.013   2.416  0.00  0.00    -0.299 N 
ATOM      2  C   UNL     1      -0.058  -0.711   3.611  0.00  0.00    +0.128 A 
ATOM      3  C   UNL     1      -0.035  -2.108   3.619  0.00  0.00    +0.067 A 
ATOM      4  C   UNL     1      -0.121  -2.760   4.833  0.00  0.00    +0.048 A 
ATOM      5  N   UNL     1      -0.222  -2.048   5.946  0.00  0.00    -0.217 NA
ATOM      6  C   UNL     1      -0.241  -0.725   5.908  0.00  0.00    +0.238 A 
ATOM      7  N   UNL     1      -0.156  -0.061   4.766  0.00  0.00    -0.197 NA
ATOM      8  N   UNL     1      -0.349  -0.013   7.100  0.00  0.00    -0.267 N 
ATOM      9  C   UNL     1      -0.434  -0.543   8.355  0.00  0.00    +0.207 A 
ATOM     10  N   UNL     1      -0.523   0.409   9.236  0.00  0.00    -0.235 NA
ATOM     11  C   UNL     1      -0.501   1.615   8.612  0.00  0.00    +0.089 A 
ATOM     12  C   UNL     1      -0.383   1.364   7.234  0.00  0.00    +0.076 A 
ATOM     13  C   UNL     1      -0.330   2.422   6.339  0.00  0.00    +0.028 A 
ATOM     14  C   UNL     1      -0.389   3.718   6.805  0.00  0.00    +0.002 A 
ATOM     15  C   UNL     1      -0.502   3.973   8.164  0.00  0.00    +0.002 A 
ATOM     16  C   UNL     1      -0.566   2.935   9.066  0.00  0.00    +0.030 A 
ATOM     17  H   UNL     1       0.085   0.955   2.423  0.00  0.00    +0.154 HD
ENDROOT
BRANCH   1  24
ATOM     18  C   UNL     1      -2.434  -1.103   1.495  0.00  0.00    +0.045 C 
ATOM     19  C   UNL     1      -1.155  -1.253   0.714  0.00  0.00    -0.029 A 
ATOM     20  C   UNL     1      -1.156  -1.931  -0.490  0.00  0.00    +0.009 A 
ATOM     21  C   UNL     1       0.016  -2.071  -1.209  0.00  0.00    +0.046 A 
ATOM     22  C   UNL     1       1.199  -1.530  -0.724  0.00  0.00    +0.119 A 
ATOM     23  C   UNL     1       1.204  -0.849   0.483  0.00  0.00    +0.069 A 
ATOM     24  C   UNL     1       0.025  -0.704   1.201  0.00  0.00    +0.039 A 
BRANCH  22  25
ATOM     25  O   UNL     1       2.350  -1.669  -1.431  0.00  0.00    -0.507 OA
ATOM     26  H   UNL     1       2.513  -0.954  -2.062  0.00  0.00    +0.292 HD
ENDBRANCH  22  25
ENDBRANCH   1  24
BRANCH   4  27
ATOM     27  C   UNL     1      -0.100  -4.266   4.892  0.00  0.00    +0.055 C 
BRANCH  27  28
ATOM     28  C   UNL     1       1.018  -4.724   5.830  0.00  0.00    +0.006 C 
BRANCH  28  29
ATOM     29  C   UNL     1       1.039  -6.253   5.890  0.00  0.00    +0.004 C 
BRANCH  29  30
ATOM     30  C   UNL     1       2.158  -6.712   6.827  0.00  0.00    -0.014 C 
ATOM     31  C   UNL     1       3.515  -6.320   6.236  0.00  0.00    -0.016 C 
ATOM     32  C   UNL     1       4.631  -6.851   7.138  0.00  0.00    -0.082 C 
ATOM     33  N   UNL     1       4.538  -8.313   7.228  0.00  0.00    +0.379 N 
ATOM     34  C   UNL     1       3.270  -8.694   7.861  0.00  0.00    -0.082 C 
ATOM     35  C   UNL     1       2.101  -8.234   6.986  0.00  0.00    -0.016 C 
ATOM     36  H   UNL     1       4.583  -8.710   6.301  0.00  0.00    -0.086 HD
ATOM     37  H   UNL     1       5.307  -8.664   7.780  0.00  0.00    -0.086 HD
ENDBRANCH  29  30
ENDBRANCH  28  29
ENDBRANCH  27  28
ENDBRANCH   4  27
TORSDOF 6
