REMARK  Name = CHEMBL295601
REMARK  11 active torsions:
REMARK  status: ('A' for Active; 'I' for Inactive)
REMARK    1  A    between atoms: C_1  and  N_2
REMARK    2  A    between atoms: N_5  and  C_8
REMARK    3  A    between atoms: C_11  and  N_14
REMARK    4  A    between atoms: C_17  and  C_19
REMARK    5  A    between atoms: C_22  and  N_27
REMARK    6  A    between atoms: C_23  and  O_25
REMARK    7  A    between atoms: O_25  and  C_26
REMARK    8  A    between atoms: C_28  and  C_30
REMARK    9  A    between atoms: C_30  and  C_31
REMARK   10  A    between atoms: C_31  and  C_32
REMARK   11  A    between atoms: C_38  and  N_42
REMARK                            x       y       z     vdW  Elec       q    Type
REMARK                         _______ _______ _______ _____ _____    ______ ____
ROOT
ATOM      1  N   UNL     1      -2.310  -7.905   2.186  0.00  0.00    -0.243 N 
ATOM      2  C   UNL     1      -2.544  -8.744   3.234  0.00  0.00    +0.164 A 
ATOM      3  C   UNL     1      -2.318 -10.053   2.769  0.00  0.00    +0.086 A 
ATOM      4  C   UNL     1      -1.931  -9.931   1.363  0.00  0.00    +0.105 A 
ATOM      5  N   UNL     1      -1.945  -8.654   1.062  0.00  0.00    -0.168 NA
ATOM      6  C   UNL     1      -2.493 -11.122   3.662  0.00  0.00    +0.131 A 
ATOM      7  N   UNL     1      -2.864 -10.848   4.909  0.00  0.00    -0.220 NA
ATOM      8  C   UNL     1      -3.065  -9.604   5.304  0.00  0.00    +0.225 A 
ATOM      9  N   UNL     1      -2.914  -8.572   4.503  0.00  0.00    -0.216 NA
ENDROOT
BRANCH   1  13
ATOM     10  C   UNL     1      -2.253  -3.834   0.909  0.00  0.00    +0.057 C 
ATOM     11  C   UNL     1      -3.603  -4.465   1.258  0.00  0.00    +0.021 C 
ATOM     12  C   UNL     1      -3.480  -5.989   1.214  0.00  0.00    +0.028 C 
ATOM     13  C   UNL     1      -2.428  -6.445   2.227  0.00  0.00    +0.110 C 
ATOM     14  C   UNL     1      -1.078  -5.814   1.879  0.00  0.00    +0.028 C 
ATOM     15  C   UNL     1      -1.201  -4.290   1.922  0.00  0.00    +0.021 C 
BRANCH  10  20
ATOM     16  C   UNL     1      -2.345   1.713  -0.072  0.00  0.00    -0.096 C 
ATOM     17  N   UNL     1      -2.211   0.254  -0.166  0.00  0.00    +0.379 N 
ATOM     18  C   UNL     1      -3.510  -0.376   0.105  0.00  0.00    -0.064 C 
ATOM     19  C   UNL     1      -3.375  -1.896  -0.011  0.00  0.00    +0.066 C 
ATOM     20  N   UNL     1      -2.371  -2.370   0.951  0.00  0.00    -0.303 NA
ATOM     21  C   UNL     1      -1.071  -1.730   0.707  0.00  0.00    +0.066 C 
ATOM     22  C   UNL     1      -1.225  -0.212   0.818  0.00  0.00    -0.064 C 
ATOM     23  H   UNL     1      -1.904   0.004  -1.094  0.00  0.00    -0.082 HD
ENDBRANCH  10  20
ENDBRANCH   1  13
BRANCH   4  24
ATOM     24  C   UNL     1      -1.592 -11.046   0.447  0.00  0.00    +0.006 A 
ATOM     25  C   UNL     1      -2.370 -12.203   0.436  0.00  0.00    +0.012 A 
ATOM     26  C   UNL     1      -2.054 -13.240  -0.416  0.00  0.00    +0.027 A 
ATOM     27  C   UNL     1      -0.960 -13.135  -1.265  0.00  0.00    +0.076 A 
ATOM     28  C   UNL     1      -0.179 -11.981  -1.258  0.00  0.00    +0.142 A 
ATOM     29  C   UNL     1      -0.497 -10.936  -0.409  0.00  0.00    +0.057 A 
BRANCH  27  30
ATOM     30  N   UNL     1      -0.642 -14.190  -2.129  0.00  0.00    -0.283 N 
ATOM     31  C   UNL     1      -1.575 -15.111  -2.441  0.00  0.00    +0.218 C 
ATOM     32  O   UNL     1      -2.717 -14.971  -2.056  0.00  0.00    -0.275 OA
ATOM     33  H   UNL     1       0.251 -14.259  -2.502  0.00  0.00    +0.155 HD
BRANCH  31  34
ATOM     34  C   UNL     1      -1.201 -16.312  -3.270  0.00  0.00    +0.101 C 
BRANCH  34  35
ATOM     35  C   UNL     1      -2.435 -17.192  -3.479  0.00  0.00    +0.044 C 
BRANCH  35  36
ATOM     36  C   UNL     1      -2.061 -18.394  -4.307  0.00  0.00    -0.047 A 
ATOM     37  C   UNL     1      -2.147 -18.337  -5.686  0.00  0.00    +0.003 A 
ATOM     38  C   UNL     1      -1.804 -19.440  -6.446  0.00  0.00    +0.000 A 
ATOM     39  C   UNL     1      -1.374 -20.599  -5.827  0.00  0.00    +0.000 A 
ATOM     40  C   UNL     1      -1.287 -20.655  -4.449  0.00  0.00    +0.000 A 
ATOM     41  C   UNL     1      -1.626 -19.552  -3.689  0.00  0.00    +0.003 A 
ENDBRANCH  35  36
ENDBRANCH  34  35
ENDBRANCH  31  34
ENDBRANCH  27  30
BRANCH  28  42
ATOM     42  O   UNL     1       0.892 -11.880  -2.090  0.00  0.00    -0.493 OA
ATOM     43  C   UNL     1       1.648 -10.668  -2.029  0.00  0.00    +0.277 C 
ENDBRANCH  28  42
ENDBRANCH   4  24
BRANCH   6  44
ATOM     44  N   UNL     1      -2.284 -12.426   3.255  0.00  0.00    -0.342 N 
ATOM     45  H   UNL     1      -1.830 -12.605   2.417  0.00  0.00    +0.144 HD
ATOM     46  H   UNL     1      -2.592 -13.161   3.808  0.00  0.00    +0.144 HD
ENDBRANCH   6  44
TORSDOF 9
