REMARK  Name = CHEMBL218632
REMARK  8 active torsions:
REMARK  status: ('A' for Active; 'I' for Inactive)
REMARK    1  A    between atoms: C_1  and  C_2
REMARK    2  A    between atoms: C_5  and  C_23
REMARK    3  A    between atoms: C_7  and  O_8
REMARK    4  A    between atoms: O_8  and  C_9
REMARK    5  A    between atoms: C_10  and  C_15
REMARK    6  A    between atoms: N_21  and  C_22
REMARK    7  A    between atoms: N_25  and  C_26
REMARK    8  A    between atoms: C_30  and  C_32
REMARK                            x       y       z     vdW  Elec       q    Type
REMARK                         _______ _______ _______ _____ _____    ______ ____
ROOT
ATOM      1  C   UNL     1      -0.074   1.477  -0.037  0.00  0.00    +0.047 C 
ATOM      2  C   UNL     1      -0.005  -0.028  -0.016  0.00  0.00    -0.008 A 
ATOM      3  C   UNL     1       0.000  -0.735  -1.204  0.00  0.00    +0.008 A 
ATOM      4  C   UNL     1       0.063  -2.113  -1.192  0.00  0.00    +0.013 A 
ATOM      5  C   UNL     1       0.121  -2.798   0.023  0.00  0.00    +0.041 A 
ATOM      6  C   UNL     1       0.116  -2.084   1.221  0.00  0.00    +0.059 A 
ATOM      7  C   UNL     1       0.058  -0.700   1.198  0.00  0.00    +0.134 A 
ENDROOT
BRANCH   5   8
ATOM      8  C   UNL     1       0.188  -4.275   0.040  0.00  0.00    +0.248 C 
ATOM      9  O   UNL     1       0.239  -4.869   1.099  0.00  0.00    -0.270 OA
ATOM     10  N   UNL     1       0.193  -4.962  -1.119  0.00  0.00    -0.281 N 
ATOM     11  H   UNL     1       0.238  -4.488  -1.964  0.00  0.00    +0.155 HD
BRANCH  10  12
ATOM     12  C   UNL     1       0.133  -6.359  -1.104  0.00  0.00    +0.034 A 
ATOM     13  C   UNL     1       0.665  -7.091  -2.158  0.00  0.00    +0.023 A 
ATOM     14  C   UNL     1       0.605  -8.470  -2.140  0.00  0.00    +0.002 A 
ATOM     15  C   UNL     1       0.015  -9.124  -1.073  0.00  0.00    +0.012 A 
ATOM     16  C   UNL     1      -0.516  -8.399  -0.022  0.00  0.00    +0.057 A 
ATOM     17  C   UNL     1      -0.454  -7.019  -0.032  0.00  0.00    +0.035 A 
BRANCH  16  18
ATOM     18  C   UNL     1      -1.158  -9.115   1.138  0.00  0.00    +0.417 C 
ATOM     19  F   UNL     1      -1.096 -10.496   0.925  0.00  0.00    -0.166 F 
ATOM     20  F   UNL     1      -0.479  -8.794   2.318  0.00  0.00    -0.166 F 
ATOM     21  F   UNL     1      -2.496  -8.720   1.247  0.00  0.00    -0.166 F 
ENDBRANCH  16  18
ENDBRANCH  10  12
ENDBRANCH   5   8
BRANCH   7  22
ATOM     22  O   UNL     1       0.058  -0.000   2.362  0.00  0.00    -0.437 OA
BRANCH  22  23
ATOM     23  C   UNL     1       1.244   0.464   2.826  0.00  0.00    +0.230 A 
ATOM     24  C   UNL     1       1.304   1.095   4.075  0.00  0.00    +0.062 A 
ATOM     25  C   UNL     1       2.536   1.565   4.534  0.00  0.00    +0.017 A 
ATOM     26  C   UNL     1       3.650   1.387   3.730  0.00  0.00    +0.021 A 
ATOM     27  C   UNL     1       3.511   0.754   2.509  0.00  0.00    +0.114 A 
ATOM     28  N   UNL     1       2.338   0.314   2.098  0.00  0.00    -0.220 NA
BRANCH  24  29
ATOM     29  C   UNL     1       0.082   1.260   4.896  0.00  0.00    +0.081 A 
ATOM     30  C   UNL     1       0.142   1.895   6.140  0.00  0.00    +0.048 A 
ATOM     31  C   UNL     1      -1.025   2.026   6.870  0.00  0.00    +0.116 A 
ATOM     32  N   UNL     1      -2.157   1.551   6.373  0.00  0.00    -0.223 NA
ATOM     33  C   UNL     1      -2.185   0.954   5.190  0.00  0.00    +0.215 A 
ATOM     34  N   UNL     1      -1.093   0.811   4.457  0.00  0.00    -0.214 NA
ATOM     35  N   UNL     1      -3.389   0.471   4.707  0.00  0.00    -0.317 N 
ATOM     36  C   UNL     1      -4.611   0.624   5.502  0.00  0.00    +0.128 C 
ATOM     37  H   UNL     1      -3.424   0.032   3.844  0.00  0.00    +0.149 HD
ENDBRANCH  24  29
ENDBRANCH  22  23
ENDBRANCH   7  22
TORSDOF 6
