REMARK  Name = CHEMBL315816
REMARK  1 active torsions:
REMARK  status: ('A' for Active; 'I' for Inactive)
REMARK    1  A    between atoms: C_8  and  C_14
REMARK                            x       y       z     vdW  Elec       q    Type
REMARK                         _______ _______ _______ _____ _____    ______ ____
ROOT
ATOM      1  C   UNL     1      -0.008   1.371   0.194  0.00  0.00    +0.002 A 
ATOM      2  C   UNL     1       1.174   2.090   0.098  0.00  0.00    +0.002 A 
ATOM      3  C   UNL     1       2.383   1.435  -0.010  0.00  0.00    +0.028 A 
ATOM      4  C   UNL     1       2.423   0.047  -0.023  0.00  0.00    +0.073 A 
ATOM      5  C   UNL     1       1.230  -0.688   0.075  0.00  0.00    +0.088 A 
ATOM      6  C   UNL     1       0.011  -0.005   0.184  0.00  0.00    +0.030 A 
ATOM      7  N   UNL     1       1.244  -2.045   0.064  0.00  0.00    -0.243 NA
ATOM      8  C   UNL     1       2.370  -2.719  -0.038  0.00  0.00    +0.098 A 
ATOM      9  C   UNL     1       3.640  -2.002  -0.142  0.00  0.00    +0.092 A 
ATOM     10  N   UNL     1       3.637  -0.619  -0.133  0.00  0.00    -0.295 N 
ATOM     11  C   UNL     1       4.917  -0.222  -0.240  0.00  0.00    +0.204 A 
ATOM     12  N   UNL     1       5.692  -1.275  -0.314  0.00  0.00    -0.243 NA
ATOM     13  C   UNL     1       4.953  -2.386  -0.258  0.00  0.00    +0.140 A 
ENDROOT
BRANCH   8  14
ATOM     14  C   UNL     1       2.350  -4.200  -0.046  0.00  0.00    +0.021 A 
ATOM     15  C   UNL     1       3.436  -4.928   0.453  0.00  0.00    +0.013 A 
ATOM     16  C   UNL     1       3.368  -6.310   0.423  0.00  0.00    +0.020 A 
ATOM     17  C   UNL     1       2.239  -6.921  -0.095  0.00  0.00    +0.111 A 
ATOM     18  N   UNL     1       1.231  -6.208  -0.558  0.00  0.00    -0.263 NA
ATOM     19  C   UNL     1       1.247  -4.891  -0.546  0.00  0.00    +0.120 A 
ENDBRANCH   8  14
TORSDOF 1
