REMARK  Name = CHEMBL247677
REMARK  7 active torsions:
REMARK  status: ('A' for Active; 'I' for Inactive)
REMARK    1  A    between atoms: C_1  and  N_2
REMARK    2  A    between atoms: N_5  and  C_8
REMARK    3  A    between atoms: C_8  and  C_9
REMARK    4  A    between atoms: C_12  and  C_15
REMARK    5  A    between atoms: C_16  and  C_32
REMARK    6  A    between atoms: N_24  and  C_25
REMARK    7  A    between atoms: C_25  and  C_26
REMARK                            x       y       z     vdW  Elec       q    Type
REMARK                         _______ _______ _______ _____ _____    ______ ____
ROOT
ATOM      1  C   UNL     1       1.411  -5.850   6.250  0.00  0.00    +0.146 A 
ATOM      2  C   UNL     1       0.684  -5.947   7.405  0.00  0.00    +0.041 A 
ATOM      3  C   UNL     1       1.637  -6.368   8.440  0.00  0.00    +0.088 A 
ATOM      4  C   UNL     1       1.559  -6.647   9.811  0.00  0.00    +0.134 A 
ATOM      5  N   UNL     1       2.670  -7.014  10.444  0.00  0.00    -0.220 NA
ATOM      6  C   UNL     1       3.817  -7.114   9.797  0.00  0.00    +0.227 A 
ATOM      7  N   UNL     1       3.933  -6.861   8.511  0.00  0.00    -0.200 NA
ATOM      8  C   UNL     1       2.878  -6.487   7.792  0.00  0.00    +0.233 A 
ATOM      9  O   UNL     1       2.695  -6.177   6.497  0.00  0.00    -0.436 OA
ATOM     10  N   UNL     1       0.358  -6.542  10.489  0.00  0.00    -0.326 N 
ATOM     11  H   UNL     1      -0.444  -6.272  10.015  0.00  0.00    +0.148 HD
ENDROOT
BRANCH   1  15
ATOM     12  C   UNL     1      -0.142  -4.711   2.467  0.00  0.00    -0.033 A 
ATOM     13  C   UNL     1      -0.455  -3.968   3.592  0.00  0.00    +0.005 A 
ATOM     14  C   UNL     1       0.045  -4.332   4.825  0.00  0.00    +0.012 A 
ATOM     15  C   UNL     1       0.871  -5.454   4.936  0.00  0.00    +0.018 A 
ATOM     16  C   UNL     1       1.182  -6.199   3.796  0.00  0.00    +0.012 A 
ATOM     17  C   UNL     1       0.669  -5.827   2.571  0.00  0.00    +0.005 A 
BRANCH  12  18
ATOM     18  C   UNL     1      -0.694  -4.306   1.124  0.00  0.00    +0.119 C 
BRANCH  18  23
ATOM     19  C   UNL     1      -6.040  -5.727   0.052  0.00  0.00    -0.096 C 
ATOM     20  N   UNL     1      -4.769  -5.019   0.257  0.00  0.00    +0.379 N 
ATOM     21  C   UNL     1      -3.763  -5.539  -0.678  0.00  0.00    -0.064 C 
ATOM     22  C   UNL     1      -2.444  -4.788  -0.478  0.00  0.00    +0.066 C 
ATOM     23  N   UNL     1      -1.988  -4.966   0.908  0.00  0.00    -0.302 NA
ATOM     24  C   UNL     1      -2.996  -4.473   1.856  0.00  0.00    +0.066 C 
ATOM     25  C   UNL     1      -4.310  -5.226   1.637  0.00  0.00    -0.064 C 
ATOM     26  H   UNL     1      -4.904  -4.033   0.092  0.00  0.00    -0.082 HD
ENDBRANCH  18  23
ENDBRANCH  12  18
ENDBRANCH   1  15
BRANCH   2  27
ATOM     27  C   UNL     1      -0.762  -5.682   7.577  0.00  0.00    -0.014 A 
ATOM     28  C   UNL     1      -1.190  -4.592   8.336  0.00  0.00    +0.008 A 
ATOM     29  C   UNL     1      -2.539  -4.350   8.492  0.00  0.00    +0.001 A 
ATOM     30  C   UNL     1      -3.468  -5.186   7.898  0.00  0.00    +0.000 A 
ATOM     31  C   UNL     1      -3.050  -6.269   7.145  0.00  0.00    +0.001 A 
ATOM     32  C   UNL     1      -1.704  -6.518   6.976  0.00  0.00    +0.008 A 
ENDBRANCH   2  27
BRANCH  10  33
ATOM     33  C   UNL     1       0.298  -6.838  11.923  0.00  0.00    +0.134 C 
BRANCH  33  34
ATOM     34  C   UNL     1      -1.135  -6.646  12.423  0.00  0.00    +0.135 C 
ATOM     35  C   UNL     1      -1.185  -6.838  13.954  0.00  0.00    +0.035 C 
ATOM     36  C   UNL     1      -2.522  -7.604  14.147  0.00  0.00    +0.031 C 
ATOM     37  C   UNL     1      -2.554  -8.466  12.861  0.00  0.00    +0.160 C 
ATOM     38  O   UNL     1      -1.991  -7.631  11.834  0.00  0.00    -0.375 OA
ENDBRANCH  33  34
ENDBRANCH  10  33
TORSDOF 6
