REMARK  Name = CHEMBL458333
REMARK  15 active torsions:
REMARK  status: ('A' for Active; 'I' for Inactive)
REMARK    1  A    between atoms: C_1  and  C_2
REMARK    2  A    between atoms: C_6  and  C_40
REMARK    3  A    between atoms: C_7  and  N_8
REMARK    4  A    between atoms: N_16  and  C_18
REMARK    5  A    between atoms: C_18  and  C_19
REMARK    6  A    between atoms: C_19  and  C_20
REMARK    7  A    between atoms: C_20  and  C_21
REMARK    8  A    between atoms: C_20  and  C_22
REMARK    9  A    between atoms: C_20  and  O_23
REMARK   10  A    between atoms: O_23  and  C_24
REMARK   11  A    between atoms: N_25  and  C_26
REMARK   12  A    between atoms: C_29  and  O_32
REMARK   13  A    between atoms: O_32  and  C_33
REMARK   14  A    between atoms: C_33  and  C_34
REMARK   15  A    between atoms: C_34  and  N_35
REMARK                            x       y       z     vdW  Elec       q    Type
REMARK                         _______ _______ _______ _____ _____    ______ ____
ROOT
ATOM      1  N   UNL     1       0.151   0.020   2.295  0.00  0.00    -0.297 N 
ATOM      2  C   UNL     1      -0.141  -0.593   3.515  0.00  0.00    +0.156 A 
ATOM      3  C   UNL     1      -0.100   0.040   4.833  0.00  0.00    +0.079 A 
ATOM      4  C   UNL     1       0.204   1.318   5.305  0.00  0.00    +0.129 A 
ATOM      5  N   UNL     1       0.136   1.545   6.604  0.00  0.00    -0.222 NA
ATOM      6  C   UNL     1      -0.215   0.585   7.453  0.00  0.00    +0.221 A 
ATOM      7  N   UNL     1      -0.512  -0.640   7.054  0.00  0.00    -0.195 NA
ATOM      8  C   UNL     1      -0.469  -0.957   5.763  0.00  0.00    +0.165 A 
ATOM      9  N   UNL     1      -0.709  -2.092   5.049  0.00  0.00    -0.244 N 
ATOM     10  N   UNL     1      -0.506  -1.836   3.688  0.00  0.00    -0.153 NA
ATOM     11  N   UNL     1      -0.271   0.877   8.806  0.00  0.00    -0.284 N 
ATOM     12  H   UNL     1       0.335   0.972   2.263  0.00  0.00    +0.154 HD
ATOM     13  H   UNL     1      -0.444   0.172   9.448  0.00  0.00    +0.155 HD
ENDROOT
BRANCH   1  20
ATOM     14  C   UNL     1       2.670  -0.440   1.053  0.00  0.00    +0.045 C 
ATOM     15  C   UNL     1       1.387  -0.987   0.482  0.00  0.00    -0.029 A 
ATOM     16  C   UNL     1       1.411  -1.740  -0.675  0.00  0.00    +0.005 A 
ATOM     17  C   UNL     1       0.233  -2.242  -1.200  0.00  0.00    +0.001 A 
ATOM     18  C   UNL     1      -0.971  -1.990  -0.569  0.00  0.00    +0.005 A 
ATOM     19  C   UNL     1      -1.003  -1.237   0.588  0.00  0.00    -0.029 A 
ATOM     20  C   UNL     1       0.179  -0.737   1.122  0.00  0.00    +0.038 A 
ATOM     21  C   UNL     1      -2.316  -0.963   1.275  0.00  0.00    +0.045 C 
ENDBRANCH   1  20
BRANCH  11  22
ATOM     22  C   UNL     1      -0.077   2.193   9.246  0.00  0.00    +0.034 A 
ATOM     23  C   UNL     1      -0.514   3.257   8.468  0.00  0.00    +0.027 A 
ATOM     24  C   UNL     1      -0.323   4.554   8.903  0.00  0.00    +0.047 A 
ATOM     25  C   UNL     1       0.306   4.793  10.116  0.00  0.00    +0.121 A 
ATOM     26  C   UNL     1       0.744   3.731  10.893  0.00  0.00    +0.047 A 
ATOM     27  C   UNL     1       0.548   2.433  10.462  0.00  0.00    +0.027 A 
BRANCH  25  28
ATOM     28  O   UNL     1       0.494   6.070  10.543  0.00  0.00    -0.494 OA
BRANCH  28  29
ATOM     29  C   UNL     1       1.149   6.244  11.802  0.00  0.00    +0.210 C 
BRANCH  29  30
ATOM     30  C   UNL     1       1.270   7.737  12.112  0.00  0.00    -0.037 C 
BRANCH  30  31
ATOM     31  N   UNL     1      -0.071   8.310  12.290  0.00  0.00    +0.382 N 
ATOM     32  C   UNL     1      -0.692   7.786  13.533  0.00  0.00    -0.079 C 
ATOM     33  C   UNL     1      -1.768   8.849  13.868  0.00  0.00    -0.020 C 
ATOM     34  C   UNL     1      -1.077  10.175  13.475  0.00  0.00    -0.020 C 
ATOM     35  C   UNL     1       0.021   9.775  12.472  0.00  0.00    -0.079 C 
ATOM     36  H   UNL     1      -0.650   8.094  11.492  0.00  0.00    -0.082 HD
ENDBRANCH  30  31
ENDBRANCH  29  30
ENDBRANCH  28  29
ENDBRANCH  25  28
ENDBRANCH  11  22
BRANCH   9  37
ATOM     37  C   UNL     1      -1.121  -3.378   5.616  0.00  0.00    +0.148 C 
BRANCH  37  38
ATOM     38  C   UNL     1      -2.648  -3.445   5.673  0.00  0.00    +0.058 C 
BRANCH  38  39
ATOM     39  C   UNL     1      -3.079  -4.788   6.266  0.00  0.00    +0.065 C 
ATOM     40  C   UNL     1      -4.603  -4.906   6.208  0.00  0.00    +0.041 C 
ATOM     41  C   UNL     1      -2.448  -5.926   5.461  0.00  0.00    +0.041 C 
BRANCH  39  42
ATOM     42  O   UNL     1      -2.646  -4.869   7.625  0.00  0.00    -0.377 OA
ATOM     43  C   UNL     1      -2.999  -6.092   8.275  0.00  0.00    +0.194 C 
ENDBRANCH  39  42
ENDBRANCH  38  39
ENDBRANCH  37  38
ENDBRANCH   9  37
TORSDOF 10
