REMARK  Name = CHEMBL106457
REMARK  8 active torsions:
REMARK  status: ('A' for Active; 'I' for Inactive)
REMARK    1  A    between atoms: C_1  and  C_2
REMARK    2  A    between atoms: C_7  and  N_8
REMARK    3  A    between atoms: C_17  and  O_31
REMARK    4  A    between atoms: C_18  and  O_22
REMARK    5  A    between atoms: O_22  and  C_23
REMARK    6  A    between atoms: C_23  and  C_24
REMARK    7  A    between atoms: C_24  and  N_25
REMARK    8  A    between atoms: O_31  and  C_32
REMARK                            x       y       z     vdW  Elec       q    Type
REMARK                         _______ _______ _______ _____ _____    ______ ____
ROOT
ATOM      1  N   UNL     1       0.359   0.141   3.910  0.00  0.00    -0.296 N 
ATOM      2  C   UNL     1      -0.121  -0.668   4.924  0.00  0.00    +0.149 A 
ATOM      3  C   UNL     1      -0.293  -0.130   6.271  0.00  0.00    +0.106 A 
ATOM      4  C   UNL     1      -0.079   1.098   6.849  0.00  0.00    +0.142 A 
ATOM      5  N   UNL     1      -0.420   1.000   8.136  0.00  0.00    -0.243 NA
ATOM      6  C   UNL     1      -0.835  -0.216   8.394  0.00  0.00    +0.204 A 
ATOM      7  N   UNL     1      -0.774  -0.953   7.272  0.00  0.00    -0.294 N 
ATOM      8  C   UNL     1      -1.082  -2.274   6.963  0.00  0.00    +0.077 A 
ATOM      9  C   UNL     1      -1.568  -3.127   7.945  0.00  0.00    +0.077 A 
ATOM     10  C   UNL     1      -1.872  -4.439   7.634  0.00  0.00    +0.164 A 
ATOM     11  C   UNL     1      -1.693  -4.913   6.334  0.00  0.00    +0.164 A 
ATOM     12  C   UNL     1      -1.210  -4.075   5.349  0.00  0.00    +0.079 A 
ATOM     13  C   UNL     1      -0.899  -2.744   5.653  0.00  0.00    +0.094 A 
ATOM     14  N   UNL     1      -0.430  -1.922   4.676  0.00  0.00    -0.228 NA
ATOM     15  H   UNL     1       0.511   1.085   4.073  0.00  0.00    +0.154 HD
ENDROOT
BRANCH   1  22
ATOM     16  C   UNL     1       3.068   0.010   3.050  0.00  0.00    +0.046 C 
ATOM     17  C   UNL     1       1.934  -0.485   2.190  0.00  0.00    -0.028 A 
ATOM     18  C   UNL     1       2.195  -1.028   0.947  0.00  0.00    +0.005 A 
ATOM     19  C   UNL     1       1.155  -1.483   0.157  0.00  0.00    +0.002 A 
ATOM     20  C   UNL     1      -0.149  -1.397   0.608  0.00  0.00    +0.022 A 
ATOM     21  C   UNL     1      -0.418  -0.856   1.851  0.00  0.00    +0.062 A 
ATOM     22  C   UNL     1       0.626  -0.402   2.649  0.00  0.00    +0.054 A 
ATOM     23 CL   UNL     1      -2.055  -0.747   2.416  0.00  0.00    -0.082 Cl
ENDBRANCH   1  22
BRANCH  10  24
ATOM     24  O   UNL     1      -2.348  -5.272   8.599  0.00  0.00    -0.491 OA
ATOM     25  C   UNL     1      -2.507  -4.722   9.909  0.00  0.00    +0.277 C 
ENDBRANCH  10  24
BRANCH  11  26
ATOM     26  O   UNL     1      -1.994  -6.205   6.036  0.00  0.00    -0.487 OA
BRANCH  26  27
ATOM     27  C   UNL     1      -1.787  -6.625   4.686  0.00  0.00    +0.244 C 
BRANCH  27  28
ATOM     28  C   UNL     1      -2.178  -8.098   4.545  0.00  0.00    +0.125 C 
BRANCH  28  29
ATOM     29  N   UNL     1      -3.621  -8.245   4.777  0.00  0.00    -0.295 NA
ATOM     30  C   UNL     1      -3.962  -9.637   5.105  0.00  0.00    +0.112 C 
ATOM     31  C   UNL     1      -5.461  -9.735   5.397  0.00  0.00    +0.175 C 
ATOM     32  O   UNL     1      -6.194  -9.249   4.269  0.00  0.00    -0.377 OA
ATOM     33  C   UNL     1      -5.887  -7.896   3.921  0.00  0.00    +0.175 C 
ATOM     34  C   UNL     1      -4.392  -7.781   3.614  0.00  0.00    +0.112 C 
ENDBRANCH  28  29
ENDBRANCH  27  28
ENDBRANCH  26  27
ENDBRANCH  11  26
TORSDOF 6
