REMARK  Name = CHEMBL568542
REMARK  7 active torsions:
REMARK  status: ('A' for Active; 'I' for Inactive)
REMARK    1  A    between atoms: C_1  and  C_2
REMARK    2  A    between atoms: C_2  and  C_3
REMARK    3  A    between atoms: C_2  and  N_14
REMARK    4  A    between atoms: N_5  and  S_10
REMARK    5  A    between atoms: N_8  and  C_9
REMARK    6  A    between atoms: S_10  and  C_13
REMARK    7  A    between atoms: C_19  and  N_21
REMARK                            x       y       z     vdW  Elec       q    Type
REMARK                         _______ _______ _______ _____ _____    ______ ____
ROOT
ATOM      1  N   UNL     1      -1.131  -1.352   0.033  0.00  0.00    -0.309 N 
ATOM      2  C   UNL     1      -1.756  -1.623   1.238  0.00  0.00    +0.217 A 
ATOM      3  N   UNL     1      -1.269  -1.093   2.351  0.00  0.00    -0.223 NA
ATOM      4  C   UNL     1      -1.839  -1.329   3.522  0.00  0.00    +0.118 A 
ATOM      5  C   UNL     1      -2.958  -2.140   3.578  0.00  0.00    +0.066 A 
ATOM      6  C   UNL     1      -3.446  -2.683   2.390  0.00  0.00    +0.144 A 
ATOM      7  N   UNL     1      -2.827  -2.401   1.250  0.00  0.00    -0.197 NA
ATOM      8  H   UNL     1      -1.480  -1.730  -0.790  0.00  0.00    +0.149 HD
ENDROOT
BRANCH   6   9
ATOM      9  N   UNL     1      -4.570  -3.507   2.400  0.00  0.00    -0.283 N 
ATOM     10  C   UNL     1      -5.302  -3.866   3.494  0.00  0.00    +0.206 A 
ATOM     11  N   UNL     1      -6.283  -4.643   3.139  0.00  0.00    -0.235 NA
ATOM     12  C   UNL     1      -6.251  -4.837   1.795  0.00  0.00    +0.089 A 
ATOM     13  C   UNL     1      -5.157  -4.108   1.300  0.00  0.00    +0.075 A 
ATOM     14  C   UNL     1      -4.878  -4.114  -0.059  0.00  0.00    +0.028 A 
ATOM     15  C   UNL     1      -5.678  -4.835  -0.920  0.00  0.00    +0.002 A 
ATOM     16  C   UNL     1      -6.761  -5.554  -0.437  0.00  0.00    +0.002 A 
ATOM     17  C   UNL     1      -7.049  -5.565   0.909  0.00  0.00    +0.030 A 
ENDBRANCH   6   9
BRANCH   1  19
ATOM     18  C   UNL     1      -0.376   0.968  -0.132  0.00  0.00    +0.029 C 
ATOM     19  C   UNL     1       0.056  -0.494  -0.001  0.00  0.00    +0.088 C 
BRANCH  19  20
ATOM     20  C   UNL     1       0.928  -0.877  -1.198  0.00  0.00    +0.092 C 
ATOM     21  C   UNL     1       0.102  -0.778  -2.485  0.00  0.00    +0.129 C 
ATOM     22  N   UNL     1       0.996  -1.004  -3.632  0.00  0.00    -0.179 NA
ATOM     23  C   UNL     1       2.236  -0.217  -3.713  0.00  0.00    +0.124 C 
ATOM     24  C   UNL     1       2.978  -0.339  -2.377  0.00  0.00    +0.101 C 
ATOM     25  N   UNL     1       2.073   0.039  -1.283  0.00  0.00    -0.298 NA
ATOM     26  C   UNL     1       2.793   0.102  -0.004  0.00  0.00    +0.105 C 
BRANCH  22  27
ATOM     27  S   UNL     1       0.614  -2.113  -4.801  0.00  0.00    +0.029 S 
ATOM     28  O   UNL     1       1.865  -2.509  -5.346  0.00  0.00    -0.158 OA
ATOM     29  O   UNL     1      -0.222  -3.057  -4.146  0.00  0.00    -0.158 OA
ATOM     30  C   UNL     1      -0.339  -1.183  -6.033  0.00  0.00    +0.215 C 
ENDBRANCH  22  27
ENDBRANCH  19  20
ENDBRANCH   1  19
TORSDOF 4
