REMARK  Name = CHEMBL223873
REMARK  4 active torsions:
REMARK  status: ('A' for Active; 'I' for Inactive)
REMARK    1  A    between atoms: C_1  and  C_2
REMARK    2  A    between atoms: C_6  and  C_24
REMARK    3  A    between atoms: C_7  and  N_8
REMARK    4  A    between atoms: C_15  and  C_18
REMARK                            x       y       z     vdW  Elec       q    Type
REMARK                         _______ _______ _______ _____ _____    ______ ____
ROOT
ATOM      1  N   UNL     1       0.346  -0.781   2.603  0.00  0.00    -0.297 N 
ATOM      2  C   UNL     1       0.142  -1.596   3.702  0.00  0.00    +0.149 A 
ATOM      3  C   UNL     1       0.029  -1.032   4.994  0.00  0.00    +0.106 A 
ATOM      4  C   UNL     1       0.074   0.249   5.496  0.00  0.00    +0.142 A 
ATOM      5  N   UNL     1      -0.095   0.167   6.816  0.00  0.00    -0.243 NA
ATOM      6  C   UNL     1      -0.244  -1.087   7.169  0.00  0.00    +0.204 A 
ATOM      7  N   UNL     1      -0.174  -1.867   6.078  0.00  0.00    -0.294 N 
ATOM      8  C   UNL     1      -0.262  -3.232   5.858  0.00  0.00    +0.073 A 
ATOM      9  C   UNL     1      -0.146  -3.716   4.593  0.00  0.00    +0.139 A 
ATOM     10  N   UNL     1       0.046  -2.905   3.550  0.00  0.00    -0.236 NA
ATOM     11  H   UNL     1       0.338   0.183   2.706  0.00  0.00    +0.154 HD
ENDROOT
BRANCH   1  18
ATOM     12  C   UNL     1       2.956  -0.606   1.483  0.00  0.00    +0.045 C 
ATOM     13  C   UNL     1       1.822  -1.285   0.760  0.00  0.00    -0.029 A 
ATOM     14  C   UNL     1       2.034  -1.851  -0.482  0.00  0.00    +0.005 A 
ATOM     15  C   UNL     1       0.994  -2.474  -1.147  0.00  0.00    +0.001 A 
ATOM     16  C   UNL     1      -0.262  -2.533  -0.571  0.00  0.00    +0.005 A 
ATOM     17  C   UNL     1      -0.482  -1.969   0.671  0.00  0.00    -0.029 A 
ATOM     18  C   UNL     1       0.563  -1.348   1.344  0.00  0.00    +0.038 A 
ATOM     19  C   UNL     1      -1.851  -2.033   1.297  0.00  0.00    +0.045 C 
ENDBRANCH   1  18
BRANCH   8  20
ATOM     20  C   UNL     1      -0.478  -4.154   6.990  0.00  0.00    +0.000 A 
ATOM     21  C   UNL     1      -1.673  -4.110   7.713  0.00  0.00    +0.010 A 
ATOM     22  C   UNL     1      -1.868  -4.974   8.769  0.00  0.00    +0.001 A 
ATOM     23  C   UNL     1      -0.884  -5.885   9.114  0.00  0.00    +0.000 A 
ATOM     24  C   UNL     1       0.302  -5.934   8.402  0.00  0.00    +0.001 A 
ATOM     25  C   UNL     1       0.508  -5.080   7.340  0.00  0.00    +0.010 A 
ENDBRANCH   8  20
TORSDOF 2
