REMARK  Name = CHEMBL312933
REMARK  7 active torsions:
REMARK  status: ('A' for Active; 'I' for Inactive)
REMARK    1  A    between atoms: C_1  and  C_2
REMARK    2  A    between atoms: C_7  and  N_8
REMARK    3  A    between atoms: C_9  and  C_11
REMARK    4  A    between atoms: C_25  and  N_27
REMARK    5  A    between atoms: N_27  and  C_28
REMARK    6  A    between atoms: C_28  and  C_29
REMARK    7  A    between atoms: C_29  and  O_30
REMARK                            x       y       z     vdW  Elec       q    Type
REMARK                         _______ _______ _______ _____ _____    ______ ____
ROOT
ATOM      1  C   UNL     1       0.654  -0.056   5.139  0.00  0.00    +0.038 A 
ATOM      2  C   UNL     1       0.993   1.302   5.213  0.00  0.00    +0.015 A 
ATOM      3  C   UNL     1       0.705   2.045   6.310  0.00  0.00    +0.029 A 
ATOM      4  C   UNL     1       0.047   1.473   7.428  0.00  0.00    +0.080 A 
ATOM      5  C   UNL     1      -0.285   0.100   7.329  0.00  0.00    +0.041 A 
ATOM      6  C   UNL     1      -0.001  -0.652   6.223  0.00  0.00    +0.030 A 
ATOM      7  S   UNL     1      -1.070  -0.213   8.892  0.00  0.00    -0.052 S 
ATOM      8  C   UNL     1      -0.915   1.439   9.556  0.00  0.00    +0.164 A 
ATOM      9  N   UNL     1      -0.304   2.076   8.581  0.00  0.00    -0.225 NA
ATOM     10  N   UNL     1      -1.331   1.923  10.779  0.00  0.00    -0.280 N 
ATOM     11  C   UNL     1      -1.209   3.279  11.069  0.00  0.00    +0.103 A 
ATOM     12  C   UNL     1      -0.813   4.162  10.072  0.00  0.00    +0.042 A 
ATOM     13  C   UNL     1      -0.695   5.510  10.369  0.00  0.00    +0.007 A 
ATOM     14  C   UNL     1      -0.977   5.932  11.658  0.00  0.00    +0.041 A 
ATOM     15  C   UNL     1      -1.369   4.997  12.608  0.00  0.00    +0.097 A 
ATOM     16  N   UNL     1      -1.477   3.715  12.291  0.00  0.00    -0.332 N 
ATOM     17  H   UNL     1      -1.708   1.319  11.437  0.00  0.00    +0.155 HD
ATOM     18  H   UNL     1      -1.756   3.081  12.969  0.00  0.00    +0.168 HD
ENDROOT
BRANCH   1  20
ATOM     19  N   UNL     1       1.610  -0.260   2.898  0.00  0.00    -0.280 N 
ATOM     20  C   UNL     1       0.979  -0.844   3.936  0.00  0.00    +0.248 C 
ATOM     21  O   UNL     1       0.676  -2.020   3.880  0.00  0.00    -0.270 OA
ATOM     22  H   UNL     1       1.923   0.655   2.974  0.00  0.00    +0.155 HD
BRANCH  19  29
ATOM     23  C   UNL     1       0.768   0.927   0.453  0.00  0.00    +0.046 C 
ATOM     24  C   UNL     1       1.419  -0.432   0.497  0.00  0.00    -0.028 A 
ATOM     25  C   UNL     1       1.627  -1.137  -0.673  0.00  0.00    +0.005 A 
ATOM     26  C   UNL     1       2.224  -2.383  -0.634  0.00  0.00    +0.002 A 
ATOM     27  C   UNL     1       2.615  -2.929   0.575  0.00  0.00    +0.022 A 
ATOM     28  C   UNL     1       2.410  -2.229   1.749  0.00  0.00    +0.062 A 
ATOM     29  C   UNL     1       1.815  -0.974   1.712  0.00  0.00    +0.055 A 
ATOM     30 CL   UNL     1       2.900  -2.915   3.267  0.00  0.00    -0.082 Cl
ENDBRANCH  19  29
ENDBRANCH   1  20
BRANCH  15  31
ATOM     31  N   UNL     1      -1.654   5.410  13.905  0.00  0.00    -0.328 N 
ATOM     32  H   UNL     1      -1.927   4.762  14.572  0.00  0.00    +0.147 HD
BRANCH  31  33
ATOM     33  C   UNL     1      -1.541   6.826  14.263  0.00  0.00    +0.130 C 
BRANCH  33  34
ATOM     34  C   UNL     1      -1.907   7.010  15.737  0.00  0.00    +0.174 C 
BRANCH  34  35
ATOM     35  O   UNL     1      -0.948   6.336  16.554  0.00  0.00    -0.393 OA
ATOM     36  H   UNL     1      -1.118   6.410  17.503  0.00  0.00    +0.209 HD
ENDBRANCH  34  35
ENDBRANCH  33  34
ENDBRANCH  31  33
ENDBRANCH  15  31
TORSDOF 6
