REMARK  Name = CHEMBL211460
REMARK  10 active torsions:
REMARK  status: ('A' for Active; 'I' for Inactive)
REMARK    1  A    between atoms: C_1  and  C_2
REMARK    2  A    between atoms: C_6  and  C_40
REMARK    3  A    between atoms: C_7  and  O_8
REMARK    4  A    between atoms: O_8  and  C_9
REMARK    5  A    between atoms: N_11  and  C_12
REMARK    6  A    between atoms: C_17  and  O_18
REMARK    7  A    between atoms: O_18  and  C_19
REMARK    8  A    between atoms: N_26  and  C_27
REMARK    9  A    between atoms: C_30  and  N_33
REMARK   10  A    between atoms: N_36  and  C_39
REMARK                            x       y       z     vdW  Elec       q    Type
REMARK                         _______ _______ _______ _____ _____    ______ ____
ROOT
ATOM      1  C   UNL     1      -0.684  -0.005   4.146  0.00  0.00    +0.418 C 
ATOM      2  O   UNL     1      -1.223  -0.810   4.878  0.00  0.00    -0.225 OA
ATOM      3  N   UNL     1      -1.267   1.187   3.909  0.00  0.00    -0.186 N 
ATOM      4  C   UNL     1      -2.534   1.454   4.418  0.00  0.00    +0.140 A 
ATOM      5  C   UNL     1      -3.676   1.059   3.719  0.00  0.00    +0.064 A 
ATOM      6  C   UNL     1      -4.914   1.345   4.262  0.00  0.00    +0.118 A 
ATOM      7  N   UNL     1      -4.981   1.982   5.422  0.00  0.00    -0.223 NA
ATOM      8  C   UNL     1      -3.880   2.346   6.063  0.00  0.00    +0.221 A 
ATOM      9  N   UNL     1      -2.675   2.085   5.578  0.00  0.00    -0.198 NA
ATOM     10  N   UNL     1      -3.992   3.010   7.273  0.00  0.00    -0.284 N 
ATOM     11  H   UNL     1      -3.198   3.349   7.716  0.00  0.00    +0.155 HD
ENDROOT
BRANCH   3  12
ATOM     12  C   UNL     1      -0.597   2.158   3.150  0.00  0.00    +0.087 A 
ATOM     13  C   UNL     1      -0.764   2.201   1.773  0.00  0.00    +0.028 A 
ATOM     14  C   UNL     1      -0.103   3.158   1.027  0.00  0.00    +0.002 A 
ATOM     15  C   UNL     1       0.726   4.073   1.649  0.00  0.00    +0.004 A 
ATOM     16  C   UNL     1       0.898   4.036   3.020  0.00  0.00    +0.047 A 
ATOM     17  C   UNL     1       0.233   3.083   3.776  0.00  0.00    +0.142 A 
BRANCH  17  18
ATOM     18  O   UNL     1       0.396   3.049   5.125  0.00  0.00    -0.493 OA
ATOM     19  C   UNL     1       1.263   4.030   5.699  0.00  0.00    +0.277 C 
ENDBRANCH  17  18
ENDBRANCH   3  12
BRANCH  10  20
ATOM     20  C   UNL     1      -5.251   3.192   7.858  0.00  0.00    +0.034 A 
ATOM     21  C   UNL     1      -6.239   2.229   7.695  0.00  0.00    +0.025 A 
ATOM     22  C   UNL     1      -7.480   2.409   8.272  0.00  0.00    +0.025 A 
ATOM     23  C   UNL     1      -7.742   3.553   9.015  0.00  0.00    +0.030 A 
ATOM     24  C   UNL     1      -6.754   4.516   9.178  0.00  0.00    +0.025 A 
ATOM     25  C   UNL     1      -5.511   4.333   8.606  0.00  0.00    +0.025 A 
BRANCH  23  26
ATOM     26  N   UNL     1      -9.000   3.736   9.599  0.00  0.00    -0.333 N 
ATOM     27  C   UNL     1      -9.343   4.995  10.279  0.00  0.00    +0.086 C 
ATOM     28  C   UNL     1     -10.685   5.492   9.732  0.00  0.00    -0.060 C 
ATOM     29  N   UNL     1     -11.693   4.434   9.872  0.00  0.00    +0.380 N 
ATOM     30  C   UNL     1     -11.328   3.283   9.037  0.00  0.00    -0.060 C 
ATOM     31  C   UNL     1     -10.020   2.677   9.544  0.00  0.00    +0.086 C 
ATOM     32  C   UNL     1     -13.003   4.948   9.450  0.00  0.00    -0.096 C 
ATOM     33  H   UNL     1     -11.743   4.145  10.838  0.00  0.00    -0.082 HD
ENDBRANCH  23  26
ENDBRANCH  10  20
BRANCH   1  34
ATOM     34  O   UNL     1       0.497  -0.303   3.570  0.00  0.00    -0.410 OA
BRANCH  34  41
ATOM     35  C   UNL     1      -0.180  -2.446   1.859  0.00  0.00    +0.047 C 
ATOM     36  C   UNL     1       0.753  -2.606   3.032  0.00  0.00    -0.008 A 
ATOM     37  C   UNL     1       1.320  -3.837   3.302  0.00  0.00    +0.007 A 
ATOM     38  C   UNL     1       2.176  -3.984   4.378  0.00  0.00    +0.001 A 
ATOM     39  C   UNL     1       2.468  -2.900   5.185  0.00  0.00    +0.007 A 
ATOM     40  C   UNL     1       1.904  -1.667   4.919  0.00  0.00    -0.008 A 
ATOM     41  C   UNL     1       1.049  -1.516   3.837  0.00  0.00    +0.139 A 
ATOM     42  C   UNL     1       2.222  -0.487   5.800  0.00  0.00    +0.047 C 
ENDBRANCH  34  41
ENDBRANCH   1  34
TORSDOF 6
