REMARK  Name = CHEMBL1079424
REMARK  6 active torsions:
REMARK  status: ('A' for Active; 'I' for Inactive)
REMARK    1  A    between atoms: C_1  and  C_2
REMARK    2  A    between atoms: C_5  and  C_25
REMARK    3  A    between atoms: C_7  and  N_8
REMARK    4  A    between atoms: C_20  and  N_24
REMARK    5  A    between atoms: N_27  and  C_28
REMARK    6  A    between atoms: C_32  and  C_34
REMARK                            x       y       z     vdW  Elec       q    Type
REMARK                         _______ _______ _______ _____ _____    ______ ____
ROOT
ATOM      1  N   UNL     1       1.105  -0.197   2.860  0.00  0.00    -0.284 N 
ATOM      2  C   UNL     1       0.411  -0.888   3.832  0.00  0.00    +0.207 A 
ATOM      3  N   UNL     1       0.268  -2.189   3.873  0.00  0.00    -0.214 NA
ATOM      4  C   UNL     1      -0.470  -2.535   4.960  0.00  0.00    +0.091 A 
ATOM      5  C   UNL     1      -0.911  -3.759   5.470  0.00  0.00    +0.030 A 
ATOM      6  C   UNL     1      -1.664  -3.788   6.623  0.00  0.00    +0.002 A 
ATOM      7  C   UNL     1      -1.987  -2.612   7.283  0.00  0.00    +0.002 A 
ATOM      8  C   UNL     1      -1.559  -1.395   6.792  0.00  0.00    +0.028 A 
ATOM      9  C   UNL     1      -0.800  -1.347   5.633  0.00  0.00    +0.077 A 
ATOM     10  N   UNL     1      -0.226  -0.317   4.902  0.00  0.00    -0.264 N 
ATOM     11  C   UNL     1      -0.287   1.043   5.199  0.00  0.00    +0.145 A 
ATOM     12  C   UNL     1      -0.343   1.985   4.179  0.00  0.00    +0.090 A 
ATOM     13  C   UNL     1      -0.403   3.332   4.527  0.00  0.00    +0.121 A 
ATOM     14  N   UNL     1      -0.405   3.666   5.816  0.00  0.00    -0.221 NA
ATOM     15  C   UNL     1      -0.351   2.742   6.754  0.00  0.00    +0.225 A 
ATOM     16  N   UNL     1      -0.299   1.458   6.463  0.00  0.00    -0.218 NA
ATOM     17  H   UNL     1       1.082   0.773   2.845  0.00  0.00    +0.155 HD
ENDROOT
BRANCH   1  24
ATOM     18  C   UNL     1       2.196   1.275   0.688  0.00  0.00    +0.045 C 
ATOM     19  C   UNL     1       2.392  -0.213   0.817  0.00  0.00    -0.029 A 
ATOM     20  C   UNL     1       3.125  -0.897  -0.135  0.00  0.00    +0.006 A 
ATOM     21  C   UNL     1       3.308  -2.260  -0.024  0.00  0.00    +0.013 A 
ATOM     22  C   UNL     1       2.753  -2.953   1.053  0.00  0.00    +0.039 A 
ATOM     23  C   UNL     1       2.014  -2.264   2.014  0.00  0.00    +0.036 A 
ATOM     24  C   UNL     1       1.840  -0.893   1.896  0.00  0.00    +0.037 A 
BRANCH  22  25
ATOM     25  C   UNL     1       2.948  -4.414   1.174  0.00  0.00    +0.248 C 
ATOM     26  O   UNL     1       2.464  -5.016   2.113  0.00  0.00    -0.270 OA
ATOM     27  N   UNL     1       3.662  -5.078   0.244  0.00  0.00    -0.281 N 
ATOM     28  H   UNL     1       3.992  -4.610  -0.540  0.00  0.00    +0.155 HD
BRANCH  27  29
ATOM     29  C   UNL     1       3.928  -6.437   0.408  0.00  0.00    +0.037 A 
ATOM     30  C   UNL     1       2.993  -7.281   1.007  0.00  0.00    +0.043 A 
ATOM     31  C   UNL     1       3.294  -8.620   1.149  0.00  0.00    +0.113 A 
ATOM     32  N   UNL     1       4.447  -9.103   0.728  0.00  0.00    -0.260 NA
ATOM     33  C   UNL     1       5.357  -8.337   0.157  0.00  0.00    +0.040 A 
ATOM     34  C   UNL     1       5.131  -6.988  -0.029  0.00  0.00    +0.046 A 
ATOM     35  C   UNL     1       6.657  -8.943  -0.304  0.00  0.00    +0.065 C 
ENDBRANCH  27  29
ENDBRANCH  22  25
ENDBRANCH   1  24
BRANCH  13  36
ATOM     36  N   UNL     1      -0.459   4.311   3.547  0.00  0.00    -0.343 N 
ATOM     37  H   UNL     1      -0.457   4.059   2.611  0.00  0.00    +0.144 HD
ATOM     38  H   UNL     1      -0.501   5.247   3.799  0.00  0.00    +0.144 HD
ENDBRANCH  13  36
TORSDOF 4
