REMARK  Name = CHEMBL29566
REMARK  7 active torsions:
REMARK  status: ('A' for Active; 'I' for Inactive)
REMARK    1  A    between atoms: C_1  and  C_2
REMARK    2  A    between atoms: C_3  and  C_26
REMARK    3  A    between atoms: N_13  and  C_25
REMARK    4  A    between atoms: N_16  and  C_17
REMARK    5  A    between atoms: C_26  and  C_27
REMARK    6  A    between atoms: C_27  and  C_28
REMARK    7  A    between atoms: C_28  and  N_29
REMARK                            x       y       z     vdW  Elec       q    Type
REMARK                         _______ _______ _______ _____ _____    ______ ____
ROOT
ATOM      1  C   UNL     1       0.120   0.901   3.491  0.00  0.00    +0.063 C 
ATOM      2  C   UNL     1       0.221  -0.547   3.087  0.00  0.00    +0.020 A 
ATOM      3  C   UNL     1      -0.744  -1.397   3.475  0.00  0.00    -0.020 A 
ATOM      4  C   UNL     1      -0.660  -2.807   3.091  0.00  0.00    -0.006 A 
ATOM      5  C   UNL     1      -1.639  -3.732   3.467  0.00  0.00    +0.011 A 
ATOM      6  C   UNL     1      -1.531  -5.037   3.093  0.00  0.00    +0.030 A 
ATOM      7  C   UNL     1      -0.441  -5.476   2.326  0.00  0.00    +0.092 A 
ATOM      8  C   UNL     1       0.553  -4.568   1.936  0.00  0.00    +0.083 A 
ATOM      9  C   UNL     1       0.447  -3.225   2.318  0.00  0.00    +0.072 A 
ATOM     10  C   UNL     1       1.450  -2.228   1.943  0.00  0.00    +0.259 A 
ATOM     11  N   UNL     1       1.289  -0.949   2.337  0.00  0.00    -0.326 N 
ATOM     12  O   UNL     1       2.419  -2.549   1.277  0.00  0.00    -0.267 OA
ATOM     13  N   UNL     1       1.473  -5.290   1.205  0.00  0.00    -0.314 N 
ATOM     14  C   UNL     1       1.035  -6.584   1.166  0.00  0.00    +0.201 A 
ATOM     15  N   UNL     1      -0.090  -6.690   1.826  0.00  0.00    -0.214 NA
ATOM     16  N   UNL     1       1.683  -7.622   0.527  0.00  0.00    -0.283 N 
ATOM     17  C   UNL     1       2.693  -4.768   0.586  0.00  0.00    +0.152 C 
ATOM     18  H   UNL     1       2.474  -7.446  -0.006  0.00  0.00    +0.155 HD
ATOM     19  H   UNL     1       1.956  -0.292   2.081  0.00  0.00    +0.169 HD
ENDROOT
BRANCH  16  20
ATOM     20  C   UNL     1       1.198  -8.929   0.647  0.00  0.00    +0.071 A 
ATOM     21  C   UNL     1      -0.002  -9.285   0.043  0.00  0.00    +0.064 A 
ATOM     22  C   UNL     1      -0.478 -10.577   0.163  0.00  0.00    +0.022 A 
ATOM     23  C   UNL     1       0.238 -11.515   0.884  0.00  0.00    +0.003 A 
ATOM     24  C   UNL     1       1.432 -11.165   1.487  0.00  0.00    +0.022 A 
ATOM     25  C   UNL     1       1.917  -9.876   1.366  0.00  0.00    +0.064 A 
ATOM     26 CL   UNL     1       3.420  -9.439   2.118  0.00  0.00    -0.082 Cl
ATOM     27 CL   UNL     1      -0.902  -8.108  -0.863  0.00  0.00    -0.082 Cl
ENDBRANCH  16  20
BRANCH   3  28
ATOM     28  C   UNL     1      -1.905  -0.902   4.299  0.00  0.00    +0.039 C 
BRANCH  28  29
ATOM     29  C   UNL     1      -3.079  -0.566   3.376  0.00  0.00    +0.020 C 
BRANCH  29  30
ATOM     30  C   UNL     1      -4.257  -0.064   4.213  0.00  0.00    +0.085 C 
BRANCH  30  31
ATOM     31  N   UNL     1      -5.384   0.258   3.327  0.00  0.00    -0.298 NA
ATOM     32  C   UNL     1      -5.064   1.404   2.463  0.00  0.00    +0.112 C 
ATOM     33  C   UNL     1      -6.239   1.667   1.518  0.00  0.00    +0.175 C 
ATOM     34  O   UNL     1      -7.425   1.884   2.288  0.00  0.00    -0.377 OA
ATOM     35  C   UNL     1      -7.766   0.788   3.141  0.00  0.00    +0.175 C 
ATOM     36  C   UNL     1      -6.606   0.516   4.103  0.00  0.00    +0.112 C 
ENDBRANCH  30  31
ENDBRANCH  29  30
ENDBRANCH  28  29
ENDBRANCH   3  28
TORSDOF 5
