REMARK  Name = CHEMBL1084452
REMARK  8 active torsions:
REMARK  status: ('A' for Active; 'I' for Inactive)
REMARK    1  A    between atoms: C_1  and  N_2
REMARK    2  A    between atoms: C_6  and  C_7
REMARK    3  A    between atoms: C_7  and  C_8
REMARK    4  A    between atoms: C_8  and  N_9
REMARK    5  A    between atoms: C_14  and  C_16
REMARK    6  A    between atoms: C_21  and  O_22
REMARK    7  A    between atoms: O_22  and  C_23
REMARK    8  A    between atoms: C_26  and  N_33
REMARK                            x       y       z     vdW  Elec       q    Type
REMARK                         _______ _______ _______ _____ _____    ______ ____
ROOT
ATOM      1  C   UNL     1       7.439   1.126  -0.904  0.00  0.00    +0.062 A 
ATOM      2  C   UNL     1       8.144   2.270  -1.286  0.00  0.00    +0.017 A 
ATOM      3  C   UNL     1       9.470   2.130  -1.662  0.00  0.00    +0.021 A 
ATOM      4  C   UNL     1      10.051   0.876  -1.647  0.00  0.00    +0.114 A 
ATOM      5  N   UNL     1       9.365  -0.190  -1.283  0.00  0.00    -0.220 NA
ATOM      6  C   UNL     1       8.099  -0.109  -0.911  0.00  0.00    +0.230 A 
ENDROOT
BRANCH   1  12
ATOM      7  N   UNL     1       3.412  -0.942   0.623  0.00  0.00    -0.314 N 
ATOM      8  C   UNL     1       4.080   0.210   0.244  0.00  0.00    +0.216 A 
ATOM      9  N   UNL     1       3.432   1.366   0.259  0.00  0.00    -0.223 NA
ATOM     10  C   UNL     1       4.034   2.490  -0.096  0.00  0.00    +0.116 A 
ATOM     11  C   UNL     1       5.360   2.453  -0.487  0.00  0.00    +0.048 A 
ATOM     12  C   UNL     1       6.018   1.219  -0.493  0.00  0.00    +0.081 A 
ATOM     13  N   UNL     1       5.350   0.130  -0.119  0.00  0.00    -0.214 NA
ATOM     14  H   UNL     1       3.876  -1.794   0.620  0.00  0.00    +0.149 HD
BRANCH   7  15
ATOM     15  C   UNL     1       2.006  -0.874   1.027  0.00  0.00    +0.103 C 
BRANCH  15  16
ATOM     16  C   UNL     1       1.513  -2.275   1.394  0.00  0.00    +0.003 C 
BRANCH  16  22
ATOM     17  C   UNL     1      -1.060  -0.346   0.752  0.00  0.00    -0.096 C 
ATOM     18  N   UNL     1      -0.800  -1.790   0.676  0.00  0.00    +0.380 N 
ATOM     19  C   UNL     1      -2.076  -2.527   0.744  0.00  0.00    -0.079 C 
ATOM     20  C   UNL     1      -2.001  -3.458   1.973  0.00  0.00    -0.020 C 
ATOM     21  C   UNL     1      -0.474  -3.612   2.202  0.00  0.00    -0.017 C 
ATOM     22  C   UNL     1       0.044  -2.204   1.817  0.00  0.00    -0.068 C 
ATOM     23  H   UNL     1      -0.331  -2.007  -0.190  0.00  0.00    -0.082 HD
ENDBRANCH  16  22
ENDBRANCH  15  16
ENDBRANCH   7  15
ENDBRANCH   1  12
BRANCH   6  24
ATOM     24  O   UNL     1       7.434  -1.230  -0.538  0.00  0.00    -0.437 OA
BRANCH  24  25
ATOM     25  C   UNL     1       8.079  -2.421  -0.648  0.00  0.00    +0.138 A 
ATOM     26  C   UNL     1       7.867  -3.223  -1.746  0.00  0.00    +0.049 A 
ATOM     27  C   UNL     1       8.520  -4.445  -1.875  0.00  0.00    +0.027 A 
ATOM     28  C   UNL     1       9.396  -4.883  -0.905  0.00  0.00    +0.041 A 
ATOM     29  C   UNL     1       9.634  -4.083   0.232  0.00  0.00    +0.007 A 
ATOM     30  C   UNL     1       8.973  -2.837   0.359  0.00  0.00    +0.026 A 
ATOM     31  C   UNL     1       9.216  -2.040   1.490  0.00  0.00    +0.012 A 
ATOM     32  C   UNL     1      10.085  -2.472   2.444  0.00  0.00    +0.001 A 
ATOM     33  C   UNL     1      10.740  -3.695   2.317  0.00  0.00    +0.001 A 
ATOM     34  C   UNL     1      10.521  -4.498   1.239  0.00  0.00    +0.010 A 
BRANCH  28  35
ATOM     35  N   UNL     1      10.044  -6.112  -1.048  0.00  0.00    -0.285 N 
ATOM     36  C   UNL     1       9.958  -6.803  -2.239  0.00  0.00    +0.198 A 
ATOM     37  N   UNL     1      10.440  -8.063  -2.452  0.00  0.00    -0.326 N 
ATOM     38  H   UNL     1      10.896  -8.622  -1.803  0.00  0.00    +0.169 HD
ATOM     39  C   UNL     1      10.156  -8.395  -3.766  0.00  0.00    +0.067 A 
ATOM     40  C   UNL     1      10.392  -9.516  -4.548  0.00  0.00    +0.028 A 
ATOM     41  C   UNL     1       9.973  -9.538  -5.862  0.00  0.00    +0.002 A 
ATOM     42  C   UNL     1       9.317  -8.445  -6.408  0.00  0.00    +0.002 A 
ATOM     43  C   UNL     1       9.074  -7.324  -5.647  0.00  0.00    +0.030 A 
ATOM     44  C   UNL     1       9.492  -7.286  -4.314  0.00  0.00    +0.091 A 
ATOM     45  N   UNL     1       9.397  -6.351  -3.333  0.00  0.00    -0.214 NA
ATOM     46  H   UNL     1      10.553  -6.481  -0.309  0.00  0.00    +0.155 HD
ENDBRANCH  28  35
ENDBRANCH  24  25
ENDBRANCH   6  24
TORSDOF 7
