REMARK  Name = CHEMBL568543
REMARK  7 active torsions:
REMARK  status: ('A' for Active; 'I' for Inactive)
REMARK    1  A    between atoms: C_1  and  C_2
REMARK    2  A    between atoms: C_2  and  C_3
REMARK    3  A    between atoms: C_2  and  N_17
REMARK    4  A    between atoms: N_5  and  C_10
REMARK    5  A    between atoms: N_8  and  C_9
REMARK    6  A    between atoms: C_10  and  C_11
REMARK    7  A    between atoms: C_22  and  N_24
REMARK                            x       y       z     vdW  Elec       q    Type
REMARK                         _______ _______ _______ _____ _____    ______ ____
ROOT
ATOM      1  N   UNL     1      -1.386  -0.273   0.506  0.00  0.00    -0.309 N 
ATOM      2  C   UNL     1      -2.257  -0.415  -0.561  0.00  0.00    +0.217 A 
ATOM      3  N   UNL     1      -1.785  -0.329  -1.796  0.00  0.00    -0.223 NA
ATOM      4  C   UNL     1      -2.587  -0.460  -2.841  0.00  0.00    +0.118 A 
ATOM      5  C   UNL     1      -3.935  -0.690  -2.634  0.00  0.00    +0.066 A 
ATOM      6  C   UNL     1      -4.401  -0.776  -1.323  0.00  0.00    +0.144 A 
ATOM      7  N   UNL     1      -3.540  -0.640  -0.321  0.00  0.00    -0.197 NA
ATOM      8  H   UNL     1      -1.718  -0.338   1.415  0.00  0.00    +0.149 HD
ENDROOT
BRANCH   6   9
ATOM      9  N   UNL     1      -5.751  -1.007  -1.067  0.00  0.00    -0.283 N 
ATOM     10  C   UNL     1      -6.735  -1.175  -1.998  0.00  0.00    +0.206 A 
ATOM     11  N   UNL     1      -7.877  -1.371  -1.409  0.00  0.00    -0.235 NA
ATOM     12  C   UNL     1      -7.710  -1.342  -0.061  0.00  0.00    +0.089 A 
ATOM     13  C   UNL     1      -6.345  -1.114   0.179  0.00  0.00    +0.075 A 
ATOM     14  C   UNL     1      -5.873  -1.040   1.481  0.00  0.00    +0.028 A 
ATOM     15  C   UNL     1      -6.747  -1.194   2.537  0.00  0.00    +0.002 A 
ATOM     16  C   UNL     1      -8.095  -1.423   2.305  0.00  0.00    +0.002 A 
ATOM     17  C   UNL     1      -8.582  -1.492   1.020  0.00  0.00    +0.030 A 
ENDBRANCH   6   9
BRANCH   1  19
ATOM     18  C   UNL     1       0.283   1.484   0.172  0.00  0.00    +0.029 C 
ATOM     19  C   UNL     1       0.037  -0.023   0.262  0.00  0.00    +0.088 C 
BRANCH  19  20
ATOM     20  C   UNL     1       0.861  -0.607   1.411  0.00  0.00    +0.090 C 
ATOM     21  C   UNL     1       2.337  -0.253   1.212  0.00  0.00    +0.105 C 
ATOM     22  N   UNL     1       2.816  -0.845  -0.045  0.00  0.00    -0.295 NA
ATOM     23  C   UNL     1       2.664  -2.307  -0.026  0.00  0.00    +0.100 C 
ATOM     24  C   UNL     1       1.188  -2.661   0.173  0.00  0.00    +0.100 C 
ATOM     25  N   UNL     1       0.710  -2.069   1.430  0.00  0.00    -0.298 NA
ATOM     26  C   UNL     1      -0.684  -2.450   1.694  0.00  0.00    +0.105 C 
BRANCH  22  27
ATOM     27  C   UNL     1       4.209  -0.464  -0.309  0.00  0.00    +0.119 C 
BRANCH  27  28
ATOM     28  C   UNL     1       4.587  -0.878  -1.708  0.00  0.00    -0.033 A 
ATOM     29  C   UNL     1       5.123  -2.131  -1.937  0.00  0.00    +0.005 A 
ATOM     30  C   UNL     1       5.469  -2.512  -3.220  0.00  0.00    +0.000 A 
ATOM     31  C   UNL     1       5.278  -1.639  -4.275  0.00  0.00    +0.000 A 
ATOM     32  C   UNL     1       4.741  -0.386  -4.046  0.00  0.00    +0.000 A 
ATOM     33  C   UNL     1       4.391  -0.007  -2.764  0.00  0.00    +0.005 A 
ENDBRANCH  27  28
ENDBRANCH  22  27
ENDBRANCH  19  20
ENDBRANCH   1  19
TORSDOF 5
