REMARK  Name = CHEMBL568543
REMARK  7 active torsions:
REMARK  status: ('A' for Active; 'I' for Inactive)
REMARK    1  A    between atoms: C_1  and  C_2
REMARK    2  A    between atoms: C_2  and  C_3
REMARK    3  A    between atoms: C_2  and  N_17
REMARK    4  A    between atoms: N_5  and  C_10
REMARK    5  A    between atoms: N_8  and  C_9
REMARK    6  A    between atoms: C_10  and  C_11
REMARK    7  A    between atoms: C_22  and  N_24
REMARK                            x       y       z     vdW  Elec       q    Type
REMARK                         _______ _______ _______ _____ _____    ______ ____
ROOT
ATOM      1  C   UNL     1       0.508  -1.233   1.417  0.00  0.00    +0.026 C 
ATOM      2  C   UNL     1      -0.217  -0.843   0.127  0.00  0.00    +0.058 C 
ENDROOT
BRANCH   2   3
ATOM      3  C   UNL     1      -1.583  -1.530   0.082  0.00  0.00    -0.034 C 
ATOM      4  C   UNL     1      -1.392  -3.048   0.061  0.00  0.00    +0.071 C 
ATOM      5  N   UNL     1      -0.631  -3.425  -1.139  0.00  0.00    -0.301 NA
ATOM      6  C   UNL     1      -1.327  -2.989  -2.357  0.00  0.00    +0.066 C 
ATOM      7  C   UNL     1      -1.520  -1.471  -2.316  0.00  0.00    -0.063 C 
ATOM      8  N   UNL     1      -2.303  -1.109  -1.127  0.00  0.00    +0.383 N 
ATOM      9  C   UNL     1      -2.503   0.345  -1.097  0.00  0.00    -0.096 C 
ATOM     10  H   UNL     1      -3.200  -1.571  -1.162  0.00  0.00    -0.082 HD
BRANCH   5  11
ATOM     11  C   UNL     1      -0.377  -4.872  -1.167  0.00  0.00    +0.119 C 
BRANCH  11  12
ATOM     12  C   UNL     1       0.529  -5.200  -2.326  0.00  0.00    -0.033 A 
ATOM     13  C   UNL     1      -0.007  -5.430  -3.579  0.00  0.00    +0.005 A 
ATOM     14  C   UNL     1       0.824  -5.731  -4.642  0.00  0.00    +0.000 A 
ATOM     15  C   UNL     1       2.192  -5.802  -4.452  0.00  0.00    +0.000 A 
ATOM     16  C   UNL     1       2.728  -5.571  -3.199  0.00  0.00    +0.000 A 
ATOM     17  C   UNL     1       1.897  -5.266  -2.137  0.00  0.00    +0.005 A 
ENDBRANCH  11  12
ENDBRANCH   5  11
ENDBRANCH   2   3
BRANCH   2  18
ATOM     18  N   UNL     1       0.580  -1.267  -1.027  0.00  0.00    -0.312 N 
ATOM     19  C   UNL     1       1.643  -0.491  -1.456  0.00  0.00    +0.217 A 
ATOM     20  N   UNL     1       2.003   0.564  -0.741  0.00  0.00    -0.223 NA
ATOM     21  C   UNL     1       3.015   1.329  -1.119  0.00  0.00    +0.118 A 
ATOM     22  C   UNL     1       3.702   1.018  -2.278  0.00  0.00    +0.066 A 
ATOM     23  C   UNL     1       3.300  -0.099  -3.010  0.00  0.00    +0.144 A 
ATOM     24  N   UNL     1       2.279  -0.826  -2.569  0.00  0.00    -0.197 NA
ATOM     25  H   UNL     1       0.362  -2.090  -1.491  0.00  0.00    +0.149 HD
BRANCH  23  26
ATOM     26  N   UNL     1       3.963  -0.451  -4.184  0.00  0.00    -0.283 N 
ATOM     27  C   UNL     1       5.109   0.111  -4.666  0.00  0.00    +0.206 A 
ATOM     28  N   UNL     1       5.449  -0.460  -5.784  0.00  0.00    -0.235 NA
ATOM     29  C   UNL     1       4.548  -1.426  -6.099  0.00  0.00    +0.089 A 
ATOM     30  C   UNL     1       3.584  -1.439  -5.076  0.00  0.00    +0.075 A 
ATOM     31  C   UNL     1       2.531  -2.340  -5.127  0.00  0.00    +0.028 A 
ATOM     32  C   UNL     1       2.434  -3.222  -6.183  0.00  0.00    +0.002 A 
ATOM     33  C   UNL     1       3.384  -3.216  -7.194  0.00  0.00    +0.002 A 
ATOM     34  C   UNL     1       4.432  -2.324  -7.163  0.00  0.00    +0.030 A 
ENDBRANCH  23  26
ENDBRANCH   2  18
TORSDOF 5
