REMARK  Name = CHEMBL572199
REMARK  7 active torsions:
REMARK  status: ('A' for Active; 'I' for Inactive)
REMARK    1  A    between atoms: C_1  and  C_2
REMARK    2  A    between atoms: C_2  and  C_3
REMARK    3  A    between atoms: C_2  and  N_29
REMARK    4  A    between atoms: N_8  and  C_9
REMARK    5  A    between atoms: C_9  and  C_10
REMARK    6  A    between atoms: N_18  and  C_19
REMARK    7  A    between atoms: C_34  and  N_36
REMARK                            x       y       z     vdW  Elec       q    Type
REMARK                         _______ _______ _______ _____ _____    ______ ____
ROOT
ATOM      1  C   UNL     1       0.660  -0.065   1.612  0.00  0.00    +0.094 C 
ATOM      2  C   UNL     1       0.577  -1.595   1.572  0.00  0.00    +0.130 C 
ATOM      3  N   UNL     1       1.484  -2.139   2.594  0.00  0.00    -0.283 N 
ATOM      4  C   UNL     1       2.877  -1.665   2.611  0.00  0.00    +0.124 C 
ATOM      5  C   UNL     1       2.869  -0.133   2.611  0.00  0.00    +0.104 C 
ATOM      6  N   UNL     1       2.064   0.349   1.481  0.00  0.00    -0.291 NA
ATOM      7  C   UNL     1       1.051  -3.048   3.490  0.00  0.00    +0.307 C 
ATOM      8  O   UNL     1      -0.076  -3.495   3.406  0.00  0.00    -0.252 OA
ATOM      9  N   UNL     1       1.868  -3.461   4.479  0.00  0.00    -0.269 N 
ATOM     10  H   UNL     1       2.734  -3.041   4.600  0.00  0.00    +0.156 HD
ENDROOT
BRANCH   9  11
ATOM     11  C   UNL     1       1.467  -4.493   5.330  0.00  0.00    +0.042 A 
ATOM     12  C   UNL     1       0.438  -5.334   4.966  0.00  0.00    +0.024 A 
ATOM     13  C   UNL     1       0.031  -6.366   5.807  0.00  0.00    +0.002 A 
ATOM     14  C   UNL     1       0.636  -6.573   7.009  0.00  0.00    +0.008 A 
ATOM     15  C   UNL     1       1.690  -5.738   7.417  0.00  0.00    -0.016 A 
ATOM     16  C   UNL     1       2.117  -4.689   6.567  0.00  0.00    +0.003 A 
ATOM     17  C   UNL     1       3.174  -3.859   6.974  0.00  0.00    +0.010 A 
ATOM     18  C   UNL     1       3.777  -4.076   8.175  0.00  0.00    +0.001 A 
ATOM     19  C   UNL     1       3.362  -5.113   9.008  0.00  0.00    +0.001 A 
ATOM     20  C   UNL     1       2.333  -5.929   8.652  0.00  0.00    +0.008 A 
ENDBRANCH   9  11
BRANCH   1  22
ATOM     21  C   UNL     1      -1.639   0.218   0.676  0.00  0.00    +0.029 C 
ATOM     22  C   UNL     1      -0.155   0.521   0.458  0.00  0.00    +0.089 C 
BRANCH  22  23
ATOM     23  N   UNL     1       0.285  -0.078  -0.805  0.00  0.00    -0.309 N 
ATOM     24  C   UNL     1       0.107   0.606  -1.994  0.00  0.00    +0.217 A 
ATOM     25  N   UNL     1      -0.459   1.804  -1.972  0.00  0.00    -0.223 NA
ATOM     26  C   UNL     1      -0.646   2.489  -3.090  0.00  0.00    +0.118 A 
ATOM     27  C   UNL     1      -0.243   1.940  -4.294  0.00  0.00    +0.066 A 
ATOM     28  C   UNL     1       0.349   0.678  -4.285  0.00  0.00    +0.144 A 
ATOM     29  N   UNL     1       0.511   0.049  -3.126  0.00  0.00    -0.197 NA
ATOM     30  H   UNL     1       0.702  -0.954  -0.807  0.00  0.00    +0.149 HD
BRANCH  28  31
ATOM     31  N   UNL     1       0.771   0.086  -5.474  0.00  0.00    -0.283 N 
ATOM     32  C   UNL     1       0.675   0.625  -6.724  0.00  0.00    +0.206 A 
ATOM     33  N   UNL     1       1.166  -0.199  -7.603  0.00  0.00    -0.235 NA
ATOM     34  C   UNL     1       1.611  -1.322  -6.982  0.00  0.00    +0.089 A 
ATOM     35  C   UNL     1       1.369  -1.154  -5.608  0.00  0.00    +0.075 A 
ATOM     36  C   UNL     1       1.730  -2.152  -4.714  0.00  0.00    +0.028 A 
ATOM     37  C   UNL     1       2.328  -3.305  -5.178  0.00  0.00    +0.002 A 
ATOM     38  C   UNL     1       2.572  -3.474  -6.533  0.00  0.00    +0.002 A 
ATOM     39  C   UNL     1       2.213  -2.498  -7.435  0.00  0.00    +0.030 A 
ENDBRANCH  28  31
ENDBRANCH  22  23
ENDBRANCH   1  22
BRANCH   6  40
ATOM     40  C   UNL     1       2.171   1.808   1.343  0.00  0.00    +0.120 C 
BRANCH  40  41
ATOM     41  C   UNL     1       3.603   2.181   1.060  0.00  0.00    -0.033 A 
ATOM     42  C   UNL     1       4.469   2.443   2.105  0.00  0.00    +0.005 A 
ATOM     43  C   UNL     1       5.782   2.786   1.845  0.00  0.00    +0.000 A 
ATOM     44  C   UNL     1       6.231   2.866   0.540  0.00  0.00    +0.000 A 
ATOM     45  C   UNL     1       5.366   2.603  -0.505  0.00  0.00    +0.000 A 
ATOM     46  C   UNL     1       4.053   2.256  -0.245  0.00  0.00    +0.005 A 
ENDBRANCH  40  41
ENDBRANCH   6  40
TORSDOF 6
