REMARK  Name = CHEMBL295601
REMARK  11 active torsions:
REMARK  status: ('A' for Active; 'I' for Inactive)
REMARK    1  A    between atoms: C_1  and  N_2
REMARK    2  A    between atoms: N_5  and  C_8
REMARK    3  A    between atoms: C_11  and  N_14
REMARK    4  A    between atoms: C_17  and  C_19
REMARK    5  A    between atoms: C_22  and  N_27
REMARK    6  A    between atoms: C_23  and  O_25
REMARK    7  A    between atoms: O_25  and  C_26
REMARK    8  A    between atoms: C_28  and  C_30
REMARK    9  A    between atoms: C_30  and  C_31
REMARK   10  A    between atoms: C_31  and  C_32
REMARK   11  A    between atoms: C_38  and  N_42
REMARK                            x       y       z     vdW  Elec       q    Type
REMARK                         _______ _______ _______ _____ _____    ______ ____
ROOT
ATOM      1  N   UNL     1      -2.142  -8.066   1.625  0.00  0.00    -0.243 N 
ATOM      2  C   UNL     1      -2.407  -8.981   2.600  0.00  0.00    +0.164 A 
ATOM      3  C   UNL     1      -2.101 -10.247   2.067  0.00  0.00    +0.086 A 
ATOM      4  C   UNL     1      -1.633 -10.018   0.700  0.00  0.00    +0.105 A 
ATOM      5  N   UNL     1      -1.679  -8.725   0.482  0.00  0.00    -0.168 NA
ATOM      6  C   UNL     1      -2.287 -11.379   2.877  0.00  0.00    +0.131 A 
ATOM      7  N   UNL     1      -2.745 -11.203   4.113  0.00  0.00    -0.220 NA
ATOM      8  C   UNL     1      -3.019  -9.995   4.573  0.00  0.00    +0.225 A 
ATOM      9  N   UNL     1      -2.860  -8.907   3.852  0.00  0.00    -0.216 NA
ENDROOT
BRANCH   1  13
ATOM     10  C   UNL     1      -2.168  -3.920   0.620  0.00  0.00    -0.068 C 
ATOM     11  C   UNL     1      -3.511  -4.620   0.840  0.00  0.00    -0.013 C 
ATOM     12  C   UNL     1      -3.325  -6.133   0.707  0.00  0.00    +0.025 C 
ATOM     13  C   UNL     1      -2.320  -6.617   1.753  0.00  0.00    +0.109 C 
ATOM     14  C   UNL     1      -0.977  -5.917   1.533  0.00  0.00    +0.025 C 
ATOM     15  C   UNL     1      -1.163  -4.404   1.666  0.00  0.00    -0.013 C 
BRANCH  10  20
ATOM     16  C   UNL     1      -2.384   1.648  -0.217  0.00  0.00    +0.104 C 
ATOM     17  N   UNL     1      -2.224   0.190  -0.293  0.00  0.00    -0.309 NA
ATOM     18  C   UNL     1      -3.513  -0.492  -0.112  0.00  0.00    +0.065 C 
ATOM     19  C   UNL     1      -3.312  -2.002  -0.257  0.00  0.00    -0.063 C 
ATOM     20  N   UNL     1      -2.347  -2.467   0.748  0.00  0.00    +0.383 N 
ATOM     21  C   UNL     1      -1.058  -1.796   0.538  0.00  0.00    -0.063 C 
ATOM     22  C   UNL     1      -1.239  -0.284   0.690  0.00  0.00    +0.065 C 
ATOM     23  H   UNL     1      -2.692  -2.251   1.671  0.00  0.00    -0.081 HD
ENDBRANCH  10  20
ENDBRANCH   1  13
BRANCH   4  24
ATOM     24  C   UNL     1      -1.194 -11.056  -0.263  0.00  0.00    +0.006 A 
ATOM     25  C   UNL     1      -1.924 -12.237  -0.397  0.00  0.00    +0.012 A 
ATOM     26  C   UNL     1      -1.516 -13.203  -1.293  0.00  0.00    +0.027 A 
ATOM     27  C   UNL     1      -0.377 -13.003  -2.062  0.00  0.00    +0.076 A 
ATOM     28  C   UNL     1       0.356 -11.825  -1.931  0.00  0.00    +0.142 A 
ATOM     29  C   UNL     1      -0.054 -10.851  -1.039  0.00  0.00    +0.057 A 
BRANCH  27  30
ATOM     30  N   UNL     1       0.035 -13.986  -2.970  0.00  0.00    -0.283 N 
ATOM     31  C   UNL     1      -0.840 -14.916  -3.400  0.00  0.00    +0.218 C 
ATOM     32  O   UNL     1      -2.008 -14.844  -3.080  0.00  0.00    -0.275 OA
ATOM     33  H   UNL     1       0.951 -13.998  -3.289  0.00  0.00    +0.155 HD
BRANCH  31  34
ATOM     34  C   UNL     1      -0.368 -16.046  -4.278  0.00  0.00    +0.101 C 
BRANCH  34  35
ATOM     35  C   UNL     1      -1.552 -16.953  -4.622  0.00  0.00    +0.044 C 
BRANCH  35  36
ATOM     36  C   UNL     1      -1.080 -18.083  -5.500  0.00  0.00    -0.047 A 
ATOM     37  C   UNL     1      -1.083 -17.938  -6.875  0.00  0.00    +0.003 A 
ATOM     38  C   UNL     1      -0.651 -18.974  -7.681  0.00  0.00    +0.000 A 
ATOM     39  C   UNL     1      -0.214 -20.156  -7.112  0.00  0.00    +0.000 A 
ATOM     40  C   UNL     1      -0.209 -20.301  -5.737  0.00  0.00    +0.000 A 
ATOM     41  C   UNL     1      -0.638 -19.263  -4.931  0.00  0.00    +0.003 A 
ENDBRANCH  35  36
ENDBRANCH  34  35
ENDBRANCH  31  34
ENDBRANCH  27  30
BRANCH  28  42
ATOM     42  O   UNL     1       1.472 -11.630  -2.684  0.00  0.00    -0.493 OA
ATOM     43  C   UNL     1       2.174 -10.400  -2.498  0.00  0.00    +0.277 C 
ENDBRANCH  28  42
ENDBRANCH   4  24
BRANCH   6  44
ATOM     44  N   UNL     1      -2.003 -12.644   2.401  0.00  0.00    -0.342 N 
ATOM     45  H   UNL     1      -1.491 -12.752   1.584  0.00  0.00    +0.144 HD
ATOM     46  H   UNL     1      -2.314 -13.426   2.884  0.00  0.00    +0.144 HD
ENDBRANCH   6  44
TORSDOF 9
