REMARK  Name = CHEMBL68871
REMARK  8 active torsions:
REMARK  status: ('A' for Active; 'I' for Inactive)
REMARK    1  A    between atoms: C_1  and  C_2
REMARK    2  A    between atoms: C_7  and  N_8
REMARK    3  A    between atoms: C_9  and  C_11
REMARK    4  A    between atoms: N_23  and  C_24
REMARK    5  A    between atoms: C_26  and  C_32
REMARK    6  A    between atoms: C_26  and  C_33
REMARK    7  A    between atoms: C_28  and  C_30
REMARK    8  A    between atoms: C_28  and  C_31
REMARK                            x       y       z     vdW  Elec       q    Type
REMARK                         _______ _______ _______ _____ _____    ______ ____
ROOT
ATOM      1  C   UNL     1      -0.285   1.194   4.565  0.00  0.00    +0.038 A 
ATOM      2  C   UNL     1       0.050   2.547   4.713  0.00  0.00    +0.015 A 
ATOM      3  C   UNL     1      -0.043   3.172   5.913  0.00  0.00    +0.029 A 
ATOM      4  C   UNL     1      -0.485   2.478   7.067  0.00  0.00    +0.080 A 
ATOM      5  C   UNL     1      -0.818   1.112   6.891  0.00  0.00    +0.041 A 
ATOM      6  C   UNL     1      -0.730   0.479   5.682  0.00  0.00    +0.030 A 
ATOM      7  S   UNL     1      -1.308   0.629   8.529  0.00  0.00    -0.052 S 
ATOM      8  C   UNL     1      -1.050   2.212   9.316  0.00  0.00    +0.167 A 
ATOM      9  N   UNL     1      -0.629   2.956   8.318  0.00  0.00    -0.225 NA
ATOM     10  N   UNL     1      -1.244   2.566  10.640  0.00  0.00    -0.248 N 
ATOM     11  C   UNL     1      -0.990   3.826  11.045  0.00  0.00    +0.306 C 
ATOM     12  O   UNL     1      -0.591   4.652  10.248  0.00  0.00    -0.252 OA
ATOM     13  N   UNL     1      -1.180   4.170  12.334  0.00  0.00    -0.296 N 
ATOM     14  H   UNL     1      -1.563   1.907  11.276  0.00  0.00    +0.158 HD
ATOM     15  H   UNL     1      -1.499   3.511  12.970  0.00  0.00    +0.151 HD
ENDROOT
BRANCH  13  16
ATOM     16  C   UNL     1      -0.903   5.543  12.776  0.00  0.00    +0.072 C 
ATOM     17  C   UNL     1       0.576   5.662  13.149  0.00  0.00    +0.009 C 
ATOM     18  C   UNL     1       0.877   7.084  13.623  0.00  0.00    -0.072 C 
ATOM     19  N   UNL     1      -0.006   7.501  14.702  0.00  0.00    +0.386 N 
ATOM     20  C   UNL     1      -1.430   7.248  14.545  0.00  0.00    -0.072 C 
ATOM     21  C   UNL     1      -1.738   5.851  14.018  0.00  0.00    +0.009 C 
ATOM     22  C   UNL     1      -2.079   7.364  15.945  0.00  0.00    -0.010 C 
ATOM     23  C   UNL     1      -2.097   8.300  13.656  0.00  0.00    -0.010 C 
ATOM     24  C   UNL     1       0.842   8.053  12.442  0.00  0.00    -0.010 C 
ATOM     25  C   UNL     1       2.321   7.086  14.175  0.00  0.00    -0.010 C 
ATOM     26  H   UNL     1       0.307   7.051  15.565  0.00  0.00    -0.084 HD
ATOM     27  H   UNL     1       0.128   8.503  14.857  0.00  0.00    -0.084 HD
ENDBRANCH  13  16
BRANCH   1  29
ATOM     28  N   UNL     1       0.254   1.234   2.180  0.00  0.00    -0.280 N 
ATOM     29  C   UNL     1      -0.176   0.536   3.250  0.00  0.00    +0.248 C 
ATOM     30  O   UNL     1      -0.473  -0.637   3.131  0.00  0.00    -0.270 OA
ATOM     31  H   UNL     1       0.568   2.146   2.290  0.00  0.00    +0.155 HD
BRANCH  28  38
ATOM     32  C   UNL     1      -1.024   2.630   0.056  0.00  0.00    +0.046 C 
ATOM     33  C   UNL     1      -0.365   1.291  -0.153  0.00  0.00    -0.028 A 
ATOM     34  C   UNL     1      -0.364   0.709  -1.406  0.00  0.00    +0.005 A 
ATOM     35  C   UNL     1       0.241  -0.519  -1.599  0.00  0.00    +0.002 A 
ATOM     36  C   UNL     1       0.849  -1.169  -0.540  0.00  0.00    +0.022 A 
ATOM     37  C   UNL     1       0.852  -0.592   0.715  0.00  0.00    +0.062 A 
ATOM     38  C   UNL     1       0.248   0.645   0.912  0.00  0.00    +0.055 A 
ATOM     39 CL   UNL     1       1.613  -1.409   2.045  0.00  0.00    -0.082 Cl
ENDBRANCH  28  38
ENDBRANCH   1  29
TORSDOF 3
