REMARK  Name = CHEMBL97162
REMARK  6 active torsions:
REMARK  status: ('A' for Active; 'I' for Inactive)
REMARK    1  A    between atoms: C_1  and  O_2
REMARK    2  A    between atoms: O_2  and  C_3
REMARK    3  A    between atoms: C_7  and  C_9
REMARK    4  A    between atoms: C_10  and  C_21
REMARK    5  A    between atoms: N_13  and  C_14
REMARK    6  A    between atoms: C_17  and  O_20
REMARK                            x       y       z     vdW  Elec       q    Type
REMARK                         _______ _______ _______ _____ _____    ______ ____
ROOT
ATOM      1  C   UNL     1      -2.525  -4.095  -0.145  0.00  0.00    +0.095 A 
ATOM      2  C   UNL     1      -1.544  -4.941  -0.633  0.00  0.00    +0.098 A 
ATOM      3  N   UNL     1      -1.843  -6.184  -0.216  0.00  0.00    -0.235 NA
ATOM      4  C   UNL     1      -2.939  -6.156   0.492  0.00  0.00    +0.200 A 
ATOM      5  N   UNL     1      -3.394  -4.888   0.570  0.00  0.00    -0.325 N 
ENDROOT
BRANCH   2   6
ATOM      6  C   UNL     1      -0.380  -4.550  -1.462  0.00  0.00    +0.003 A 
ATOM      7  C   UNL     1      -0.500  -3.522  -2.397  0.00  0.00    +0.013 A 
ATOM      8  C   UNL     1       0.587  -3.162  -3.166  0.00  0.00    +0.039 A 
ATOM      9  C   UNL     1       1.797  -3.819  -3.011  0.00  0.00    +0.123 A 
ATOM     10  C   UNL     1       1.921  -4.841  -2.083  0.00  0.00    +0.039 A 
ATOM     11  C   UNL     1       0.842  -5.205  -1.305  0.00  0.00    +0.013 A 
ATOM     12  F   UNL     1       2.858  -3.463  -3.767  0.00  0.00    -0.205 F 
ENDBRANCH   2   6
BRANCH   1  17
ATOM     13  C   UNL     1      -1.603  -0.570  -0.483  0.00  0.00    +0.318 A 
ATOM     14  N   UNL     1      -2.761   0.032  -0.709  0.00  0.00    -0.203 NA
ATOM     15  C   UNL     1      -3.890  -0.658  -0.765  0.00  0.00    +0.118 A 
ATOM     16  C   UNL     1      -3.856  -2.028  -0.584  0.00  0.00    +0.050 A 
ATOM     17  C   UNL     1      -2.617  -2.637  -0.346  0.00  0.00    +0.096 A 
ATOM     18  N   UNL     1      -1.520  -1.877  -0.308  0.00  0.00    -0.193 NA
BRANCH  13  20
ATOM     19  C   UNL     1      -0.614   1.583  -0.629  0.00  0.00    +0.280 C 
ATOM     20  O   UNL     1      -0.472   0.175  -0.434  0.00  0.00    -0.466 OA
ENDBRANCH  13  20
ENDBRANCH   1  17
BRANCH   5  21
ATOM     21  C   UNL     1      -4.594  -4.440   1.281  0.00  0.00    +0.089 C 
ATOM     22  C   UNL     1      -4.515  -4.881   2.744  0.00  0.00    +0.027 C 
ATOM     23  C   UNL     1      -5.768  -4.412   3.486  0.00  0.00    +0.033 C 
ATOM     24  C   UNL     1      -7.008  -5.028   2.834  0.00  0.00    +0.115 C 
ATOM     25  C   UNL     1      -7.087  -4.588   1.371  0.00  0.00    +0.033 C 
ATOM     26  C   UNL     1      -5.833  -5.056   0.629  0.00  0.00    +0.027 C 
BRANCH  24  27
ATOM     27  O   UNL     1      -8.178  -4.591   3.527  0.00  0.00    -0.392 OA
ATOM     28  H   UNL     1      -9.003  -4.943   3.167  0.00  0.00    +0.210 HD
ENDBRANCH  24  27
ENDBRANCH   5  21
TORSDOF 5
