REMARK  Name = CHEMBL250543
REMARK  4 active torsions:
REMARK  status: ('A' for Active; 'I' for Inactive)
REMARK    1  A    between atoms: C_3  and  C_25
REMARK    2  A    between atoms: C_5  and  N_7
REMARK    3  A    between atoms: C_12  and  N_14
REMARK    4  A    between atoms: N_14  and  C_15
REMARK                            x       y       z     vdW  Elec       q    Type
REMARK                         _______ _______ _______ _____ _____    ______ ____
ROOT
ATOM      1  N   UNL     1       1.210  -2.056   0.330  0.00  0.00    -0.284 N 
ATOM      2  C   UNL     1       0.025  -2.773   0.369  0.00  0.00    +0.221 A 
ATOM      3  N   UNL     1      -1.126  -2.117   0.410  0.00  0.00    -0.223 NA
ATOM      4  C   UNL     1      -2.280  -2.767   0.448  0.00  0.00    +0.118 A 
ATOM      5  C   UNL     1      -2.277  -4.149   0.444  0.00  0.00    +0.063 A 
ATOM      6  C   UNL     1      -1.049  -4.812   0.401  0.00  0.00    +0.128 A 
ATOM      7  N   UNL     1       0.070  -4.096   0.359  0.00  0.00    -0.199 NA
ATOM      8  H   UNL     1       2.054  -2.521   0.219  0.00  0.00    +0.155 HD
ENDROOT
BRANCH   1  13
ATOM      9  C   UNL     1       2.106   1.485  -0.117  0.00  0.00    +0.003 A 
ATOM     10  C   UNL     1       1.162   2.104   0.678  0.00  0.00    +0.013 A 
ATOM     11  C   UNL     1       0.221   1.339   1.368  0.00  0.00    +0.038 A 
ATOM     12  C   UNL     1       0.237  -0.051   1.251  0.00  0.00    +0.036 A 
ATOM     13  C   UNL     1       1.188  -0.663   0.450  0.00  0.00    +0.034 A 
ATOM     14  C   UNL     1       2.122   0.108  -0.233  0.00  0.00    +0.023 A 
BRANCH  11  15
ATOM     15  C   UNL     1      -0.791   2.000   2.221  0.00  0.00    +0.242 C 
ATOM     16  O   UNL     1      -1.610   1.332   2.821  0.00  0.00    -0.270 OA
ATOM     17  N   UNL     1      -0.804   3.343   2.333  0.00  0.00    -0.325 N 
ATOM     18  H   UNL     1      -0.151   3.876   1.854  0.00  0.00    +0.145 HD
ATOM     19  H   UNL     1      -1.468   3.776   2.892  0.00  0.00    +0.145 HD
ENDBRANCH  11  15
ENDBRANCH   1  13
BRANCH   6  20
ATOM     20  N   UNL     1      -0.999  -6.198   0.396  0.00  0.00    -0.299 N 
ATOM     21  H   UNL     1      -1.818  -6.713   0.328  0.00  0.00    +0.154 HD
BRANCH  20  22
ATOM     22  C   UNL     1       0.229  -6.850   0.489  0.00  0.00    +0.042 A 
ATOM     23  C   UNL     1       1.333  -6.190   0.988  0.00  0.00    +0.024 A 
ATOM     24  C   UNL     1       2.561  -6.835   1.083  0.00  0.00    +0.004 A 
ATOM     25  C   UNL     1       2.709  -8.131   0.690  0.00  0.00    +0.028 A 
ATOM     26  C   UNL     1       1.611  -8.841   0.176  0.00  0.00    +0.073 A 
ATOM     27  C   UNL     1       0.354  -8.194   0.079  0.00  0.00    +0.022 A 
ATOM     28  C   UNL     1      -0.743  -8.909  -0.430  0.00  0.00    +0.013 A 
ATOM     29  C   UNL     1      -0.549 -10.208  -0.808  0.00  0.00    +0.020 A 
ATOM     30  C   UNL     1       0.712 -10.786  -0.682  0.00  0.00    +0.111 A 
ATOM     31  N   UNL     1       1.736 -10.113  -0.217  0.00  0.00    -0.255 NA
ENDBRANCH  20  22
ENDBRANCH   6  20
TORSDOF 4
