REMARK  Name = CHEMBL583850
REMARK  5 active torsions:
REMARK  status: ('A' for Active; 'I' for Inactive)
REMARK    1  A    between atoms: C_1  and  C_2
REMARK    2  A    between atoms: C_2  and  C_3
REMARK    3  A    between atoms: C_2  and  N_22
REMARK    4  A    between atoms: N_11  and  C_12
REMARK    5  A    between atoms: C_27  and  N_29
REMARK                            x       y       z     vdW  Elec       q    Type
REMARK                         _______ _______ _______ _____ _____    ______ ____
ROOT
ATOM      1  C   UNL     1      -1.505   0.539  -0.862  0.00  0.00    +0.026 C 
ATOM      2  C   UNL     1      -1.868   0.493   0.625  0.00  0.00    +0.008 C 
ATOM      3  C   UNL     1      -2.950  -0.564   0.855  0.00  0.00    +0.019 C 
ATOM      4  C   UNL     1      -4.205  -0.185   0.062  0.00  0.00    +0.109 C 
ATOM      5  N   UNL     1      -3.836   0.004  -1.347  0.00  0.00    -0.285 N 
ATOM      6  C   UNL     1      -2.744   0.931  -1.673  0.00  0.00    +0.114 C 
ATOM      7  C   UNL     1      -4.486  -0.661  -2.322  0.00  0.00    +0.306 C 
ATOM      8  O   UNL     1      -4.223  -0.441  -3.489  0.00  0.00    -0.252 OA
ATOM      9  N   UNL     1      -5.428  -1.571  -2.005  0.00  0.00    -0.269 N 
ATOM     10  H   UNL     1      -5.711  -1.675  -1.083  0.00  0.00    +0.156 HD
ENDROOT
BRANCH   9  11
ATOM     11  C   UNL     1      -5.998  -2.367  -3.005  0.00  0.00    +0.035 A 
ATOM     12  C   UNL     1      -5.217  -2.777  -4.092  0.00  0.00    +0.024 A 
ATOM     13  C   UNL     1      -5.744  -3.550  -5.078  0.00  0.00    +0.010 A 
ATOM     14  C   UNL     1      -7.091  -3.948  -5.013  0.00  0.00    -0.018 A 
ATOM     15  C   UNL     1      -7.662  -4.747  -6.017  0.00  0.00    +0.008 A 
ATOM     16  C   UNL     1      -8.969  -5.115  -5.924  0.00  0.00    +0.001 A 
ATOM     17  C   UNL     1      -9.754  -4.711  -4.845  0.00  0.00    +0.001 A 
ATOM     18  C   UNL     1      -9.235  -3.937  -3.853  0.00  0.00    +0.008 A 
ATOM     19  C   UNL     1      -7.888  -3.537  -3.915  0.00  0.00    -0.016 A 
ATOM     20  C   UNL     1      -7.319  -2.743  -2.907  0.00  0.00    +0.031 A 
ENDBRANCH   9  11
BRANCH   1  22
ATOM     21  C   UNL     1      -0.890   2.950  -0.634  0.00  0.00    +0.028 C 
ATOM     22  C   UNL     1      -0.400   1.573  -1.085  0.00  0.00    +0.075 C 
BRANCH  22  23
ATOM     23  N   UNL     1      -0.056   1.620  -2.509  0.00  0.00    -0.311 N 
ATOM     24  C   UNL     1       1.199   2.049  -2.904  0.00  0.00    +0.217 A 
ATOM     25  N   UNL     1       2.079   2.409  -1.981  0.00  0.00    -0.223 NA
ATOM     26  C   UNL     1       3.289   2.825  -2.321  0.00  0.00    +0.118 A 
ATOM     27  C   UNL     1       3.634   2.882  -3.658  0.00  0.00    +0.066 A 
ATOM     28  C   UNL     1       2.686   2.497  -4.606  0.00  0.00    +0.144 A 
ATOM     29  N   UNL     1       1.492   2.085  -4.195  0.00  0.00    -0.197 NA
ATOM     30  H   UNL     1      -0.708   1.349  -3.174  0.00  0.00    +0.149 HD
BRANCH  28  31
ATOM     31  N   UNL     1       2.990   2.539  -5.966  0.00  0.00    -0.283 N 
ATOM     32  C   UNL     1       4.174   2.929  -6.519  0.00  0.00    +0.206 A 
ATOM     33  N   UNL     1       4.110   2.844  -7.816  0.00  0.00    -0.235 NA
ATOM     34  C   UNL     1       2.882   2.394  -8.186  0.00  0.00    +0.089 A 
ATOM     35  C   UNL     1       2.148   2.187  -7.006  0.00  0.00    +0.075 A 
ATOM     36  C   UNL     1       0.844   1.717  -7.075  0.00  0.00    +0.028 A 
ATOM     37  C   UNL     1       0.275   1.453  -8.303  0.00  0.00    +0.002 A 
ATOM     38  C   UNL     1       0.996   1.653  -9.470  0.00  0.00    +0.002 A 
ATOM     39  C   UNL     1       2.288   2.126  -9.421  0.00  0.00    +0.030 A 
ENDBRANCH  28  31
ENDBRANCH  22  23
ENDBRANCH   1  22
TORSDOF 4
