REMARK  Name = CHEMBL385172
REMARK  5 active torsions:
REMARK  status: ('A' for Active; 'I' for Inactive)
REMARK    1  A    between atoms: C_1  and  C_2
REMARK    2  A    between atoms: C_4  and  C_24
REMARK    3  A    between atoms: C_5  and  N_9
REMARK    4  A    between atoms: C_6  and  C_8
REMARK    5  A    between atoms: C_10  and  C_12
REMARK                            x       y       z     vdW  Elec       q    Type
REMARK                         _______ _______ _______ _____ _____    ______ ____
ROOT
ATOM      1  N   UNL     1      -0.314  -4.138  -0.220  0.00  0.00    -0.281 N 
ATOM      2  C   UNL     1      -0.274  -4.880   0.904  0.00  0.00    +0.256 C 
ATOM      3  O   UNL     1      -0.013  -4.354   1.971  0.00  0.00    -0.269 OA
ATOM      4  H   UNL     1      -0.441  -4.567  -1.081  0.00  0.00    +0.155 HD
ENDROOT
BRANCH   2   5
ATOM      5  C   UNL     1      -0.542  -6.315   0.843  0.00  0.00    +0.095 A 
ATOM      6  C   UNL     1      -0.560  -7.258   1.861  0.00  0.00    +0.133 A 
ATOM      7  N   UNL     1      -0.836  -8.489   1.509  0.00  0.00    -0.232 NA
ATOM      8  C   UNL     1      -1.082  -8.808   0.251  0.00  0.00    +0.164 A 
ATOM      9  S   UNL     1      -0.946  -7.341  -0.562  0.00  0.00    -0.047 S 
ATOM     10  N   UNL     1      -1.384 -10.050  -0.272  0.00  0.00    -0.277 N 
ATOM     11  C   UNL     1      -1.570 -11.136   0.578  0.00  0.00    +0.143 A 
ATOM     12  C   UNL     1      -1.764 -12.410   0.050  0.00  0.00    +0.154 A 
ATOM     13  N   UNL     1      -1.940 -13.438   0.860  0.00  0.00    -0.258 NA
ATOM     14  C   UNL     1      -1.931 -13.258   2.170  0.00  0.00    +0.130 A 
ATOM     15  C   UNL     1      -1.740 -11.995   2.697  0.00  0.00    +0.132 A 
ATOM     16  N   UNL     1      -1.558 -10.962   1.893  0.00  0.00    -0.237 NA
ATOM     17  H   UNL     1      -1.467 -10.165  -1.231  0.00  0.00    +0.156 HD
ENDBRANCH   2   5
BRANCH   1  22
ATOM     18  C   UNL     1       0.259   1.498   0.077  0.00  0.00    +0.044 C 
ATOM     19  C   UNL     1       0.107   0.001  -0.002  0.00  0.00    -0.050 A 
ATOM     20  C   UNL     1       1.090  -0.821   0.517  0.00  0.00    +0.008 A 
ATOM     21  C   UNL     1       0.954  -2.194   0.446  0.00  0.00    -0.029 A 
ATOM     22  C   UNL     1      -0.173  -2.748  -0.147  0.00  0.00    +0.040 A 
ATOM     23  C   UNL     1      -1.159  -1.920  -0.667  0.00  0.00    -0.029 A 
ATOM     24  C   UNL     1      -1.019  -0.548  -0.588  0.00  0.00    +0.008 A 
ATOM     25  C   UNL     1      -2.383  -2.518  -1.311  0.00  0.00    +0.045 C 
ATOM     26  C   UNL     1       2.027  -3.088   1.012  0.00  0.00    +0.045 C 
ENDBRANCH   1  22
TORSDOF 2
