REMARK  Name = CHEMBL463323
REMARK  6 active torsions:
REMARK  status: ('A' for Active; 'I' for Inactive)
REMARK    1  A    between atoms: C_1  and  N_2
REMARK    2  A    between atoms: C_7  and  C_9
REMARK    3  A    between atoms: C_14  and  O_15
REMARK    4  A    between atoms: O_15  and  C_16
REMARK    5  A    between atoms: C_19  and  N_26
REMARK    6  A    between atoms: C_31  and  C_36
REMARK                            x       y       z     vdW  Elec       q    Type
REMARK                         _______ _______ _______ _____ _____    ______ ____
ROOT
ATOM      1  C   UNL     1      -1.159  -5.101   0.667  0.00  0.00    +0.138 A 
ATOM      2  C   UNL     1      -1.091  -6.472   0.569  0.00  0.00    +0.049 A 
ATOM      3  C   UNL     1      -1.418  -7.283   1.652  0.00  0.00    +0.027 A 
ATOM      4  C   UNL     1      -1.820  -6.732   2.850  0.00  0.00    +0.041 A 
ATOM      5  C   UNL     1      -1.900  -5.330   2.981  0.00  0.00    +0.007 A 
ATOM      6  C   UNL     1      -1.560  -4.506   1.880  0.00  0.00    +0.026 A 
ATOM      7  C   UNL     1      -1.636  -3.110   2.015  0.00  0.00    +0.012 A 
ATOM      8  C   UNL     1      -2.027  -2.568   3.201  0.00  0.00    +0.001 A 
ATOM      9  C   UNL     1      -2.356  -3.378   4.286  0.00  0.00    +0.001 A 
ATOM     10  C   UNL     1      -2.305  -4.735   4.187  0.00  0.00    +0.010 A 
ENDROOT
BRANCH   4  11
ATOM     11  N   UNL     1      -2.146  -7.559   3.928  0.00  0.00    -0.285 N 
ATOM     12  C   UNL     1      -1.904  -8.915   3.856  0.00  0.00    +0.198 A 
ATOM     13  N   UNL     1      -1.264  -9.514   2.883  0.00  0.00    -0.214 NA
ATOM     14  C   UNL     1      -1.205 -10.849   3.130  0.00  0.00    +0.091 A 
ATOM     15  C   UNL     1      -0.652 -11.930   2.437  0.00  0.00    +0.042 A 
ATOM     16  C   UNL     1      -0.757 -13.201   2.957  0.00  0.00    +0.057 A 
ATOM     17  C   UNL     1      -1.408 -13.416   4.163  0.00  0.00    +0.014 A 
ATOM     18  C   UNL     1      -1.959 -12.360   4.858  0.00  0.00    +0.028 A 
ATOM     19  C   UNL     1      -1.862 -11.074   4.350  0.00  0.00    +0.067 A 
ATOM     20  N   UNL     1      -2.290  -9.832   4.792  0.00  0.00    -0.326 N 
ATOM     21  H   UNL     1      -2.543  -7.179   4.727  0.00  0.00    +0.155 HD
ATOM     22  H   UNL     1      -2.775  -9.649   5.611  0.00  0.00    +0.169 HD
BRANCH  16  23
ATOM     23  C   UNL     1      -0.162 -14.366   2.209  0.00  0.00    +0.417 C 
ATOM     24  F   UNL     1       1.161 -14.557   2.622  0.00  0.00    -0.166 F 
ATOM     25  F   UNL     1      -0.905 -15.520   2.476  0.00  0.00    -0.166 F 
ATOM     26  F   UNL     1      -0.188 -14.101   0.836  0.00  0.00    -0.166 F 
ENDBRANCH  16  23
ENDBRANCH   4  11
BRANCH   1  27
ATOM     27  O   UNL     1      -0.836  -4.324  -0.400  0.00  0.00    -0.437 OA
BRANCH  27  33
ATOM     28  C   UNL     1       0.820  -3.082  -1.582  0.00  0.00    +0.062 A 
ATOM     29  C   UNL     1       2.110  -2.545  -1.611  0.00  0.00    +0.017 A 
ATOM     30  C   UNL     1       2.933  -2.752  -0.517  0.00  0.00    +0.021 A 
ATOM     31  C   UNL     1       2.461  -3.477   0.562  0.00  0.00    +0.114 A 
ATOM     32  N   UNL     1       1.240  -3.974   0.566  0.00  0.00    -0.220 NA
ATOM     33  C   UNL     1       0.413  -3.800  -0.450  0.00  0.00    +0.230 A 
BRANCH  28  40
ATOM     34  C   UNL     1      -4.357  -3.594  -4.771  0.00  0.00    +0.128 C 
ATOM     35  N   UNL     1      -3.430  -3.767  -3.650  0.00  0.00    -0.317 N 
ATOM     36  C   UNL     1      -2.158  -3.226  -3.714  0.00  0.00    +0.215 A 
ATOM     37  N   UNL     1      -1.797  -2.551  -4.796  0.00  0.00    -0.223 NA
ATOM     38  C   UNL     1      -0.589  -2.018  -4.896  0.00  0.00    +0.116 A 
ATOM     39  C   UNL     1       0.306  -2.172  -3.853  0.00  0.00    +0.048 A 
ATOM     40  C   UNL     1      -0.102  -2.889  -2.725  0.00  0.00    +0.081 A 
ATOM     41  N   UNL     1      -1.335  -3.392  -2.692  0.00  0.00    -0.214 NA
ATOM     42  H   UNL     1      -3.709  -4.260  -2.862  0.00  0.00    +0.149 HD
ENDBRANCH  28  40
ENDBRANCH  27  33
ENDBRANCH   1  27
TORSDOF 5
