REMARK  Name = CHEMBL568543
REMARK  7 active torsions:
REMARK  status: ('A' for Active; 'I' for Inactive)
REMARK    1  A    between atoms: C_1  and  C_2
REMARK    2  A    between atoms: C_2  and  C_3
REMARK    3  A    between atoms: C_2  and  N_17
REMARK    4  A    between atoms: N_5  and  C_10
REMARK    5  A    between atoms: N_8  and  C_9
REMARK    6  A    between atoms: C_10  and  C_11
REMARK    7  A    between atoms: C_22  and  N_24
REMARK                            x       y       z     vdW  Elec       q    Type
REMARK                         _______ _______ _______ _____ _____    ______ ____
ROOT
ATOM      1  C   UNL     1      -1.232  -1.560   0.370  0.00  0.00    +0.026 C 
ATOM      2  C   UNL     1       0.014  -0.682   0.236  0.00  0.00    +0.058 C 
ENDROOT
BRANCH   2   3
ATOM      3  C   UNL     1       0.835  -0.763   1.524  0.00  0.00    -0.034 C 
ATOM      4  C   UNL     1      -0.047  -0.385   2.716  0.00  0.00    +0.071 C 
ATOM      5  N   UNL     1      -0.531   0.993   2.546  0.00  0.00    -0.301 NA
ATOM      6  C   UNL     1       0.594   1.931   2.436  0.00  0.00    +0.066 C 
ATOM      7  C   UNL     1       1.471   1.534   1.246  0.00  0.00    -0.063 C 
ATOM      8  N   UNL     1       1.970   0.166   1.440  0.00  0.00    +0.383 N 
ATOM      9  C   UNL     1       2.826  -0.208   0.307  0.00  0.00    -0.096 C 
ATOM     10  H   UNL     1       2.505   0.121   2.295  0.00  0.00    -0.082 HD
BRANCH   5  11
ATOM     11  C   UNL     1      -1.429   1.374   3.644  0.00  0.00    +0.119 C 
BRANCH  11  12
ATOM     12  C   UNL     1      -2.094   2.686   3.316  0.00  0.00    -0.033 A 
ATOM     13  C   UNL     1      -1.499   3.876   3.691  0.00  0.00    +0.005 A 
ATOM     14  C   UNL     1      -2.109   5.079   3.390  0.00  0.00    +0.000 A 
ATOM     15  C   UNL     1      -3.315   5.093   2.714  0.00  0.00    +0.000 A 
ATOM     16  C   UNL     1      -3.910   3.903   2.338  0.00  0.00    +0.000 A 
ATOM     17  C   UNL     1      -3.297   2.700   2.635  0.00  0.00    +0.005 A 
ENDBRANCH  11  12
ENDBRANCH   5  11
ENDBRANCH   2   3
BRANCH   2  18
ATOM     18  N   UNL     1       0.824  -1.154  -0.890  0.00  0.00    -0.312 N 
ATOM     19  C   UNL     1       0.580  -0.676  -2.166  0.00  0.00    +0.217 A 
ATOM     20  N   UNL     1      -0.387   0.211  -2.350  0.00  0.00    -0.223 NA
ATOM     21  C   UNL     1      -0.649   0.691  -3.556  0.00  0.00    +0.118 A 
ATOM     22  C   UNL     1       0.099   0.256  -4.634  0.00  0.00    +0.066 A 
ATOM     23  C   UNL     1       1.110  -0.678  -4.409  0.00  0.00    +0.144 A 
ATOM     24  N   UNL     1       1.322  -1.113  -3.172  0.00  0.00    -0.197 NA
ATOM     25  H   UNL     1       1.532  -1.800  -0.741  0.00  0.00    +0.149 HD
BRANCH  23  26
ATOM     26  N   UNL     1       1.889  -1.144  -5.465  0.00  0.00    -0.283 N 
ATOM     27  C   UNL     1       1.784  -0.773  -6.774  0.00  0.00    +0.206 A 
ATOM     28  N   UNL     1       2.668  -1.404  -7.489  0.00  0.00    -0.235 NA
ATOM     29  C   UNL     1       3.403  -2.223  -6.692  0.00  0.00    +0.089 A 
ATOM     30  C   UNL     1       2.919  -2.065  -5.383  0.00  0.00    +0.075 A 
ATOM     31  C   UNL     1       3.490  -2.782  -4.342  0.00  0.00    +0.028 A 
ATOM     32  C   UNL     1       4.534  -3.646  -4.596  0.00  0.00    +0.002 A 
ATOM     33  C   UNL     1       5.018  -3.804  -5.886  0.00  0.00    +0.002 A 
ATOM     34  C   UNL     1       4.458  -3.106  -6.933  0.00  0.00    +0.030 A 
ENDBRANCH  23  26
ENDBRANCH   2  18
TORSDOF 5
