REMARK  Name = CHEMBL339037
REMARK  6 active torsions:
REMARK  status: ('A' for Active; 'I' for Inactive)
REMARK    1  A    between atoms: C_1  and  C_2
REMARK    2  A    between atoms: C_4  and  C_23
REMARK    3  A    between atoms: C_5  and  N_9
REMARK    4  A    between atoms: C_6  and  C_8
REMARK    5  A    between atoms: C_10  and  C_12
REMARK    6  A    between atoms: C_18  and  C_20
REMARK                            x       y       z     vdW  Elec       q    Type
REMARK                         _______ _______ _______ _____ _____    ______ ____
ROOT
ATOM      1  N   UNL     1      -0.296  -4.140  -0.271  0.00  0.00    -0.281 N 
ATOM      2  C   UNL     1      -0.265  -4.907   0.837  0.00  0.00    +0.256 C 
ATOM      3  O   UNL     1      -0.031  -4.403   1.920  0.00  0.00    -0.269 OA
ATOM      4  H   UNL     1      -0.417  -4.550  -1.142  0.00  0.00    +0.155 HD
ENDROOT
BRANCH   1   9
ATOM      5  C   UNL     1       0.282   1.486   0.158  0.00  0.00    +0.044 C 
ATOM      6  C   UNL     1       0.129  -0.009   0.043  0.00  0.00    -0.050 A 
ATOM      7  C   UNL     1       1.120  -0.843   0.527  0.00  0.00    +0.008 A 
ATOM      8  C   UNL     1       0.982  -2.213   0.424  0.00  0.00    -0.029 A 
ATOM      9  C   UNL     1      -0.153  -2.753  -0.165  0.00  0.00    +0.040 A 
ATOM     10  C   UNL     1      -1.147  -1.913  -0.650  0.00  0.00    -0.029 A 
ATOM     11  C   UNL     1      -1.006  -0.543  -0.539  0.00  0.00    +0.008 A 
ATOM     12  C   UNL     1      -2.381  -2.494  -1.291  0.00  0.00    +0.045 C 
ATOM     13  C   UNL     1       2.063  -3.122   0.951  0.00  0.00    +0.045 C 
ENDBRANCH   1   9
BRANCH   2  14
ATOM     14  C   UNL     1      -0.512  -6.346   0.737  0.00  0.00    +0.095 A 
ATOM     15  C   UNL     1      -0.535  -7.313   1.733  0.00  0.00    +0.133 A 
ATOM     16  N   UNL     1      -0.788  -8.538   1.348  0.00  0.00    -0.232 NA
ATOM     17  C   UNL     1      -1.008  -8.832   0.080  0.00  0.00    +0.165 A 
ATOM     18  S   UNL     1      -0.877  -7.345  -0.698  0.00  0.00    -0.047 S 
ATOM     19  N   UNL     1      -1.285 -10.068  -0.478  0.00  0.00    -0.264 N 
ATOM     20  C   UNL     1      -1.357 -11.160   0.308  0.00  0.00    +0.222 C 
ATOM     21  O   UNL     1      -1.179 -11.060   1.503  0.00  0.00    -0.275 OA
ATOM     22  H   UNL     1      -1.427 -10.148  -1.434  0.00  0.00    +0.157 HD
BRANCH  20  23
ATOM     23  C   UNL     1      -1.659 -12.506  -0.299  0.00  0.00    +0.075 C 
ATOM     24  C   UNL     1      -3.011 -13.143   0.032  0.00  0.00    +0.013 C 
ATOM     25  C   UNL     1      -1.728 -13.708   0.646  0.00  0.00    +0.013 C 
ENDBRANCH  20  23
ENDBRANCH   2  14
TORSDOF 3
