REMARK  Name = CHEMBL233958
REMARK  11 active torsions:
REMARK  status: ('A' for Active; 'I' for Inactive)
REMARK    1  A    between atoms: C_1  and  N_2
REMARK    2  A    between atoms: C_10  and  C_11
REMARK    3  A    between atoms: N_13  and  C_14
REMARK    4  A    between atoms: C_17  and  C_22
REMARK    5  A    between atoms: C_19  and  O_20
REMARK    6  A    between atoms: O_20  and  C_21
REMARK    7  A    between atoms: C_27  and  N_41
REMARK    8  A    between atoms: C_30  and  C_31
REMARK    9  A    between atoms: C_32  and  C_33
REMARK   10  A    between atoms: C_33  and  N_34
REMARK   11  A    between atoms: C_37  and  O_40
REMARK                            x       y       z     vdW  Elec       q    Type
REMARK                         _______ _______ _______ _____ _____    ______ ____
ROOT
ATOM      1  C   UNL     1      -0.902   3.715   7.869  0.00  0.00    +0.000 A 
ATOM      2  C   UNL     1      -0.590   4.996   8.176  0.00  0.00    +0.055 A 
ATOM      3  S   UNL     1      -0.562   5.002   9.958  0.00  0.00    -0.095 S 
ATOM      4  C   UNL     1      -0.966   3.302  10.248  0.00  0.00    +0.032 A 
ATOM      5  C   UNL     1      -1.120   2.764   8.956  0.00  0.00    +0.035 A 
ATOM      6  C   UNL     1      -1.458   1.387   8.893  0.00  0.00    +0.103 A 
ATOM      7  N   UNL     1      -1.619   0.672   9.987  0.00  0.00    -0.349 N 
ATOM      8  C   UNL     1      -1.481   1.166  11.205  0.00  0.00    +0.093 A 
ATOM      9  C   UNL     1      -1.140   2.506  11.381  0.00  0.00    +0.005 A 
ATOM     10  H   UNL     1      -1.850  -0.265   9.894  0.00  0.00    +0.167 HD
ENDROOT
BRANCH   1  14
ATOM     11  C   UNL     1      -1.266   2.485   3.811  0.00  0.00    +0.076 A 
ATOM     12  C   UNL     1      -2.331   2.318   4.685  0.00  0.00    +0.027 A 
ATOM     13  C   UNL     1      -2.215   2.716   6.001  0.00  0.00    +0.010 A 
ATOM     14  C   UNL     1      -1.027   3.287   6.455  0.00  0.00    -0.013 A 
ATOM     15  C   UNL     1       0.044   3.455   5.578  0.00  0.00    +0.056 A 
ATOM     16  C   UNL     1      -0.074   3.050   4.261  0.00  0.00    +0.142 A 
BRANCH  11  19
ATOM     17  C   UNL     1      -2.280   1.128   2.139  0.00  0.00    +0.265 C 
ATOM     18  O   UNL     1      -2.984   0.624   2.994  0.00  0.00    -0.268 OA
ATOM     19  N   UNL     1      -1.387   2.079   2.476  0.00  0.00    -0.277 N 
ATOM     20  H   UNL     1      -0.828   2.483   1.794  0.00  0.00    +0.155 HD
BRANCH  17  30
ATOM     21  C   UNL     1      -4.370  -0.866   1.050  0.00  0.00    +0.149 C 
ATOM     22  N   UNL     1      -3.341  -0.194   0.254  0.00  0.00    -0.339 N 
ATOM     23  C   UNL     1      -3.152  -0.342  -1.100  0.00  0.00    +0.049 A 
ATOM     24  C   UNL     1      -3.799  -1.097  -2.075  0.00  0.00    +0.026 A 
ATOM     25  C   UNL     1      -3.372  -1.037  -3.382  0.00  0.00    +0.002 A 
ATOM     26  C   UNL     1      -2.299  -0.230  -3.741  0.00  0.00    +0.001 A 
ATOM     27  C   UNL     1      -1.649   0.519  -2.803  0.00  0.00    +0.010 A 
ATOM     28  C   UNL     1      -2.065   0.475  -1.466  0.00  0.00    +0.001 A 
ATOM     29  C   UNL     1      -1.614   1.115  -0.286  0.00  0.00    +0.041 A 
ATOM     30  C   UNL     1      -2.404   0.699   0.738  0.00  0.00    +0.105 A 
ENDBRANCH  17  30
ENDBRANCH  11  19
BRANCH  16  31
ATOM     31  O   UNL     1       0.971   3.206   3.405  0.00  0.00    -0.493 OA
ATOM     32  C   UNL     1       2.162   3.792   3.935  0.00  0.00    +0.277 C 
ENDBRANCH  16  31
ENDBRANCH   1  14
BRANCH   6  33
ATOM     33  N   UNL     1      -1.624   0.783   7.655  0.00  0.00    -0.344 N 
ATOM     34  H   UNL     1      -1.100   1.082   6.896  0.00  0.00    +0.144 HD
ATOM     35  H   UNL     1      -2.263   0.061   7.549  0.00  0.00    +0.144 HD
ENDBRANCH   6  33
BRANCH   9  36
ATOM     36  C   UNL     1      -0.983   3.074  12.735  0.00  0.00    +0.004 C 
ATOM     37  C   UNL     1      -1.152   2.303  13.802  0.00  0.00    -0.045 C 
BRANCH  37  38
ATOM     38  C   UNL     1      -0.992   2.883  15.183  0.00  0.00    -0.051 C 
BRANCH  38  39
ATOM     39  N   UNL     1      -2.209   2.627  15.966  0.00  0.00    +0.382 N 
ATOM     40  C   UNL     1      -3.337   3.346  15.362  0.00  0.00    -0.076 C 
ATOM     41  C   UNL     1      -4.623   3.018  16.125  0.00  0.00    +0.013 C 
ATOM     42  C   UNL     1      -4.465   3.447  17.587  0.00  0.00    +0.111 C 
ATOM     43  C   UNL     1      -3.241   2.748  18.185  0.00  0.00    +0.013 C 
ATOM     44  C   UNL     1      -2.007   3.086  17.345  0.00  0.00    -0.076 C 
ATOM     45  H   UNL     1      -2.405   1.637  15.966  0.00  0.00    -0.081 HD
BRANCH  42  46
ATOM     46  O   UNL     1      -5.633   3.077  18.322  0.00  0.00    -0.392 OA
ATOM     47  H   UNL     1      -5.603   3.318  19.258  0.00  0.00    +0.210 HD
ENDBRANCH  42  46
ENDBRANCH  38  39
ENDBRANCH  37  38
ENDBRANCH   9  36
TORSDOF 9
