REMARK  Name = CHEMBL212632
REMARK  6 active torsions:
REMARK  status: ('A' for Active; 'I' for Inactive)
REMARK    1  A    between atoms: C_1  and  N_2
REMARK    2  A    between atoms: N_5  and  C_8
REMARK    3  A    between atoms: C_11  and  N_14
REMARK    4  A    between atoms: C_17  and  N_21
REMARK    5  A    between atoms: N_21  and  C_22
REMARK    6  A    between atoms: N_25  and  C_26
REMARK                            x       y       z     vdW  Elec       q    Type
REMARK                         _______ _______ _______ _____ _____    ______ ____
ROOT
ATOM      1  N   UNL     1      -1.802  -8.530   2.693  0.00  0.00    -0.299 N 
ATOM      2  C   UNL     1      -1.023  -9.006   3.737  0.00  0.00    +0.128 A 
ATOM      3  C   UNL     1      -1.616  -9.605   4.846  0.00  0.00    +0.088 A 
ATOM      4  C   UNL     1      -0.791 -10.066   5.865  0.00  0.00    +0.133 A 
ATOM      5  N   UNL     1       0.527  -9.919   5.747  0.00  0.00    -0.220 NA
ATOM      6  C   UNL     1       1.050  -9.347   4.682  0.00  0.00    +0.225 A 
ATOM      7  N   UNL     1       0.303  -8.902   3.692  0.00  0.00    -0.221 NA
ATOM      8  H   UNL     1      -2.769  -8.535   2.769  0.00  0.00    +0.154 HD
ENDROOT
BRANCH   1  12
ATOM      9  C   UNL     1       0.011  -7.077  -0.769  0.00  0.00    +0.030 A 
ATOM     10  C   UNL     1       0.588  -8.132  -0.073  0.00  0.00    +0.025 A 
ATOM     11  C   UNL     1      -0.013  -8.613   1.073  0.00  0.00    +0.025 A 
ATOM     12  C   UNL     1      -1.193  -8.042   1.530  0.00  0.00    +0.032 A 
ATOM     13  C   UNL     1      -1.770  -6.988   0.835  0.00  0.00    +0.025 A 
ATOM     14  C   UNL     1      -1.167  -6.503  -0.309  0.00  0.00    +0.025 A 
BRANCH   9  19
ATOM     15  C   UNL     1       1.350  -6.689  -6.063  0.00  0.00    +0.105 C 
ATOM     16  N   UNL     1       1.303  -6.390  -4.625  0.00  0.00    -0.302 NA
ATOM     17  C   UNL     1       1.828  -7.513  -3.837  0.00  0.00    +0.103 C 
ATOM     18  C   UNL     1       1.931  -7.096  -2.366  0.00  0.00    +0.120 C 
ATOM     19  N   UNL     1       0.620  -6.590  -1.931  0.00  0.00    -0.327 N 
ATOM     20  C   UNL     1      -0.034  -5.558  -2.750  0.00  0.00    +0.120 C 
ATOM     21  C   UNL     1      -0.059  -6.035  -4.206  0.00  0.00    +0.103 C 
ENDBRANCH   9  19
ENDBRANCH   1  12
BRANCH   4  22
ATOM     22  N   UNL     1      -1.335 -10.671   6.993  0.00  0.00    -0.243 N 
ATOM     23  C   UNL     1      -2.776 -10.927   7.065  0.00  0.00    +0.141 C 
ATOM     24  C   UNL     1      -0.536 -11.023   8.020  0.00  0.00    +0.312 C 
ATOM     25  O   UNL     1       0.660 -10.812   7.960  0.00  0.00    -0.252 OA
ATOM     26  N   UNL     1      -1.063 -11.610   9.113  0.00  0.00    -0.266 N 
ATOM     27  H   UNL     1      -2.024 -11.705   9.197  0.00  0.00    +0.156 HD
BRANCH  26  28
ATOM     28  C   UNL     1      -0.221 -12.082  10.128  0.00  0.00    +0.072 A 
ATOM     29  C   UNL     1       0.732 -11.242  10.690  0.00  0.00    +0.064 A 
ATOM     30  C   UNL     1       1.561 -11.712  11.692  0.00  0.00    +0.022 A 
ATOM     31  C   UNL     1       1.442 -13.017  12.135  0.00  0.00    +0.003 A 
ATOM     32  C   UNL     1       0.494 -13.856  11.578  0.00  0.00    +0.022 A 
ATOM     33  C   UNL     1      -0.342 -13.391  10.580  0.00  0.00    +0.064 A 
ATOM     34 CL   UNL     1      -1.536 -14.443   9.887  0.00  0.00    -0.082 Cl
ATOM     35 CL   UNL     1       0.883  -9.605  10.134  0.00  0.00    -0.082 Cl
ENDBRANCH  26  28
ENDBRANCH   4  22
TORSDOF 4
