REMARK  Name = CHEMBL231720
REMARK  7 active torsions:
REMARK  status: ('A' for Active; 'I' for Inactive)
REMARK    1  A    between atoms: C_1  and  N_2
REMARK    2  A    between atoms: C_10  and  C_11
REMARK    3  A    between atoms: N_13  and  C_14
REMARK    4  A    between atoms: C_17  and  C_22
REMARK    5  A    between atoms: C_19  and  O_20
REMARK    6  A    between atoms: O_20  and  C_21
REMARK    7  A    between atoms: N_29  and  C_31
REMARK                            x       y       z     vdW  Elec       q    Type
REMARK                         _______ _______ _______ _____ _____    ______ ____
ROOT
ATOM      1  C   UNL     1      -0.862   0.782   4.338  0.00  0.00    +0.076 A 
ATOM      2  C   UNL     1      -0.530  -0.030   5.414  0.00  0.00    +0.027 A 
ATOM      3  C   UNL     1      -0.475   0.497   6.688  0.00  0.00    +0.012 A 
ATOM      4  C   UNL     1      -0.753   1.847   6.897  0.00  0.00    +0.006 A 
ATOM      5  C   UNL     1      -1.086   2.664   5.817  0.00  0.00    +0.057 A 
ATOM      6  C   UNL     1      -1.135   2.134   4.541  0.00  0.00    +0.142 A 
ENDROOT
BRANCH   4   7
ATOM      7  C   UNL     1      -0.695   2.413   8.266  0.00  0.00    +0.105 A 
ATOM      8  C   UNL     1       0.365   2.195   9.249  0.00  0.00    +0.086 A 
ATOM      9  C   UNL     1       1.567   1.467   9.270  0.00  0.00    +0.131 A 
ATOM     10  N   UNL     1       2.305   1.500  10.374  0.00  0.00    -0.220 NA
ATOM     11  C   UNL     1       1.925   2.198  11.429  0.00  0.00    +0.225 A 
ATOM     12  N   UNL     1       0.809   2.894  11.456  0.00  0.00    -0.216 NA
ATOM     13  C   UNL     1       0.001   2.924  10.396  0.00  0.00    +0.164 A 
ATOM     14  N   UNL     1      -1.188   3.531  10.119  0.00  0.00    -0.249 N 
ATOM     15  N   UNL     1      -1.583   3.206   8.817  0.00  0.00    -0.169 NA
ATOM     16  C   UNL     1      -1.933   4.392  11.040  0.00  0.00    +0.174 C 
ATOM     17  N   UNL     1       1.970   0.735   8.169  0.00  0.00    -0.342 N 
ATOM     18  H   UNL     1       1.563   0.896   7.304  0.00  0.00    +0.144 HD
ATOM     19  H   UNL     1       2.660   0.059   8.263  0.00  0.00    +0.144 HD
ENDBRANCH   4   7
BRANCH   1  22
ATOM     20  C   UNL     1      -0.134  -0.803   2.720  0.00  0.00    +0.265 C 
ATOM     21  O   UNL     1       0.589  -1.308   3.558  0.00  0.00    -0.268 OA
ATOM     22  N   UNL     1      -0.916   0.244   3.047  0.00  0.00    -0.277 N 
ATOM     23  H   UNL     1      -1.516   0.626   2.388  0.00  0.00    +0.155 HD
BRANCH  20  33
ATOM     24  C   UNL     1       1.383  -3.309   1.746  0.00  0.00    +0.149 C 
ATOM     25  N   UNL     1       0.525  -2.459   0.917  0.00  0.00    -0.339 N 
ATOM     26  C   UNL     1       0.260  -2.649  -0.418  0.00  0.00    +0.049 A 
ATOM     27  C   UNL     1       0.667  -3.607  -1.343  0.00  0.00    +0.026 A 
ATOM     28  C   UNL     1       0.223  -3.535  -2.644  0.00  0.00    +0.002 A 
ATOM     29  C   UNL     1      -0.629  -2.513  -3.046  0.00  0.00    +0.001 A 
ATOM     30  C   UNL     1      -1.041  -1.562  -2.158  0.00  0.00    +0.010 A 
ATOM     31  C   UNL     1      -0.604  -1.615  -0.828  0.00  0.00    +0.001 A 
ATOM     32  C   UNL     1      -0.843  -0.803   0.307  0.00  0.00    +0.041 A 
ATOM     33  C   UNL     1      -0.154  -1.337   1.350  0.00  0.00    +0.105 A 
ENDBRANCH  20  33
ENDBRANCH   1  22
BRANCH   6  34
ATOM     34  O   UNL     1      -1.453   2.930   3.486  0.00  0.00    -0.493 OA
ATOM     35  C   UNL     1      -1.721   4.305   3.767  0.00  0.00    +0.277 C 
ENDBRANCH   6  34
TORSDOF 4
