REMARK  Name = CHEMBL232588
REMARK  11 active torsions:
REMARK  status: ('A' for Active; 'I' for Inactive)
REMARK    1  A    between atoms: C_1  and  N_2
REMARK    2  A    between atoms: C_10  and  C_11
REMARK    3  A    between atoms: N_13  and  C_14
REMARK    4  A    between atoms: C_17  and  C_22
REMARK    5  A    between atoms: C_19  and  O_20
REMARK    6  A    between atoms: O_20  and  C_21
REMARK    7  A    between atoms: C_27  and  N_41
REMARK    8  A    between atoms: C_30  and  C_31
REMARK    9  A    between atoms: N_33  and  C_34
REMARK   10  A    between atoms: C_34  and  C_35
REMARK   11  A    between atoms: C_35  and  N_36
REMARK                            x       y       z     vdW  Elec       q    Type
REMARK                         _______ _______ _______ _____ _____    ______ ____
ROOT
ATOM      1  C   UNL     1      -0.914   3.715   7.868  0.00  0.00    +0.000 A 
ATOM      2  C   UNL     1      -0.605   4.997   8.175  0.00  0.00    +0.055 A 
ATOM      3  S   UNL     1      -0.577   5.002   9.958  0.00  0.00    -0.095 S 
ATOM      4  C   UNL     1      -0.978   3.301  10.247  0.00  0.00    +0.037 A 
ATOM      5  C   UNL     1      -1.131   2.763   8.955  0.00  0.00    +0.037 A 
ATOM      6  C   UNL     1      -1.467   1.385   8.891  0.00  0.00    +0.125 A 
ATOM      7  N   UNL     1      -1.627   0.668   9.987  0.00  0.00    -0.239 NA
ATOM      8  C   UNL     1      -1.492   1.159  11.203  0.00  0.00    +0.127 A 
ATOM      9  C   UNL     1      -1.151   2.502  11.382  0.00  0.00    +0.069 A 
ENDROOT
BRANCH   1  13
ATOM     10  C   UNL     1      -1.273   2.486   3.809  0.00  0.00    +0.076 A 
ATOM     11  C   UNL     1      -2.338   2.317   4.683  0.00  0.00    +0.027 A 
ATOM     12  C   UNL     1      -2.224   2.714   5.999  0.00  0.00    +0.010 A 
ATOM     13  C   UNL     1      -1.037   3.287   6.455  0.00  0.00    -0.013 A 
ATOM     14  C   UNL     1       0.034   3.458   5.578  0.00  0.00    +0.056 A 
ATOM     15  C   UNL     1      -0.082   3.053   4.261  0.00  0.00    +0.142 A 
BRANCH  10  18
ATOM     16  C   UNL     1      -2.283   1.127   2.136  0.00  0.00    +0.265 C 
ATOM     17  O   UNL     1      -2.985   0.620   2.991  0.00  0.00    -0.268 OA
ATOM     18  N   UNL     1      -1.393   2.081   2.474  0.00  0.00    -0.277 N 
ATOM     19  H   UNL     1      -0.835   2.487   1.792  0.00  0.00    +0.155 HD
BRANCH  16  29
ATOM     20  C   UNL     1      -4.367  -0.871   1.046  0.00  0.00    +0.149 C 
ATOM     21  N   UNL     1      -3.339  -0.196   0.250  0.00  0.00    -0.339 N 
ATOM     22  C   UNL     1      -3.149  -0.344  -1.104  0.00  0.00    +0.049 A 
ATOM     23  C   UNL     1      -3.792  -1.101  -2.079  0.00  0.00    +0.026 A 
ATOM     24  C   UNL     1      -3.364  -1.039  -3.386  0.00  0.00    +0.002 A 
ATOM     25  C   UNL     1      -2.294  -0.229  -3.744  0.00  0.00    +0.001 A 
ATOM     26  C   UNL     1      -1.647   0.522  -2.806  0.00  0.00    +0.010 A 
ATOM     27  C   UNL     1      -2.064   0.477  -1.469  0.00  0.00    +0.001 A 
ATOM     28  C   UNL     1      -1.615   1.118  -0.288  0.00  0.00    +0.041 A 
ATOM     29  C   UNL     1      -2.405   0.699   0.735  0.00  0.00    +0.105 A 
ENDBRANCH  16  29
ENDBRANCH  10  18
BRANCH  15  30
ATOM     30  O   UNL     1       0.962   3.213   3.405  0.00  0.00    -0.493 OA
ATOM     31  C   UNL     1       2.152   3.801   3.936  0.00  0.00    +0.277 C 
ENDBRANCH  15  30
ENDBRANCH   1  13
BRANCH   9  32
ATOM     32  C   UNL     1      -0.997   3.067  12.732  0.00  0.00    +0.247 C 
ATOM     33  O   UNL     1      -0.715   4.242  12.871  0.00  0.00    -0.270 OA
ATOM     34  N   UNL     1      -1.168   2.283  13.814  0.00  0.00    -0.313 N 
ATOM     35  H   UNL     1      -1.393   1.346  13.704  0.00  0.00    +0.149 HD
BRANCH  34  36
ATOM     36  C   UNL     1      -1.014   2.845  15.158  0.00  0.00    +0.086 C 
BRANCH  36  37
ATOM     37  C   UNL     1      -1.260   1.752  16.200  0.00  0.00    -0.060 C 
BRANCH  37  38
ATOM     38  N   UNL     1      -1.105   2.316  17.548  0.00  0.00    +0.381 N 
ATOM     39  C   UNL     1      -2.209   3.268  17.834  0.00  0.00    -0.079 C 
ATOM     40  C   UNL     1      -2.239   3.321  19.382  0.00  0.00    -0.020 C 
ATOM     41  C   UNL     1      -1.933   1.860  19.784  0.00  0.00    -0.020 C 
ATOM     42  C   UNL     1      -1.220   1.248  18.564  0.00  0.00    -0.079 C 
ATOM     43  H   UNL     1      -0.214   2.781  17.631  0.00  0.00    -0.082 HD
ENDBRANCH  37  38
ENDBRANCH  36  37
ENDBRANCH  34  36
ENDBRANCH   9  32
BRANCH   6  44
ATOM     44  N   UNL     1      -1.630   0.784   7.657  0.00  0.00    -0.343 N 
ATOM     45  H   UNL     1      -1.105   1.084   6.899  0.00  0.00    +0.144 HD
ATOM     46  H   UNL     1      -2.269   0.062   7.550  0.00  0.00    +0.144 HD
ENDBRANCH   6  44
TORSDOF 9
