REMARK  Name = CHEMBL221019
REMARK  6 active torsions:
REMARK  status: ('A' for Active; 'I' for Inactive)
REMARK    1  A    between atoms: C_1  and  C_2
REMARK    2  A    between atoms: C_5  and  C_20
REMARK    3  A    between atoms: C_7  and  C_8
REMARK    4  A    between atoms: C_9  and  C_10
REMARK    5  A    between atoms: N_22  and  C_23
REMARK    6  A    between atoms: C_27  and  C_29
REMARK                            x       y       z     vdW  Elec       q    Type
REMARK                         _______ _______ _______ _____ _____    ______ ____
ROOT
ATOM      1  C   UNL     1      -0.048   1.502   0.010  0.00  0.00    +0.045 C 
ATOM      2  C   UNL     1      -0.019  -0.004   0.002  0.00  0.00    -0.035 A 
ATOM      3  C   UNL     1      -0.018  -0.687  -1.198  0.00  0.00    +0.005 A 
ATOM      4  C   UNL     1       0.008  -2.067  -1.215  0.00  0.00    +0.013 A 
ATOM      5  C   UNL     1       0.033  -2.784  -0.016  0.00  0.00    +0.038 A 
ATOM      6  C   UNL     1       0.032  -2.103   1.199  0.00  0.00    +0.030 A 
ATOM      7  C   UNL     1       0.011  -0.708   1.210  0.00  0.00    +0.029 A 
ENDROOT
BRANCH   5   8
ATOM      8  C   UNL     1       0.059  -4.262  -0.037  0.00  0.00    +0.248 C 
ATOM      9  O   UNL     1       0.081  -4.885   1.007  0.00  0.00    -0.270 OA
ATOM     10  N   UNL     1       0.060  -4.919  -1.214  0.00  0.00    -0.281 N 
ATOM     11  H   UNL     1      -0.025  -4.426  -2.045  0.00  0.00    +0.155 HD
BRANCH  10  12
ATOM     12  C   UNL     1       0.183  -6.312  -1.237  0.00  0.00    +0.034 A 
ATOM     13  C   UNL     1       0.887  -6.932  -2.261  0.00  0.00    +0.023 A 
ATOM     14  C   UNL     1       1.007  -8.308  -2.280  0.00  0.00    +0.002 A 
ATOM     15  C   UNL     1       0.427  -9.068  -1.282  0.00  0.00    +0.012 A 
ATOM     16  C   UNL     1      -0.275  -8.454  -0.261  0.00  0.00    +0.057 A 
ATOM     17  C   UNL     1      -0.394  -7.078  -0.232  0.00  0.00    +0.035 A 
BRANCH  16  18
ATOM     18  C   UNL     1      -0.907  -9.287   0.825  0.00  0.00    +0.417 C 
ATOM     19  F   UNL     1      -0.647 -10.640   0.585  0.00  0.00    -0.166 F 
ATOM     20  F   UNL     1      -0.369  -8.922   2.064  0.00  0.00    -0.166 F 
ATOM     21  F   UNL     1      -2.289  -9.071   0.834  0.00  0.00    -0.166 F 
ENDBRANCH  16  18
ENDBRANCH  10  12
ENDBRANCH   5   8
BRANCH   7  22
ATOM     22  C   UNL     1       0.015   0.001   2.454  0.00  0.00    -0.059 C 
ATOM     23  C   UNL     1       0.018   0.582   3.474  0.00  0.00    -0.040 C 
BRANCH  23  24
ATOM     24  C   UNL     1       0.022   1.290   4.718  0.00  0.00    +0.132 A 
ATOM     25  C   UNL     1      -0.010   2.701   4.722  0.00  0.00    +0.148 A 
ATOM     26  N   UNL     1      -0.008   3.364   5.852  0.00  0.00    -0.251 NA
ATOM     27  C   UNL     1       0.027   2.701   7.016  0.00  0.00    +0.089 A 
ATOM     28  C   UNL     1       0.030   3.390   8.240  0.00  0.00    +0.030 A 
ATOM     29  C   UNL     1       0.065   2.693   9.408  0.00  0.00    +0.002 A 
ATOM     30  C   UNL     1       0.098   1.300   9.412  0.00  0.00    +0.002 A 
ATOM     31  C   UNL     1       0.096   0.597   8.246  0.00  0.00    +0.030 A 
ATOM     32  C   UNL     1       0.060   1.283   7.018  0.00  0.00    +0.091 A 
ATOM     33  N   UNL     1       0.052   0.618   5.859  0.00  0.00    -0.235 NA
ENDBRANCH  23  24
ENDBRANCH   7  22
TORSDOF 5
