REMARK  Name = CHEMBL314053
REMARK  3 active torsions:
REMARK  status: ('A' for Active; 'I' for Inactive)
REMARK    1  A    between atoms: C_1  and  C_2
REMARK    2  A    between atoms: C_7  and  N_8
REMARK    3  A    between atoms: C_9  and  C_11
REMARK                            x       y       z     vdW  Elec       q    Type
REMARK                         _______ _______ _______ _____ _____    ______ ____
ROOT
ATOM      1  C   UNL     1      -0.500   0.119   4.803  0.00  0.00    +0.038 A 
ATOM      2  C   UNL     1      -0.208   1.490   4.836  0.00  0.00    +0.015 A 
ATOM      3  C   UNL     1      -0.290   2.203   5.987  0.00  0.00    +0.029 A 
ATOM      4  C   UNL     1      -0.674   1.586   7.204  0.00  0.00    +0.080 A 
ATOM      5  C   UNL     1      -0.963   0.200   7.144  0.00  0.00    +0.041 A 
ATOM      6  C   UNL     1      -0.887  -0.521   5.984  0.00  0.00    +0.030 A 
ATOM      7  S   UNL     1      -1.389  -0.171   8.828  0.00  0.00    -0.052 S 
ATOM      8  C   UNL     1      -1.165   1.477   9.484  0.00  0.00    +0.165 A 
ATOM      9  N   UNL     1      -0.799   2.155   8.418  0.00  0.00    -0.225 NA
ATOM     10  N   UNL     1      -1.333   1.924  10.778  0.00  0.00    -0.277 N 
ATOM     11  C   UNL     1      -1.213   3.280  11.068  0.00  0.00    +0.143 A 
ATOM     12  C   UNL     1      -1.492   3.748  12.350  0.00  0.00    +0.154 A 
ATOM     13  N   UNL     1      -1.377   5.034  12.620  0.00  0.00    -0.258 NA
ATOM     14  C   UNL     1      -0.996   5.878  11.676  0.00  0.00    +0.130 A 
ATOM     15  C   UNL     1      -0.718   5.418  10.403  0.00  0.00    +0.132 A 
ATOM     16  N   UNL     1      -0.826   4.129  10.126  0.00  0.00    -0.237 NA
ATOM     17  H   UNL     1      -1.536   1.293  11.487  0.00  0.00    +0.156 HD
ENDROOT
BRANCH   1  19
ATOM     18  N   UNL     1      -0.030  -0.008   2.406  0.00  0.00    -0.280 N 
ATOM     19  C   UNL     1      -0.405  -0.635   3.539  0.00  0.00    +0.248 C 
ATOM     20  O   UNL     1      -0.664  -1.823   3.519  0.00  0.00    -0.270 OA
ATOM     21  H   UNL     1       0.254   0.919   2.437  0.00  0.00    +0.155 HD
BRANCH  18  28
ATOM     22  C   UNL     1      -1.416   1.177   0.222  0.00  0.00    +0.046 C 
ATOM     23  C   UNL     1      -0.717  -0.152   0.096  0.00  0.00    -0.028 A 
ATOM     24  C   UNL     1      -0.732  -0.829  -1.108  0.00  0.00    +0.005 A 
ATOM     25  C   UNL     1      -0.090  -2.048  -1.226  0.00  0.00    +0.002 A 
ATOM     26  C   UNL     1       0.569  -2.594  -0.140  0.00  0.00    +0.022 A 
ATOM     27  C   UNL     1       0.588  -1.922   1.067  0.00  0.00    +0.062 A 
ATOM     28  C   UNL     1      -0.051  -0.694   1.187  0.00  0.00    +0.055 A 
ATOM     29 CL   UNL     1       1.416  -2.607   2.431  0.00  0.00    -0.082 Cl
ENDBRANCH  18  28
ENDBRANCH   1  19
TORSDOF 2
