REMARK  Name = CHEMBL186498
REMARK  7 active torsions:
REMARK  status: ('A' for Active; 'I' for Inactive)
REMARK    1  A    between atoms: C_1  and  C_2
REMARK    2  A    between atoms: C_7  and  N_8
REMARK    3  A    between atoms: C_9  and  C_11
REMARK    4  A    between atoms: C_21  and  N_23
REMARK    5  A    between atoms: N_23  and  C_24
REMARK    6  A    between atoms: C_24  and  C_25
REMARK    7  A    between atoms: C_25  and  N_26
REMARK                            x       y       z     vdW  Elec       q    Type
REMARK                         _______ _______ _______ _____ _____    ______ ____
ROOT
ATOM      1  C   UNL     1      -1.123   0.278   4.717  0.00  0.00    +0.095 A 
ATOM      2  C   UNL     1      -1.533  -0.119   5.982  0.00  0.00    +0.133 A 
ATOM      3  N   UNL     1      -1.321   0.730   6.956  0.00  0.00    -0.232 NA
ATOM      4  C   UNL     1      -0.747   1.900   6.738  0.00  0.00    +0.164 A 
ATOM      5  S   UNL     1      -0.445   1.889   5.082  0.00  0.00    -0.047 S 
ATOM      6  N   UNL     1      -0.460   2.893   7.652  0.00  0.00    -0.280 N 
ATOM      7  C   UNL     1      -0.683   2.676   9.009  0.00  0.00    +0.103 A 
ATOM      8  C   UNL     1      -1.044   1.410   9.452  0.00  0.00    +0.042 A 
ATOM      9  C   UNL     1      -1.264   1.203  10.805  0.00  0.00    +0.007 A 
ATOM     10  C   UNL     1      -1.115   2.273  11.671  0.00  0.00    +0.041 A 
ATOM     11  C   UNL     1      -0.752   3.514  11.162  0.00  0.00    +0.097 A 
ATOM     12  N   UNL     1      -0.544   3.678   9.864  0.00  0.00    -0.332 N 
ATOM     13  H   UNL     1      -0.102   3.742   7.349  0.00  0.00    +0.155 HD
ATOM     14  H   UNL     1      -0.288   4.553   9.532  0.00  0.00    +0.168 HD
ENDROOT
BRANCH   1  16
ATOM     15  N   UNL     1      -0.742   0.145   2.317  0.00  0.00    -0.280 N 
ATOM     16  C   UNL     1      -1.215  -0.429   3.440  0.00  0.00    +0.256 C 
ATOM     17  O   UNL     1      -1.718  -1.537   3.393  0.00  0.00    -0.269 OA
ATOM     18  H   UNL     1      -0.270   0.991   2.366  0.00  0.00    +0.155 HD
BRANCH  15  25
ATOM     19  C   UNL     1      -1.896   1.667   0.208  0.00  0.00    +0.046 C 
ATOM     20  C   UNL     1      -1.492   0.228   0.023  0.00  0.00    -0.028 A 
ATOM     21  C   UNL     1      -1.674  -0.390  -1.200  0.00  0.00    +0.005 A 
ATOM     22  C   UNL     1      -1.304  -1.710  -1.371  0.00  0.00    +0.002 A 
ATOM     23  C   UNL     1      -0.751  -2.419  -0.320  0.00  0.00    +0.022 A 
ATOM     24  C   UNL     1      -0.567  -1.808   0.905  0.00  0.00    +0.062 A 
ATOM     25  C   UNL     1      -0.932  -0.478   1.079  0.00  0.00    +0.055 A 
ATOM     26 CL   UNL     1       0.127  -2.699   2.224  0.00  0.00    -0.082 Cl
ENDBRANCH  15  25
ENDBRANCH   1  16
BRANCH  11  27
ATOM     27  N   UNL     1      -0.601   4.594  12.025  0.00  0.00    -0.329 N 
ATOM     28  H   UNL     1      -0.348   5.463  11.675  0.00  0.00    +0.147 HD
BRANCH  27  29
ATOM     29  C   UNL     1      -0.824   4.420  13.462  0.00  0.00    +0.118 C 
BRANCH  29  30
ATOM     30  C   UNL     1      -0.593   5.752  14.179  0.00  0.00    +0.103 C 
BRANCH  30  31
ATOM     31  N   UNL     1      -0.817   5.578  15.620  0.00  0.00    -0.297 NA
ATOM     32  C   UNL     1      -2.228   5.276  15.902  0.00  0.00    +0.112 C 
ATOM     33  C   UNL     1      -2.404   5.044  17.405  0.00  0.00    +0.175 C 
ATOM     34  O   UNL     1      -1.944   6.195  18.117  0.00  0.00    -0.377 OA
ATOM     35  C   UNL     1      -0.573   6.518  17.867  0.00  0.00    +0.175 C 
ATOM     36  C   UNL     1      -0.378   6.765  16.369  0.00  0.00    +0.112 C 
ENDBRANCH  30  31
ENDBRANCH  29  30
ENDBRANCH  27  29
ENDBRANCH  11  27
TORSDOF 6
