REMARK  Name = CHEMBL583850
REMARK  5 active torsions:
REMARK  status: ('A' for Active; 'I' for Inactive)
REMARK    1  A    between atoms: C_1  and  C_2
REMARK    2  A    between atoms: C_2  and  C_3
REMARK    3  A    between atoms: C_2  and  N_22
REMARK    4  A    between atoms: N_11  and  C_12
REMARK    5  A    between atoms: C_27  and  N_29
REMARK                            x       y       z     vdW  Elec       q    Type
REMARK                         _______ _______ _______ _____ _____    ______ ____
ROOT
ATOM      1  C   UNL     1       0.769  -1.600  -0.419  0.00  0.00    +0.026 C 
ATOM      2  C   UNL     1       1.844  -0.540  -0.668  0.00  0.00    +0.008 C 
ATOM      3  C   UNL     1       2.202  -0.514  -2.156  0.00  0.00    +0.019 C 
ATOM      4  C   UNL     1       2.764  -1.879  -2.566  0.00  0.00    +0.109 C 
ATOM      5  N   UNL     1       1.796  -2.920  -2.196  0.00  0.00    -0.285 N 
ATOM      6  C   UNL     1       1.315  -2.977  -0.809  0.00  0.00    +0.114 C 
ATOM      7  C   UNL     1       1.356  -3.805  -3.112  0.00  0.00    +0.306 C 
ATOM      8  O   UNL     1       0.613  -4.708  -2.778  0.00  0.00    -0.252 OA
ATOM      9  N   UNL     1       1.739  -3.690  -4.399  0.00  0.00    -0.269 N 
ATOM     10  H   UNL     1       2.410  -3.035  -4.649  0.00  0.00    +0.156 HD
ENDROOT
BRANCH   9  11
ATOM     11  C   UNL     1       1.170  -4.514  -5.375  0.00  0.00    +0.035 A 
ATOM     12  C   UNL     1      -0.171  -4.901  -5.259  0.00  0.00    +0.024 A 
ATOM     13  C   UNL     1      -0.750  -5.701  -6.193  0.00  0.00    +0.010 A 
ATOM     14  C   UNL     1       0.000  -6.152  -7.293  0.00  0.00    -0.018 A 
ATOM     15  C   UNL     1      -0.572  -6.979  -8.274  0.00  0.00    +0.008 A 
ATOM     16  C   UNL     1       0.181  -7.398  -9.327  0.00  0.00    +0.001 A 
ATOM     17  C   UNL     1       1.517  -7.018  -9.450  0.00  0.00    +0.001 A 
ATOM     18  C   UNL     1       2.105  -6.218  -8.520  0.00  0.00    +0.008 A 
ATOM     19  C   UNL     1       1.358  -5.765  -7.418  0.00  0.00    -0.016 A 
ATOM     20  C   UNL     1       1.932  -4.933  -6.443  0.00  0.00    +0.031 A 
ENDBRANCH   9  11
BRANCH   1  22
ATOM     21  C   UNL     1      -0.157  -0.227   1.452  0.00  0.00    +0.028 C 
ATOM     22  C   UNL     1       0.389  -1.603   1.063  0.00  0.00    +0.075 C 
BRANCH  22  23
ATOM     23  N   UNL     1      -0.637  -2.620   1.302  0.00  0.00    -0.311 N 
ATOM     24  C   UNL     1      -0.778  -3.179   2.561  0.00  0.00    +0.217 A 
ATOM     25  N   UNL     1       0.020  -2.777   3.539  0.00  0.00    -0.223 NA
ATOM     26  C   UNL     1      -0.085  -3.289   4.756  0.00  0.00    +0.118 A 
ATOM     27  C   UNL     1      -1.043  -4.254   5.003  0.00  0.00    +0.066 A 
ATOM     28  C   UNL     1      -1.869  -4.656   3.953  0.00  0.00    +0.144 A 
ATOM     29  N   UNL     1      -1.711  -4.098   2.759  0.00  0.00    -0.197 NA
ATOM     30  H   UNL     1      -1.218  -2.903   0.579  0.00  0.00    +0.149 HD
BRANCH  28  31
ATOM     31  N   UNL     1      -2.848  -5.627   4.156  0.00  0.00    -0.283 N 
ATOM     32  C   UNL     1      -3.120  -6.269   5.329  0.00  0.00    +0.206 A 
ATOM     33  N   UNL     1      -4.096  -7.112   5.159  0.00  0.00    -0.235 NA
ATOM     34  C   UNL     1      -4.519  -7.071   3.869  0.00  0.00    +0.089 A 
ATOM     35  C   UNL     1      -3.729  -6.115   3.208  0.00  0.00    +0.075 A 
ATOM     36  C   UNL     1      -3.941  -5.852   1.863  0.00  0.00    +0.028 A 
ATOM     37  C   UNL     1      -4.930  -6.528   1.179  0.00  0.00    +0.002 A 
ATOM     38  C   UNL     1      -5.715  -7.470   1.827  0.00  0.00    +0.002 A 
ATOM     39  C   UNL     1      -5.513  -7.750   3.160  0.00  0.00    +0.030 A 
ENDBRANCH  28  31
ENDBRANCH  22  23
ENDBRANCH   1  22
TORSDOF 4
