REMARK  Name = CHEMBL568543
REMARK  7 active torsions:
REMARK  status: ('A' for Active; 'I' for Inactive)
REMARK    1  A    between atoms: C_1  and  C_2
REMARK    2  A    between atoms: C_2  and  C_3
REMARK    3  A    between atoms: C_2  and  N_17
REMARK    4  A    between atoms: N_5  and  C_10
REMARK    5  A    between atoms: N_8  and  C_9
REMARK    6  A    between atoms: C_10  and  C_11
REMARK    7  A    between atoms: C_22  and  N_24
REMARK                            x       y       z     vdW  Elec       q    Type
REMARK                         _______ _______ _______ _____ _____    ______ ____
ROOT
ATOM      1  C   UNL     1      -1.597  -0.636   0.705  0.00  0.00    +0.026 C 
ATOM      2  C   UNL     1      -0.228  -0.001   0.452  0.00  0.00    +0.058 C 
ENDROOT
BRANCH   2   3
ATOM      3  C   UNL     1       0.729  -0.386   1.582  0.00  0.00    -0.034 C 
ATOM      4  C   UNL     1       0.862  -1.909   1.643  0.00  0.00    +0.071 C 
ATOM      5  N   UNL     1       1.796  -2.274   2.716  0.00  0.00    -0.301 NA
ATOM      6  C   UNL     1       3.114  -1.664   2.491  0.00  0.00    +0.066 C 
ATOM      7  C   UNL     1       2.963  -0.142   2.424  0.00  0.00    -0.063 C 
ATOM      8  N   UNL     1       2.048   0.211   1.331  0.00  0.00    +0.383 N 
ATOM      9  C   UNL     1       1.917   1.672   1.255  0.00  0.00    -0.096 C 
ATOM     10  H   UNL     1       2.414  -0.139   0.459  0.00  0.00    -0.082 HD
BRANCH   5  11
ATOM     11  C   UNL     1       1.907  -3.733   2.844  0.00  0.00    +0.119 C 
BRANCH  11  12
ATOM     12  C   UNL     1       2.672  -4.072   4.098  0.00  0.00    -0.033 A 
ATOM     13  C   UNL     1       4.048  -4.197   4.056  0.00  0.00    +0.005 A 
ATOM     14  C   UNL     1       4.749  -4.507   5.206  0.00  0.00    +0.000 A 
ATOM     15  C   UNL     1       4.074  -4.691   6.398  0.00  0.00    +0.000 A 
ATOM     16  C   UNL     1       2.698  -4.565   6.441  0.00  0.00    +0.000 A 
ATOM     17  C   UNL     1       1.997  -4.250   5.291  0.00  0.00    +0.005 A 
ENDBRANCH  11  12
ENDBRANCH   5  11
ENDBRANCH   2   3
BRANCH   2  18
ATOM     18  N   UNL     1       0.305  -0.483  -0.825  0.00  0.00    -0.312 N 
ATOM     19  C   UNL     1      -0.056   0.143  -2.005  0.00  0.00    +0.217 A 
ATOM     20  N   UNL     1      -0.880   1.179  -1.962  0.00  0.00    -0.223 NA
ATOM     21  C   UNL     1      -1.247   1.803  -3.070  0.00  0.00    +0.118 A 
ATOM     22  C   UNL     1      -0.760   1.363  -4.287  0.00  0.00    +0.066 A 
ATOM     23  C   UNL     1       0.106   0.270  -4.301  0.00  0.00    +0.144 A 
ATOM     24  N   UNL     1       0.436  -0.306  -3.150  0.00  0.00    -0.197 NA
ATOM     25  H   UNL     1       0.911  -1.240  -0.843  0.00  0.00    +0.149 HD
BRANCH  23  26
ATOM     26  N   UNL     1       0.621  -0.209  -5.504  0.00  0.00    -0.283 N 
ATOM     27  C   UNL     1       0.372   0.294  -6.748  0.00  0.00    +0.206 A 
ATOM     28  N   UNL     1       1.016  -0.394  -7.644  0.00  0.00    -0.235 NA
ATOM     29  C   UNL     1       1.722  -1.386  -7.040  0.00  0.00    +0.089 A 
ATOM     30  C   UNL     1       1.484  -1.278  -5.660  0.00  0.00    +0.075 A 
ATOM     31  C   UNL     1       2.087  -2.167  -4.782  0.00  0.00    +0.028 A 
ATOM     32  C   UNL     1       2.921  -3.152  -5.268  0.00  0.00    +0.002 A 
ATOM     33  C   UNL     1       3.163  -3.260  -6.630  0.00  0.00    +0.002 A 
ATOM     34  C   UNL     1       2.567  -2.392  -7.516  0.00  0.00    +0.030 A 
ENDBRANCH  23  26
ENDBRANCH   2  18
TORSDOF 5
