REMARK  Name = CHEMBL568101
REMARK  6 active torsions:
REMARK  status: ('A' for Active; 'I' for Inactive)
REMARK    1  A    between atoms: C_1  and  C_2
REMARK    2  A    between atoms: C_2  and  C_3
REMARK    3  A    between atoms: C_2  and  N_23
REMARK    4  A    between atoms: N_8  and  C_9
REMARK    5  A    between atoms: N_12  and  C_13
REMARK    6  A    between atoms: C_28  and  N_30
REMARK                            x       y       z     vdW  Elec       q    Type
REMARK                         _______ _______ _______ _____ _____    ______ ____
ROOT
ATOM      1  C   UNL     1       0.800   0.411   2.303  0.00  0.00    +0.094 C 
ATOM      2  C   UNL     1       0.432  -1.072   2.199  0.00  0.00    +0.130 C 
ATOM      3  N   UNL     1       1.445  -1.857   2.921  0.00  0.00    -0.283 N 
ATOM      4  C   UNL     1       2.862  -1.619   2.607  0.00  0.00    +0.124 C 
ATOM      5  C   UNL     1       3.135  -0.114   2.696  0.00  0.00    +0.103 C 
ATOM      6  N   UNL     1       2.180   0.604   1.840  0.00  0.00    -0.298 NA
ATOM      7  C   UNL     1       2.515   2.032   1.761  0.00  0.00    +0.105 C 
ATOM      8  C   UNL     1       1.084  -2.769   3.845  0.00  0.00    +0.307 C 
ATOM      9  O   UNL     1      -0.092  -3.020   4.025  0.00  0.00    -0.252 OA
ATOM     10  N   UNL     1       2.027  -3.403   4.570  0.00  0.00    -0.269 N 
ATOM     11  H   UNL     1       2.960  -3.157   4.473  0.00  0.00    +0.156 HD
ENDROOT
BRANCH  10  12
ATOM     12  C   UNL     1       1.660  -4.417   5.461  0.00  0.00    +0.035 A 
ATOM     13  C   UNL     1       0.589  -5.262   5.146  0.00  0.00    +0.024 A 
ATOM     14  C   UNL     1       0.210  -6.256   5.993  0.00  0.00    +0.010 A 
ATOM     15  C   UNL     1       0.898  -6.444   7.204  0.00  0.00    -0.018 A 
ATOM     16  C   UNL     1       0.529  -7.463   8.099  0.00  0.00    +0.008 A 
ATOM     17  C   UNL     1       1.216  -7.619   9.264  0.00  0.00    +0.001 A 
ATOM     18  C   UNL     1       2.283  -6.781   9.585  0.00  0.00    +0.001 A 
ATOM     19  C   UNL     1       2.669  -5.784   8.744  0.00  0.00    +0.008 A 
ATOM     20  C   UNL     1       1.984  -5.592   7.531  0.00  0.00    -0.016 A 
ATOM     21  C   UNL     1       2.358  -4.577   6.636  0.00  0.00    +0.031 A 
ENDBRANCH  10  12
BRANCH   1  23
ATOM     22  C   UNL     1      -1.591   1.017   1.900  0.00  0.00    +0.029 C 
ATOM     23  C   UNL     1      -0.150   1.236   1.432  0.00  0.00    +0.089 C 
BRANCH  23  24
ATOM     24  N   UNL     1      -0.022   0.814   0.035  0.00  0.00    -0.309 N 
ATOM     25  C   UNL     1      -0.346   1.691  -0.985  0.00  0.00    +0.217 A 
ATOM     26  N   UNL     1      -0.766   2.910  -0.680  0.00  0.00    -0.223 NA
ATOM     27  C   UNL     1      -1.085   3.777  -1.629  0.00  0.00    +0.118 A 
ATOM     28  C   UNL     1      -0.977   3.398  -2.955  0.00  0.00    +0.066 A 
ATOM     29  C   UNL     1      -0.532   2.109  -3.244  0.00  0.00    +0.144 A 
ATOM     30  N   UNL     1      -0.224   1.293  -2.243  0.00  0.00    -0.197 NA
ATOM     31  H   UNL     1       0.290  -0.080  -0.175  0.00  0.00    +0.149 HD
BRANCH  29  32
ATOM     32  N   UNL     1      -0.408   1.684  -4.566  0.00  0.00    -0.283 N 
ATOM     33  C   UNL     1      -0.679   2.421  -5.681  0.00  0.00    +0.206 A 
ATOM     34  N   UNL     1      -0.453   1.713  -6.749  0.00  0.00    -0.235 NA
ATOM     35  C   UNL     1      -0.021   0.474  -6.395  0.00  0.00    +0.089 A 
ATOM     36  C   UNL     1       0.019   0.439  -4.991  0.00  0.00    +0.075 A 
ATOM     37  C   UNL     1       0.433  -0.714  -4.339  0.00  0.00    +0.028 A 
ATOM     38  C   UNL     1       0.806  -1.821  -5.072  0.00  0.00    +0.002 A 
ATOM     39  C   UNL     1       0.771  -1.790  -6.459  0.00  0.00    +0.002 A 
ATOM     40  C   UNL     1       0.356  -0.657  -7.122  0.00  0.00    +0.030 A 
ENDBRANCH  29  32
ENDBRANCH  23  24
ENDBRANCH   1  23
TORSDOF 4
