REMARK  Name = CHEMBL304300
REMARK  7 active torsions:
REMARK  status: ('A' for Active; 'I' for Inactive)
REMARK    1  A    between atoms: C_1  and  C_2
REMARK    2  A    between atoms: C_2  and  C_3
REMARK    3  A    between atoms: C_3  and  C_4
REMARK    4  A    between atoms: C_3  and  N_10
REMARK    5  A    between atoms: C_19  and  C_23
REMARK    6  A    between atoms: N_25  and  C_26
REMARK    7  A    between atoms: C_27  and  C_33
REMARK                            x       y       z     vdW  Elec       q    Type
REMARK                         _______ _______ _______ _____ _____    ______ ____
ROOT
ATOM      1  N   UNL     1       1.865  -0.548  -3.824  0.00  0.00    -0.292 N 
ATOM      2  C   UNL     1       2.275   0.734  -3.892  0.00  0.00    +0.306 C 
ATOM      3  O   UNL     1       1.992   1.511  -3.001  0.00  0.00    -0.252 OA
ATOM      4  N   UNL     1       2.998   1.155  -4.949  0.00  0.00    -0.248 N 
ATOM      5  C   UNL     1       3.418   2.471  -5.019  0.00  0.00    +0.167 A 
ATOM      6  N   UNL     1       3.219   3.447  -4.161  0.00  0.00    -0.225 NA
ATOM      7  C   UNL     1       3.691   4.694  -4.358  0.00  0.00    +0.080 A 
ATOM      8  C   UNL     1       3.544   5.824  -3.516  0.00  0.00    +0.029 A 
ATOM      9  C   UNL     1       4.080   7.022  -3.854  0.00  0.00    +0.015 A 
ATOM     10  C   UNL     1       4.799   7.193  -5.046  0.00  0.00    +0.038 A 
ATOM     11  C   UNL     1       4.963   6.098  -5.901  0.00  0.00    +0.030 A 
ATOM     12  C   UNL     1       4.420   4.891  -5.556  0.00  0.00    +0.041 A 
ATOM     13  S   UNL     1       4.377   3.276  -6.295  0.00  0.00    -0.052 S 
ATOM     14  H   UNL     1       2.091  -1.168  -4.535  0.00  0.00    +0.151 HD
ATOM     15  H   UNL     1       3.224   0.535  -5.660  0.00  0.00    +0.158 HD
ENDROOT
BRANCH  10  16
ATOM     16  C   UNL     1       5.373   8.506  -5.393  0.00  0.00    +0.248 C 
ATOM     17  O   UNL     1       5.995   8.643  -6.429  0.00  0.00    -0.270 OA
ATOM     18  N   UNL     1       5.208   9.554  -4.561  0.00  0.00    -0.280 N 
ATOM     19  H   UNL     1       4.652   9.464  -3.772  0.00  0.00    +0.155 HD
BRANCH  18  20
ATOM     20  C   UNL     1       5.840  10.771  -4.837  0.00  0.00    +0.055 A 
ATOM     21  C   UNL     1       5.167  11.761  -5.541  0.00  0.00    -0.028 A 
ATOM     22  C   UNL     1       5.794  12.962  -5.812  0.00  0.00    +0.005 A 
ATOM     23  C   UNL     1       7.090  13.180  -5.383  0.00  0.00    +0.002 A 
ATOM     24  C   UNL     1       7.764  12.197  -4.682  0.00  0.00    +0.022 A 
ATOM     25  C   UNL     1       7.141  10.995  -4.402  0.00  0.00    +0.062 A 
ATOM     26 CL   UNL     1       7.985   9.764  -3.516  0.00  0.00    -0.082 Cl
ATOM     27  C   UNL     1       3.755  11.525  -6.010  0.00  0.00    +0.046 C 
ENDBRANCH  18  20
ENDBRANCH  10  16
BRANCH   1  28
ATOM     28  C   UNL     1       1.079  -1.006  -2.675  0.00  0.00    +0.104 C 
BRANCH  28  29
ATOM     29  C   UNL     1       0.251  -2.199  -3.077  0.00  0.00    -0.027 A 
ATOM     30  C   UNL     1       0.790  -3.170  -3.899  0.00  0.00    +0.005 A 
ATOM     31  C   UNL     1       0.030  -4.264  -4.268  0.00  0.00    +0.000 A 
ATOM     32  C   UNL     1      -1.269  -4.387  -3.814  0.00  0.00    +0.000 A 
ATOM     33  C   UNL     1      -1.809  -3.417  -2.991  0.00  0.00    +0.000 A 
ATOM     34  C   UNL     1      -1.048  -2.324  -2.619  0.00  0.00    +0.005 A 
ENDBRANCH  28  29
BRANCH  28  36
ATOM     35  C   UNL     1       2.773  -0.161  -1.045  0.00  0.00    +0.006 C 
ATOM     36  C   UNL     1       2.022  -1.400  -1.537  0.00  0.00    +0.024 C 
ENDBRANCH  28  36
ENDBRANCH   1  28
TORSDOF 5
