REMARK  Name = CHEMBL421600
REMARK  2 active torsions:
REMARK  status: ('A' for Active; 'I' for Inactive)
REMARK    1  A    between atoms: C_1  and  C_2
REMARK    2  A    between atoms: C_7  and  N_8
REMARK                            x       y       z     vdW  Elec       q    Type
REMARK                         _______ _______ _______ _____ _____    ______ ____
ROOT
ATOM      1  N   UNL     1       0.025  -0.015   2.416  0.00  0.00    -0.296 N 
ATOM      2  C   UNL     1      -0.365  -0.658   3.577  0.00  0.00    +0.149 A 
ATOM      3  C   UNL     1      -0.474   0.090   4.827  0.00  0.00    +0.106 A 
ATOM      4  C   UNL     1      -0.268   1.400   5.184  0.00  0.00    +0.142 A 
ATOM      5  N   UNL     1      -0.527   1.507   6.489  0.00  0.00    -0.243 NA
ATOM      6  C   UNL     1      -0.884   0.340   6.967  0.00  0.00    +0.204 A 
ATOM      7  N   UNL     1      -0.866  -0.569   5.977  0.00  0.00    -0.294 N 
ATOM      8  C   UNL     1      -1.146  -1.930   5.908  0.00  0.00    +0.077 A 
ATOM      9  C   UNL     1      -1.541  -2.622   7.043  0.00  0.00    +0.077 A 
ATOM     10  C   UNL     1      -1.819  -3.977   6.973  0.00  0.00    +0.164 A 
ATOM     11  C   UNL     1      -1.705  -4.652   5.758  0.00  0.00    +0.164 A 
ATOM     12  C   UNL     1      -1.310  -3.974   4.621  0.00  0.00    +0.079 A 
ATOM     13  C   UNL     1      -1.026  -2.604   4.682  0.00  0.00    +0.094 A 
ATOM     14  N   UNL     1      -0.643  -1.943   3.557  0.00  0.00    -0.228 NA
ATOM     15  O   UNL     1      -1.984  -5.982   5.674  0.00  0.00    -0.485 OA
ATOM     16  C   UNL     1      -2.017  -6.712   6.905  0.00  0.00    +0.270 C 
ATOM     17  C   UNL     1      -2.838  -5.905   7.921  0.00  0.00    +0.270 C 
ATOM     18  O   UNL     1      -2.203  -4.635   8.101  0.00  0.00    -0.485 OA
ATOM     19  H   UNL     1       0.230   0.933   2.432  0.00  0.00    +0.154 HD
ENDROOT
BRANCH   1  26
ATOM     20  C   UNL     1       2.524  -1.211   1.770  0.00  0.00    +0.046 C 
ATOM     21  C   UNL     1       1.325  -1.331   0.865  0.00  0.00    -0.028 A 
ATOM     22  C   UNL     1       1.418  -2.044  -0.315  0.00  0.00    +0.005 A 
ATOM     23  C   UNL     1       0.319  -2.155  -1.146  0.00  0.00    +0.002 A 
ATOM     24  C   UNL     1      -0.878  -1.555  -0.799  0.00  0.00    +0.022 A 
ATOM     25  C   UNL     1      -0.978  -0.841   0.379  0.00  0.00    +0.062 A 
ATOM     26  C   UNL     1       0.124  -0.732   1.220  0.00  0.00    +0.054 A 
ATOM     27 CL   UNL     1      -2.480  -0.086   0.814  0.00  0.00    -0.082 Cl
ENDBRANCH   1  26
TORSDOF 1
