REMARK  Name = CHEMBL1085564
REMARK  8 active torsions:
REMARK  status: ('A' for Active; 'I' for Inactive)
REMARK    1  A    between atoms: C_1  and  N_2
REMARK    2  A    between atoms: N_5  and  C_8
REMARK    3  A    between atoms: C_12  and  C_14
REMARK    4  A    between atoms: C_21  and  C_24
REMARK    5  A    between atoms: C_22  and  N_23
REMARK    6  A    between atoms: C_27  and  N_30
REMARK    7  A    between atoms: C_31  and  O_33
REMARK    8  A    between atoms: O_33  and  C_34
REMARK                            x       y       z     vdW  Elec       q    Type
REMARK                         _______ _______ _______ _____ _____    ______ ____
ROOT
ATOM      1  C   UNL     1       0.234  -5.868   4.529  0.00  0.00    +0.046 A 
ATOM      2  C   UNL     1       1.530  -6.345   4.296  0.00  0.00    +0.145 A 
ATOM      3  N   UNL     1       2.020  -6.804   5.421  0.00  0.00    -0.171 NA
ATOM      4  N   UNL     1       1.070  -6.649   6.436  0.00  0.00    -0.200 N 
ATOM      5  C   UNL     1      -0.041  -6.062   5.889  0.00  0.00    +0.165 A 
ATOM      6  N   UNL     1      -1.115  -5.788   6.637  0.00  0.00    -0.235 NA
ATOM      7  C   UNL     1      -1.145  -6.067   7.921  0.00  0.00    +0.125 A 
ATOM      8  C   UNL     1      -0.034  -6.666   8.539  0.00  0.00    +0.040 A 
ATOM      9  C   UNL     1       1.086  -6.962   7.768  0.00  0.00    +0.129 A 
ENDROOT
BRANCH   1  14
ATOM     10  C   UNL     1      -1.072  -3.684   1.758  0.00  0.00    +0.030 A 
ATOM     11  C   UNL     1      -2.381  -4.141   1.651  0.00  0.00    +0.023 A 
ATOM     12  C   UNL     1      -2.833  -5.154   2.476  0.00  0.00    +0.002 A 
ATOM     13  C   UNL     1      -1.988  -5.717   3.411  0.00  0.00    +0.009 A 
ATOM     14  C   UNL     1      -0.673  -5.265   3.526  0.00  0.00    -0.011 A 
ATOM     15  C   UNL     1      -0.215  -4.247   2.691  0.00  0.00    +0.031 A 
BRANCH  10  20
ATOM     16  C   UNL     1      -0.149   1.382  -0.051  0.00  0.00    -0.096 C 
ATOM     17  N   UNL     1      -0.121  -0.087  -0.047  0.00  0.00    +0.380 N 
ATOM     18  C   UNL     1      -1.497  -0.600  -0.040  0.00  0.00    -0.060 C 
ATOM     19  C   UNL     1      -1.472  -2.128  -0.152  0.00  0.00    +0.086 C 
ATOM     20  N   UNL     1      -0.619  -2.660   0.923  0.00  0.00    -0.333 N 
ATOM     21  C   UNL     1       0.724  -2.084   1.092  0.00  0.00    +0.086 C 
ATOM     22  C   UNL     1       0.595  -0.558   1.145  0.00  0.00    -0.060 C 
ATOM     23  H   UNL     1       0.353  -0.415  -0.875  0.00  0.00    -0.082 HD
ENDBRANCH  10  20
ENDBRANCH   1  14
BRANCH   8  24
ATOM     24  C   UNL     1      -0.058  -6.984   9.987  0.00  0.00    -0.013 A 
ATOM     25  C   UNL     1       0.000  -8.311  10.412  0.00  0.00    +0.010 A 
ATOM     26  C   UNL     1      -0.023  -8.604  11.759  0.00  0.00    +0.024 A 
ATOM     27  C   UNL     1      -0.104  -7.578  12.693  0.00  0.00    +0.036 A 
ATOM     28  C   UNL     1      -0.163  -6.255  12.272  0.00  0.00    +0.024 A 
ATOM     29  C   UNL     1      -0.134  -5.957  10.926  0.00  0.00    +0.010 A 
BRANCH  27  30
ATOM     30  N   UNL     1      -0.127  -7.878  14.060  0.00  0.00    -0.251 N 
ATOM     31  C   UNL     1       0.580  -8.923  14.532  0.00  0.00    +0.410 C 
ATOM     32  O   UNL     1       1.316  -9.544  13.791  0.00  0.00    -0.226 OA
ATOM     33  H   UNL     1      -0.653  -7.334  14.667  0.00  0.00    +0.158 HD
BRANCH  31  34
ATOM     34  O   UNL     1       0.472  -9.280  15.827  0.00  0.00    -0.411 OA
BRANCH  34  35
ATOM     35  C   UNL     1       1.122 -10.401  16.236  0.00  0.00    +0.133 A 
ATOM     36  C   UNL     1       0.412 -11.569  16.472  0.00  0.00    +0.046 A 
ATOM     37  C   UNL     1       1.076 -12.707  16.888  0.00  0.00    +0.004 A 
ATOM     38  C   UNL     1       2.446 -12.683  17.069  0.00  0.00    +0.000 A 
ATOM     39  C   UNL     1       3.156 -11.520  16.835  0.00  0.00    +0.004 A 
ATOM     40  C   UNL     1       2.498 -10.380  16.414  0.00  0.00    +0.046 A 
ENDBRANCH  34  35
ENDBRANCH  31  34
ENDBRANCH  27  30
ENDBRANCH   8  24
BRANCH   9  41
ATOM     41  N   UNL     1       2.194  -7.547   8.338  0.00  0.00    -0.343 N 
ATOM     42  H   UNL     1       2.973  -7.741   7.794  0.00  0.00    +0.144 HD
ATOM     43  H   UNL     1       2.195  -7.765   9.283  0.00  0.00    +0.144 HD
ENDBRANCH   9  41
TORSDOF 7
