REMARK  Name = CHEMBL261174
REMARK  11 active torsions:
REMARK  status: ('A' for Active; 'I' for Inactive)
REMARK    1  A    between atoms: C_1  and  C_2
REMARK    2  A    between atoms: C_6  and  C_40
REMARK    3  A    between atoms: C_7  and  N_8
REMARK    4  A    between atoms: N_26  and  C_27
REMARK    5  A    between atoms: C_30  and  O_33
REMARK    6  A    between atoms: O_33  and  C_34
REMARK    7  A    between atoms: C_34  and  C_35
REMARK    8  A    between atoms: C_35  and  C_36
REMARK    9  A    between atoms: C_36  and  N_37
REMARK   10  A    between atoms: N_37  and  C_38
REMARK   11  A    between atoms: N_37  and  C_39
REMARK                            x       y       z     vdW  Elec       q    Type
REMARK                         _______ _______ _______ _____ _____    ______ ____
ROOT
ATOM      1  N   UNL     1       0.046   0.286   2.253  0.00  0.00    -0.245 N 
ATOM      2  C   UNL     1       1.208   0.442   2.920  0.00  0.00    +0.271 A 
ATOM      3  O   UNL     1       2.250   0.019   2.458  0.00  0.00    -0.266 OA
ATOM      4  C   UNL     1       1.188   1.132   4.215  0.00  0.00    +0.101 A 
ATOM      5  C   UNL     1       2.345   1.335   4.968  0.00  0.00    +0.131 A 
ATOM      6  N   UNL     1       2.240   1.967   6.125  0.00  0.00    -0.222 NA
ATOM      7  C   UNL     1       1.065   2.401   6.566  0.00  0.00    +0.221 A 
ATOM      8  N   UNL     1      -0.059   2.230   5.882  0.00  0.00    -0.196 NA
ATOM      9  C   UNL     1      -0.042   1.607   4.714  0.00  0.00    +0.158 A 
ATOM     10  N   UNL     1      -1.192   1.411   3.973  0.00  0.00    -0.261 N 
ATOM     11  C   UNL     1      -1.146   0.768   2.765  0.00  0.00    +0.225 A 
ATOM     12  N   UNL     1      -2.358   0.713   2.256  0.00  0.00    -0.211 NA
ATOM     13  C   UNL     1      -3.240   1.313   3.094  0.00  0.00    +0.092 A 
ATOM     14  C   UNL     1      -2.513   1.762   4.208  0.00  0.00    +0.077 A 
ATOM     15  C   UNL     1      -3.163   2.421   5.240  0.00  0.00    +0.028 A 
ATOM     16  C   UNL     1      -4.527   2.621   5.176  0.00  0.00    +0.002 A 
ATOM     17  C   UNL     1      -5.253   2.166   4.085  0.00  0.00    +0.002 A 
ATOM     18  C   UNL     1      -4.620   1.529   3.041  0.00  0.00    +0.030 A 
ATOM     19  N   UNL     1       1.011   3.055   7.780  0.00  0.00    -0.284 N 
ATOM     20  H   UNL     1       0.154   3.308   8.157  0.00  0.00    +0.155 HD
ENDROOT
BRANCH   1  27
ATOM     21  C   UNL     1       0.433   1.845  -0.097  0.00  0.00    +0.046 C 
ATOM     22  C   UNL     1       0.232   0.353  -0.155  0.00  0.00    -0.026 A 
ATOM     23  C   UNL     1       0.237  -0.298  -1.373  0.00  0.00    +0.005 A 
ATOM     24  C   UNL     1       0.053  -1.668  -1.427  0.00  0.00    +0.001 A 
ATOM     25  C   UNL     1      -0.137  -2.389  -0.264  0.00  0.00    +0.005 A 
ATOM     26  C   UNL     1      -0.143  -1.744   0.958  0.00  0.00    -0.026 A 
ATOM     27  C   UNL     1       0.047  -0.370   1.016  0.00  0.00    +0.059 A 
ATOM     28  C   UNL     1      -0.350  -2.532   2.226  0.00  0.00    +0.046 C 
ENDBRANCH   1  27
BRANCH  19  29
ATOM     29  C   UNL     1       2.194   3.353   8.468  0.00  0.00    +0.034 A 
ATOM     30  C   UNL     1       3.348   3.667   7.762  0.00  0.00    +0.027 A 
ATOM     31  C   UNL     1       4.514   3.961   8.441  0.00  0.00    +0.047 A 
ATOM     32  C   UNL     1       4.533   3.942   9.828  0.00  0.00    +0.121 A 
ATOM     33  C   UNL     1       3.380   3.629  10.534  0.00  0.00    +0.047 A 
ATOM     34  C   UNL     1       2.212   3.341   9.857  0.00  0.00    +0.027 A 
BRANCH  32  35
ATOM     35  O   UNL     1       5.681   4.231  10.496  0.00  0.00    -0.492 OA
BRANCH  35  36
ATOM     36  C   UNL     1       5.629   4.192  11.924  0.00  0.00    +0.227 C 
BRANCH  36  37
ATOM     37  C   UNL     1       7.005   4.542  12.494  0.00  0.00    +0.022 C 
BRANCH  37  38
ATOM     38  C   UNL     1       6.949   4.501  14.023  0.00  0.00    -0.076 C 
BRANCH  38  39
ATOM     39  N   UNL     1       8.270   4.837  14.570  0.00  0.00    +0.376 N 
ATOM     40  C   UNL     1       8.187   4.915  16.035  0.00  0.00    -0.097 C 
ATOM     41  C   UNL     1       9.236   3.798  14.189  0.00  0.00    -0.097 C 
ATOM     42  H   UNL     1       8.570   5.727  14.203  0.00  0.00    -0.083 HD
ENDBRANCH  38  39
ENDBRANCH  37  38
ENDBRANCH  36  37
ENDBRANCH  35  36
ENDBRANCH  32  35
ENDBRANCH  19  29
TORSDOF 7
