REMARK  Name = CHEMBL248080
REMARK  7 active torsions:
REMARK  status: ('A' for Active; 'I' for Inactive)
REMARK    1  A    between atoms: C_4  and  C_7
REMARK    2  A    between atoms: C_15  and  C_16
REMARK    3  A    between atoms: C_19  and  C_22
REMARK    4  A    between atoms: C_22  and  N_23
REMARK    5  A    between atoms: N_29  and  C_30
REMARK    6  A    between atoms: C_30  and  C_31
REMARK    7  A    between atoms: C_31  and  N_32
REMARK                            x       y       z     vdW  Elec       q    Type
REMARK                         _______ _______ _______ _____ _____    ______ ____
ROOT
ATOM      1  C   UNL     1       3.675  -0.728  -0.009  0.00  0.00    +0.041 A 
ATOM      2  C   UNL     1       4.167  -1.642  -1.048  0.00  0.00    +0.088 A 
ATOM      3  C   UNL     1       3.647  -2.170  -2.237  0.00  0.00    +0.134 A 
ATOM      4  N   UNL     1       4.409  -2.999  -2.946  0.00  0.00    -0.220 NA
ATOM      5  C   UNL     1       5.625  -3.315  -2.541  0.00  0.00    +0.227 A 
ATOM      6  N   UNL     1       6.151  -2.841  -1.431  0.00  0.00    -0.200 NA
ATOM      7  C   UNL     1       5.466  -2.005  -0.654  0.00  0.00    +0.233 A 
ATOM      8  O   UNL     1       5.734  -1.377   0.503  0.00  0.00    -0.436 OA
ATOM      9  C   UNL     1       4.693  -0.616   0.897  0.00  0.00    +0.146 A 
ATOM     10  N   UNL     1       2.373  -1.840  -2.662  0.00  0.00    -0.327 N 
ATOM     11  H   UNL     1       1.827  -1.235  -2.135  0.00  0.00    +0.148 HD
ENDROOT
BRANCH   1  15
ATOM     12  C   UNL     1      -0.117   1.184   0.138  0.00  0.00    +0.000 A 
ATOM     13  C   UNL     1       1.027   1.937  -0.057  0.00  0.00    +0.001 A 
ATOM     14  C   UNL     1       2.261   1.322  -0.105  0.00  0.00    +0.008 A 
ATOM     15  C   UNL     1       2.354  -0.062   0.042  0.00  0.00    -0.014 A 
ATOM     16  C   UNL     1       1.197  -0.816   0.239  0.00  0.00    +0.008 A 
ATOM     17  C   UNL     1      -0.032  -0.189   0.286  0.00  0.00    +0.001 A 
ENDBRANCH   1  15
BRANCH   9  18
ATOM     18  C   UNL     1       4.657   0.209   2.120  0.00  0.00    +0.018 A 
ATOM     19  C   UNL     1       3.552   0.152   2.973  0.00  0.00    +0.012 A 
ATOM     20  C   UNL     1       3.525   0.926   4.114  0.00  0.00    +0.005 A 
ATOM     21  C   UNL     1       4.590   1.757   4.416  0.00  0.00    -0.033 A 
ATOM     22  C   UNL     1       5.688   1.819   3.576  0.00  0.00    +0.005 A 
ATOM     23  C   UNL     1       5.731   1.046   2.434  0.00  0.00    +0.012 A 
BRANCH  21  24
ATOM     24  C   UNL     1       4.552   2.600   5.664  0.00  0.00    +0.119 C 
BRANCH  24  25
ATOM     25  N   UNL     1       5.141   1.848   6.780  0.00  0.00    -0.294 NA
ATOM     26  C   UNL     1       4.312   0.684   7.127  0.00  0.00    +0.113 C 
ATOM     27  C   UNL     1       4.990  -0.102   8.251  0.00  0.00    +0.175 C 
ATOM     28  O   UNL     1       5.204   0.763   9.370  0.00  0.00    -0.377 OA
ATOM     29  C   UNL     1       6.008   1.906   9.068  0.00  0.00    +0.175 C 
ATOM     30  C   UNL     1       5.340   2.713   7.952  0.00  0.00    +0.113 C 
ENDBRANCH  24  25
ENDBRANCH  21  24
ENDBRANCH   9  18
BRANCH  10  31
ATOM     31  C   UNL     1       1.847  -2.403  -3.908  0.00  0.00    +0.118 C 
BRANCH  31  32
ATOM     32  C   UNL     1       0.429  -1.881  -4.146  0.00  0.00    +0.103 C 
BRANCH  32  33
ATOM     33  N   UNL     1      -0.098  -2.446  -5.395  0.00  0.00    -0.304 NA
ATOM     34  C   UNL     1      -0.281  -3.900  -5.280  0.00  0.00    +0.065 C 
ATOM     35  C   UNL     1      -0.773  -4.456  -6.617  0.00  0.00    -0.067 C 
ATOM     36  N   UNL     1      -2.043  -3.813  -6.978  0.00  0.00    +0.381 N 
ATOM     37  C   UNL     1      -1.839  -2.365  -7.114  0.00  0.00    -0.067 C 
ATOM     38  C   UNL     1      -1.356  -1.790  -5.780  0.00  0.00    +0.065 C 
ATOM     39  H   UNL     1      -2.374  -4.189  -7.854  0.00  0.00    -0.086 HD
ATOM     40  H   UNL     1      -2.727  -3.990  -6.257  0.00  0.00    -0.086 HD
ENDBRANCH  32  33
ENDBRANCH  31  32
ENDBRANCH  10  31
TORSDOF 7
