REMARK  Name = CHEMBL322598
REMARK  8 active torsions:
REMARK  status: ('A' for Active; 'I' for Inactive)
REMARK    1  A    between atoms: C_1  and  C_2
REMARK    2  A    between atoms: C_7  and  N_8
REMARK    3  A    between atoms: C_17  and  O_31
REMARK    4  A    between atoms: C_18  and  N_22
REMARK    5  A    between atoms: N_22  and  C_23
REMARK    6  A    between atoms: C_23  and  C_24
REMARK    7  A    between atoms: C_24  and  N_25
REMARK    8  A    between atoms: O_31  and  C_32
REMARK                            x       y       z     vdW  Elec       q    Type
REMARK                         _______ _______ _______ _____ _____    ______ ____
ROOT
ATOM      1  N   UNL     1       0.025  -0.015   2.416  0.00  0.00    -0.296 N 
ATOM      2  C   UNL     1      -0.365  -0.658   3.577  0.00  0.00    +0.149 A 
ATOM      3  C   UNL     1      -0.474   0.090   4.827  0.00  0.00    +0.106 A 
ATOM      4  C   UNL     1      -0.269   1.401   5.183  0.00  0.00    +0.142 A 
ATOM      5  N   UNL     1      -0.529   1.507   6.489  0.00  0.00    -0.243 NA
ATOM      6  C   UNL     1      -0.884   0.340   6.967  0.00  0.00    +0.204 A 
ATOM      7  N   UNL     1      -0.866  -0.569   5.977  0.00  0.00    -0.294 N 
ATOM      8  C   UNL     1      -1.145  -1.930   5.908  0.00  0.00    +0.077 A 
ATOM      9  C   UNL     1      -1.541  -2.621   7.046  0.00  0.00    +0.075 A 
ATOM     10  C   UNL     1      -1.817  -3.974   6.974  0.00  0.00    +0.143 A 
ATOM     11  C   UNL     1      -1.700  -4.652   5.758  0.00  0.00    +0.071 A 
ATOM     12  C   UNL     1      -1.307  -3.975   4.620  0.00  0.00    +0.056 A 
ATOM     13  C   UNL     1      -1.024  -2.604   4.683  0.00  0.00    +0.092 A 
ATOM     14  N   UNL     1      -0.643  -1.943   3.557  0.00  0.00    -0.228 NA
ATOM     15  H   UNL     1       0.230   0.933   2.432  0.00  0.00    +0.154 HD
ENDROOT
BRANCH   1  22
ATOM     16  C   UNL     1       2.523  -1.212   1.769  0.00  0.00    +0.046 C 
ATOM     17  C   UNL     1       1.324  -1.332   0.865  0.00  0.00    -0.028 A 
ATOM     18  C   UNL     1       1.416  -2.044  -0.316  0.00  0.00    +0.005 A 
ATOM     19  C   UNL     1       0.317  -2.155  -1.146  0.00  0.00    +0.002 A 
ATOM     20  C   UNL     1      -0.880  -1.554  -0.799  0.00  0.00    +0.022 A 
ATOM     21  C   UNL     1      -0.979  -0.840   0.380  0.00  0.00    +0.062 A 
ATOM     22  C   UNL     1       0.123  -0.732   1.220  0.00  0.00    +0.054 A 
ATOM     23 CL   UNL     1      -2.481  -0.085   0.815  0.00  0.00    -0.082 Cl
ENDBRANCH   1  22
BRANCH  11  24
ATOM     24  N   UNL     1      -1.981  -6.022   5.693  0.00  0.00    -0.343 N 
ATOM     25  H   UNL     1      -2.257  -6.499   6.492  0.00  0.00    +0.146 HD
BRANCH  24  26
ATOM     26  C   UNL     1      -1.858  -6.735   4.419  0.00  0.00    +0.083 C 
BRANCH  26  27
ATOM     27  C   UNL     1      -2.220  -8.208   4.623  0.00  0.00    -0.060 C 
BRANCH  27  28
ATOM     28  N   UNL     1      -2.097  -8.923   3.345  0.00  0.00    +0.384 N 
ATOM     29  C   UNL     1      -3.094  -8.406   2.397  0.00  0.00    -0.050 C 
ATOM     30  C   UNL     1      -2.963  -9.153   1.067  0.00  0.00    +0.141 C 
ATOM     31  O   UNL     1      -3.132 -10.555   1.295  0.00  0.00    -0.383 OA
ATOM     32  C   UNL     1      -2.198 -11.101   2.231  0.00  0.00    +0.141 C 
ATOM     33  C   UNL     1      -2.327 -10.358   3.563  0.00  0.00    -0.050 C 
ATOM     34  H   UNL     1      -1.171  -8.784   2.970  0.00  0.00    -0.082 HD
ENDBRANCH  27  28
ENDBRANCH  26  27
ENDBRANCH  24  26
ENDBRANCH  11  24
BRANCH  10  35
ATOM     35  O   UNL     1      -2.204  -4.647   8.091  0.00  0.00    -0.493 OA
ATOM     36  C   UNL     1      -2.304  -3.893   9.301  0.00  0.00    +0.277 C 
ENDBRANCH  10  35
TORSDOF 6
