REMARK  Name = CHEMBL281957
REMARK  10 active torsions:
REMARK  status: ('A' for Active; 'I' for Inactive)
REMARK    1  A    between atoms: C_1  and  C_2
REMARK    2  A    between atoms: C_2  and  N_3
REMARK    3  A    between atoms: N_3  and  C_4
REMARK    4  A    between atoms: N_3  and  C_6
REMARK    5  A    between atoms: C_4  and  C_5
REMARK    6  A    between atoms: C_6  and  C_7
REMARK    7  A    between atoms: C_8  and  C_9
REMARK    8  A    between atoms: C_10  and  C_33
REMARK    9  A    between atoms: N_20  and  C_32
REMARK   10  A    between atoms: N_23  and  C_24
REMARK                            x       y       z     vdW  Elec       q    Type
REMARK                         _______ _______ _______ _____ _____    ______ ____
ROOT
ATOM      1  C   UNL     1       1.139   0.182   6.167  0.00  0.00    +0.045 A 
ATOM      2  C   UNL     1       0.596  -0.312   7.309  0.00  0.00    -0.019 A 
ATOM      3  C   UNL     1       1.417  -0.957   8.265  0.00  0.00    -0.006 A 
ATOM      4  C   UNL     1       0.885  -1.477   9.453  0.00  0.00    +0.011 A 
ATOM      5  C   UNL     1       1.694  -2.094  10.357  0.00  0.00    +0.030 A 
ATOM      6  C   UNL     1       3.071  -2.221  10.119  0.00  0.00    +0.092 A 
ATOM      7  C   UNL     1       3.629  -1.710   8.938  0.00  0.00    +0.083 A 
ATOM      8  C   UNL     1       2.803  -1.074   8.004  0.00  0.00    +0.072 A 
ATOM      9  C   UNL     1       3.331  -0.522   6.755  0.00  0.00    +0.259 A 
ATOM     10  N   UNL     1       2.484   0.074   5.892  0.00  0.00    -0.322 N 
ATOM     11  O   UNL     1       4.519  -0.605   6.497  0.00  0.00    -0.267 OA
ATOM     12  N   UNL     1       4.979  -1.985   8.996  0.00  0.00    -0.314 N 
ATOM     13  C   UNL     1       5.210  -2.639  10.174  0.00  0.00    +0.201 A 
ATOM     14  N   UNL     1       4.086  -2.776  10.832  0.00  0.00    -0.214 NA
ATOM     15  N   UNL     1       6.443  -3.086  10.605  0.00  0.00    -0.283 N 
ATOM     16  C   UNL     1       5.979  -1.642   7.983  0.00  0.00    +0.152 C 
ATOM     17  C   UNL     1      -0.884  -0.172   7.561  0.00  0.00    +0.046 C 
ATOM     18  H   UNL     1       7.221  -2.990  10.033  0.00  0.00    +0.155 HD
ATOM     19  H   UNL     1       2.829   0.437   5.061  0.00  0.00    +0.169 HD
ENDROOT
BRANCH  15  20
ATOM     20  C   UNL     1       6.571  -3.679  11.866  0.00  0.00    +0.071 A 
ATOM     21  C   UNL     1       5.999  -4.921  12.113  0.00  0.00    +0.064 A 
ATOM     22  C   UNL     1       6.127  -5.503  13.359  0.00  0.00    +0.022 A 
ATOM     23  C   UNL     1       6.823  -4.851  14.361  0.00  0.00    +0.003 A 
ATOM     24  C   UNL     1       7.393  -3.615  14.119  0.00  0.00    +0.022 A 
ATOM     25  C   UNL     1       7.274  -3.029  12.873  0.00  0.00    +0.064 A 
ATOM     26 CL   UNL     1       7.997  -1.480  12.568  0.00  0.00    -0.082 Cl
ATOM     27 CL   UNL     1       5.124  -5.740  10.857  0.00  0.00    -0.082 Cl
ENDBRANCH  15  20
BRANCH   1  29
ATOM     28  C   UNL     1       0.761   1.275   4.034  0.00  0.00    -0.010 C 
ATOM     29  C   UNL     1       0.263   0.848   5.191  0.00  0.00    +0.023 C 
BRANCH  28  30
ATOM     30  C   UNL     1      -0.136   1.958   3.034  0.00  0.00    +0.111 C 
BRANCH  30  31
ATOM     31  N   UNL     1       0.421   3.273   2.693  0.00  0.00    -0.299 NA
BRANCH  31  33
ATOM     32  C   UNL     1       0.436   5.125   1.091  0.00  0.00    +0.020 C 
ATOM     33  C   UNL     1      -0.316   3.885   1.579  0.00  0.00    +0.081 C 
ENDBRANCH  31  33
BRANCH  31  34
ATOM     34  C   UNL     1       0.434   4.159   3.865  0.00  0.00    +0.081 C 
ATOM     35  C   UNL     1      -1.003   4.448   4.302  0.00  0.00    +0.020 C 
ENDBRANCH  31  34
ENDBRANCH  30  31
ENDBRANCH  28  30
ENDBRANCH   1  29
TORSDOF 6
