REMARK  Name = CHEMBL607366
REMARK  8 active torsions:
REMARK  status: ('A' for Active; 'I' for Inactive)
REMARK    1  A    between atoms: C_4  and  O_7
REMARK    2  A    between atoms: O_7  and  C_8
REMARK    3  A    between atoms: C_11  and  C_14
REMARK    4  A    between atoms: C_15  and  C_32
REMARK    5  A    between atoms: C_24  and  O_28
REMARK    6  A    between atoms: O_28  and  C_29
REMARK    7  A    between atoms: C_29  and  C_30
REMARK    8  A    between atoms: C_30  and  N_31
REMARK                            x       y       z     vdW  Elec       q    Type
REMARK                         _______ _______ _______ _____ _____    ______ ____
ROOT
ATOM      1  C   UNL     1       3.882  -6.234   0.071  0.00  0.00    +0.107 A 
ATOM      2  C   UNL     1       4.926  -7.067  -0.546  0.00  0.00    +0.104 A 
ATOM      3  C   UNL     1       4.571  -8.373  -0.257  0.00  0.00    +0.134 A 
ATOM      4  N   UNL     1       3.462  -8.370   0.461  0.00  0.00    -0.249 N 
ATOM      5  N   UNL     1       3.034  -7.051   0.657  0.00  0.00    -0.169 NA
ATOM      6  C   UNL     1       2.818  -9.582   0.978  0.00  0.00    +0.150 C 
ATOM      7  C   UNL     1       3.677 -10.252   2.029  0.00  0.00    +0.060 C 
ATOM      8  C   UNL     1       5.027 -10.722   1.530  0.00  0.00    -0.024 A 
ATOM      9  C   UNL     1       5.663 -11.589   2.431  0.00  0.00    +0.009 A 
ATOM     10  C   UNL     1       6.891 -12.140   2.166  0.00  0.00    +0.046 A 
ATOM     11  C   UNL     1       7.543 -11.845   0.976  0.00  0.00    +0.122 A 
ATOM     12  C   UNL     1       6.934 -10.990   0.079  0.00  0.00    +0.069 A 
ATOM     13  C   UNL     1       5.686 -10.426   0.358  0.00  0.00    +0.039 A 
ATOM     14  N   UNL     1       5.189  -9.553  -0.610  0.00  0.00    -0.299 N 
ATOM     15  H   UNL     1       5.280  -9.781  -1.549  0.00  0.00    +0.154 HD
ENDROOT
BRANCH   1  19
ATOM     16  C   UNL     1       3.657  -1.988  -0.010  0.00  0.00    +0.128 A 
ATOM     17  C   UNL     1       2.493  -2.744  -0.046  0.00  0.00    +0.047 A 
ATOM     18  C   UNL     1       2.563  -4.121  -0.020  0.00  0.00    +0.014 A 
ATOM     19  C   UNL     1       3.804  -4.754   0.042  0.00  0.00    +0.003 A 
ATOM     20  C   UNL     1       4.971  -3.992   0.078  0.00  0.00    +0.014 A 
ATOM     21  C   UNL     1       4.895  -2.615   0.046  0.00  0.00    +0.047 A 
BRANCH  16  22
ATOM     22  O   UNL     1       3.586  -0.632  -0.036  0.00  0.00    -0.456 OA
BRANCH  22  26
ATOM     23  C   UNL     1       3.335   1.363   3.566  0.00  0.00    +0.000 A 
ATOM     24  C   UNL     1       3.418  -0.017   3.546  0.00  0.00    +0.004 A 
ATOM     25  C   UNL     1       3.502  -0.687   2.341  0.00  0.00    +0.046 A 
ATOM     26  C   UNL     1       3.503   0.025   1.150  0.00  0.00    +0.128 A 
ATOM     27  C   UNL     1       3.420   1.410   1.174  0.00  0.00    +0.046 A 
ATOM     28  C   UNL     1       3.336   2.076   2.381  0.00  0.00    +0.004 A 
ENDBRANCH  22  26
ENDBRANCH  16  22
ENDBRANCH   1  19
BRANCH   2  29
ATOM     29  C   UNL     1       6.094  -6.611  -1.307  0.00  0.00    +0.247 C 
ATOM     30  O   UNL     1       7.141  -6.377  -0.732  0.00  0.00    -0.270 OA
ATOM     31  N   UNL     1       6.008  -6.451  -2.642  0.00  0.00    -0.325 N 
ATOM     32  H   UNL     1       5.174  -6.637  -3.100  0.00  0.00    +0.145 HD
ATOM     33  H   UNL     1       6.781  -6.149  -3.145  0.00  0.00    +0.145 HD
ENDBRANCH   2  29
BRANCH  11  34
ATOM     34  O   UNL     1       8.757 -12.389   0.699  0.00  0.00    -0.494 OA
BRANCH  34  35
ATOM     35  C   UNL     1       9.316 -13.263   1.681  0.00  0.00    +0.209 C 
BRANCH  35  36
ATOM     36  C   UNL     1      10.675 -13.772   1.197  0.00  0.00    -0.045 C 
BRANCH  36  37
ATOM     37  N   UNL     1      11.614 -12.647   1.099  0.00  0.00    +0.380 N 
ATOM     38  H   UNL     1      11.256 -11.967   0.445  0.00  0.00    -0.090 HD
ATOM     39  H   UNL     1      11.719 -12.217   2.006  0.00  0.00    -0.090 HD
ATOM     40  H   UNL     1      12.510 -12.983   0.780  0.00  0.00    -0.090 HD
ENDBRANCH  36  37
ENDBRANCH  35  36
ENDBRANCH  34  35
ENDBRANCH  11  34
TORSDOF 8
