REMARK  Name = CHEMBL87875
REMARK  4 active torsions:
REMARK  status: ('A' for Active; 'I' for Inactive)
REMARK    1  A    between atoms: C_1  and  C_2
REMARK    2  A    between atoms: C_7  and  N_8
REMARK    3  A    between atoms: C_9  and  C_11
REMARK    4  A    between atoms: N_20  and  C_21
REMARK                            x       y       z     vdW  Elec       q    Type
REMARK                         _______ _______ _______ _____ _____    ______ ____
ROOT
ATOM      1  C   UNL     1      -0.449   0.113   4.812  0.00  0.00    +0.038 A 
ATOM      2  C   UNL     1      -0.141   1.480   4.850  0.00  0.00    +0.015 A 
ATOM      3  C   UNL     1      -0.227   2.192   6.000  0.00  0.00    +0.029 A 
ATOM      4  C   UNL     1      -0.633   1.579   7.212  0.00  0.00    +0.080 A 
ATOM      5  C   UNL     1      -0.939   0.198   7.147  0.00  0.00    +0.041 A 
ATOM      6  C   UNL     1      -0.859  -0.524   5.989  0.00  0.00    +0.030 A 
ATOM      7  S   UNL     1      -1.390  -0.169   8.826  0.00  0.00    -0.052 S 
ATOM      8  C   UNL     1      -1.153   1.475   9.486  0.00  0.00    +0.163 A 
ATOM      9  N   UNL     1      -0.765   2.150   8.425  0.00  0.00    -0.225 NA
ATOM     10  N   UNL     1      -1.330   1.923  10.778  0.00  0.00    -0.294 N 
ATOM     11  H   UNL     1      -1.540   1.292  11.485  0.00  0.00    +0.154 HD
ENDROOT
BRANCH  10  12
ATOM     12  C   UNL     1      -1.208   3.284  11.069  0.00  0.00    +0.033 A 
ATOM     13  C   UNL     1      -1.433   4.231  10.078  0.00  0.00    +0.023 A 
ATOM     14  C   UNL     1      -1.312   5.576  10.369  0.00  0.00    +0.002 A 
ATOM     15  C   UNL     1      -0.967   5.980  11.646  0.00  0.00    +0.000 A 
ATOM     16  C   UNL     1      -0.741   5.040  12.635  0.00  0.00    +0.002 A 
ATOM     17  C   UNL     1      -0.867   3.694  12.352  0.00  0.00    +0.023 A 
ENDBRANCH  10  12
BRANCH   1  19
ATOM     18  N   UNL     1       0.049  -0.019   2.422  0.00  0.00    -0.280 N 
ATOM     19  C   UNL     1      -0.347  -0.642   3.549  0.00  0.00    +0.248 C 
ATOM     20  O   UNL     1      -0.622  -1.827   3.525  0.00  0.00    -0.270 OA
ATOM     21  H   UNL     1       0.345   0.904   2.456  0.00  0.00    +0.155 HD
BRANCH  18  28
ATOM     22  C   UNL     1      -1.295   1.185   0.222  0.00  0.00    +0.046 C 
ATOM     23  C   UNL     1      -0.611  -0.153   0.103  0.00  0.00    -0.028 A 
ATOM     24  C   UNL     1      -0.619  -0.829  -1.102  0.00  0.00    +0.005 A 
ATOM     25  C   UNL     1       0.008  -2.056  -1.213  0.00  0.00    +0.002 A 
ATOM     26  C   UNL     1       0.647  -2.611  -0.119  0.00  0.00    +0.022 A 
ATOM     27  C   UNL     1       0.660  -1.940   1.089  0.00  0.00    +0.062 A 
ATOM     28  C   UNL     1       0.034  -0.704   1.202  0.00  0.00    +0.055 A 
ATOM     29 CL   UNL     1       1.461  -2.637   2.462  0.00  0.00    -0.082 Cl
ENDBRANCH  18  28
ENDBRANCH   1  19
TORSDOF 3
