REMARK  Name = CHEMBL110783
REMARK  4 active torsions:
REMARK  status: ('A' for Active; 'I' for Inactive)
REMARK    1  A    between atoms: C_1  and  C_2
REMARK    2  A    between atoms: C_7  and  N_8
REMARK    3  A    between atoms: C_17  and  N_22
REMARK    4  A    between atoms: N_26  and  C_29
REMARK                            x       y       z     vdW  Elec       q    Type
REMARK                         _______ _______ _______ _____ _____    ______ ____
ROOT
ATOM      1  N   UNL     1       0.043  -0.019   2.420  0.00  0.00    -0.296 N 
ATOM      2  C   UNL     1      -0.346  -0.663   3.581  0.00  0.00    +0.149 A 
ATOM      3  C   UNL     1      -0.433   0.081   4.837  0.00  0.00    +0.106 A 
ATOM      4  C   UNL     1      -0.204   1.385   5.197  0.00  0.00    +0.142 A 
ATOM      5  N   UNL     1      -0.451   1.489   6.506  0.00  0.00    -0.243 NA
ATOM      6  C   UNL     1      -0.819   0.325   6.981  0.00  0.00    +0.204 A 
ATOM      7  N   UNL     1      -0.824  -0.579   5.987  0.00  0.00    -0.294 N 
ATOM      8  C   UNL     1      -1.123  -1.935   5.913  0.00  0.00    +0.075 A 
ATOM      9  C   UNL     1      -1.519  -2.626   7.048  0.00  0.00    +0.051 A 
ATOM     10  C   UNL     1      -1.817  -3.978   6.968  0.00  0.00    +0.032 A 
ATOM     11  C   UNL     1      -1.720  -4.645   5.750  0.00  0.00    +0.025 A 
ATOM     12  C   UNL     1      -1.329  -3.970   4.617  0.00  0.00    +0.032 A 
ATOM     13  C   UNL     1      -1.025  -2.605   4.683  0.00  0.00    +0.090 A 
ATOM     14  N   UNL     1      -0.644  -1.943   3.557  0.00  0.00    -0.228 NA
ATOM     15  H   UNL     1       0.185   0.940   2.422  0.00  0.00    +0.154 HD
ENDROOT
BRANCH   1  22
ATOM     16  C   UNL     1       2.686  -0.257   1.394  0.00  0.00    +0.046 C 
ATOM     17  C   UNL     1       1.504  -0.893   0.708  0.00  0.00    -0.028 A 
ATOM     18  C   UNL     1       1.688  -1.622  -0.451  0.00  0.00    +0.005 A 
ATOM     19  C   UNL     1       0.605  -2.207  -1.081  0.00  0.00    +0.002 A 
ATOM     20  C   UNL     1      -0.666  -2.065  -0.553  0.00  0.00    +0.022 A 
ATOM     21  C   UNL     1      -0.857  -1.337   0.606  0.00  0.00    +0.062 A 
ATOM     22  C   UNL     1       0.231  -0.752   1.244  0.00  0.00    +0.054 A 
ATOM     23 CL   UNL     1      -2.452  -1.159   1.268  0.00  0.00    -0.082 Cl
ENDBRANCH   1  22
BRANCH  10  24
ATOM     24  N   UNL     1      -2.216  -4.673   8.113  0.00  0.00    -0.329 N 
ATOM     25  C   UNL     1      -2.389  -6.136   8.031  0.00  0.00    +0.106 C 
ATOM     26  C   UNL     1      -1.820  -6.837   9.276  0.00  0.00    +0.034 C 
ATOM     27  C   UNL     1      -0.522  -6.175   9.683  0.00  0.00    +0.085 C 
ATOM     28  N   UNL     1      -0.806  -5.131  10.667  0.00  0.00    -0.304 NA
ATOM     29  C   UNL     1      -1.128  -3.854  10.151  0.00  0.00    +0.103 C 
ATOM     30  C   UNL     1      -2.437  -3.930   9.338  0.00  0.00    +0.120 C 
ATOM     31  C   UNL     1       0.270  -5.041  11.663  0.00  0.00    +0.104 C 
ENDBRANCH  10  24
TORSDOF 2
