REMARK  Name = CHEMBL431407
REMARK  10 active torsions:
REMARK  status: ('A' for Active; 'I' for Inactive)
REMARK    1  A    between atoms: C_1  and  N_2
REMARK    2  A    between atoms: N_5  and  C_8
REMARK    3  A    between atoms: C_11  and  N_14
REMARK    4  A    between atoms: C_17  and  C_19
REMARK    5  A    between atoms: C_22  and  N_27
REMARK    6  A    between atoms: C_23  and  O_25
REMARK    7  A    between atoms: O_25  and  C_26
REMARK    8  A    between atoms: N_27  and  C_28
REMARK    9  A    between atoms: C_28  and  C_29
REMARK   10  A    between atoms: C_34  and  N_38
REMARK                            x       y       z     vdW  Elec       q    Type
REMARK                         _______ _______ _______ _____ _____    ______ ____
ROOT
ATOM      1  N   UNL     1      -1.857  -8.029   2.397  0.00  0.00    -0.243 N 
ATOM      2  C   UNL     1      -1.933  -8.748   3.553  0.00  0.00    +0.164 A 
ATOM      3  C   UNL     1      -1.663 -10.088   3.219  0.00  0.00    +0.086 A 
ATOM      4  C   UNL     1      -1.420 -10.114   1.777  0.00  0.00    +0.105 A 
ATOM      5  N   UNL     1      -1.550  -8.886   1.335  0.00  0.00    -0.168 NA
ATOM      6  C   UNL     1      -1.677 -11.051   4.242  0.00  0.00    +0.131 A 
ATOM      7  N   UNL     1      -1.946 -10.651   5.481  0.00  0.00    -0.220 NA
ATOM      8  C   UNL     1      -2.195  -9.382   5.750  0.00  0.00    +0.225 A 
ATOM      9  N   UNL     1      -2.192  -8.446   4.825  0.00  0.00    -0.216 NA
ENDROOT
BRANCH   1  13
ATOM     10  C   UNL     1      -2.202  -4.144   0.667  0.00  0.00    +0.057 C 
ATOM     11  C   UNL     1      -3.466  -4.804   1.222  0.00  0.00    +0.021 C 
ATOM     12  C   UNL     1      -3.243  -6.314   1.340  0.00  0.00    +0.028 C 
ATOM     13  C   UNL     1      -2.070  -6.584   2.284  0.00  0.00    +0.110 C 
ATOM     14  C   UNL     1      -0.806  -5.924   1.730  0.00  0.00    +0.028 C 
ATOM     15  C   UNL     1      -1.029  -4.415   1.612  0.00  0.00    +0.021 C 
BRANCH  10  20
ATOM     16  C   UNL     1      -2.768   1.231  -0.924  0.00  0.00    -0.096 C 
ATOM     17  N   UNL     1      -2.543  -0.220  -0.865  0.00  0.00    +0.379 N 
ATOM     18  C   UNL     1      -3.765  -0.885  -0.392  0.00  0.00    -0.064 C 
ATOM     19  C   UNL     1      -3.537  -2.397  -0.348  0.00  0.00    +0.066 C 
ATOM     20  N   UNL     1      -2.416  -2.695   0.554  0.00  0.00    -0.303 NA
ATOM     21  C   UNL     1      -1.192  -2.016   0.107  0.00  0.00    +0.066 C 
ATOM     22  C   UNL     1      -1.438  -0.506   0.059  0.00  0.00    -0.064 C 
ATOM     23  H   UNL     1      -2.310  -0.561  -1.785  0.00  0.00    -0.082 HD
ENDBRANCH  10  20
ENDBRANCH   1  13
BRANCH   4  24
ATOM     24  C   UNL     1      -1.093 -11.310   0.963  0.00  0.00    +0.006 A 
ATOM     25  C   UNL     1      -1.809 -12.493   1.143  0.00  0.00    +0.012 A 
ATOM     26  C   UNL     1      -1.504 -13.605   0.386  0.00  0.00    +0.027 A 
ATOM     27  C   UNL     1      -0.485 -13.550  -0.556  0.00  0.00    +0.070 A 
ATOM     28  C   UNL     1       0.233 -12.368  -0.739  0.00  0.00    +0.141 A 
ATOM     29  C   UNL     1      -0.073 -11.250   0.014  0.00  0.00    +0.057 A 
BRANCH  28  30
ATOM     30  O   UNL     1       1.231 -12.315  -1.661  0.00  0.00    -0.493 OA
ATOM     31  C   UNL     1       1.925 -11.073  -1.796  0.00  0.00    +0.277 C 
ENDBRANCH  28  30
BRANCH  27  32
ATOM     32  N   UNL     1      -0.178 -14.680  -1.321  0.00  0.00    -0.334 N 
ATOM     33  H   UNL     1       0.534 -14.641  -1.978  0.00  0.00    +0.147 HD
BRANCH  32  34
ATOM     34  C   UNL     1      -0.932 -15.921  -1.128  0.00  0.00    +0.176 C 
BRANCH  34  35
ATOM     35  C   UNL     1      -0.408 -16.977  -2.067  0.00  0.00    +0.122 A 
ATOM     36  C   UNL     1       0.579 -17.850  -1.798  0.00  0.00    +0.046 A 
ATOM     37  C   UNL     1       0.743 -18.651  -2.951  0.00  0.00    +0.041 A 
ATOM     38  C   UNL     1      -0.154 -18.221  -3.856  0.00  0.00    +0.195 A 
ATOM     39  O   UNL     1      -0.852 -17.210  -3.313  0.00  0.00    -0.466 OA
ENDBRANCH  34  35
ENDBRANCH  32  34
ENDBRANCH  27  32
ENDBRANCH   4  24
BRANCH   6  40
ATOM     40  N   UNL     1      -1.419 -12.380   3.967  0.00  0.00    -0.342 N 
ATOM     41  H   UNL     1      -1.004 -12.629   3.126  0.00  0.00    +0.144 HD
ATOM     42  H   UNL     1      -1.654 -13.063   4.614  0.00  0.00    +0.144 HD
ENDBRANCH   6  40
TORSDOF 8
