REMARK  Name = CHEMBL189338
REMARK  4 active torsions:
REMARK  status: ('A' for Active; 'I' for Inactive)
REMARK    1  A    between atoms: C_1  and  C_2
REMARK    2  A    between atoms: C_7  and  N_8
REMARK    3  A    between atoms: C_20  and  N_22
REMARK    4  A    between atoms: C_26  and  C_29
REMARK                            x       y       z     vdW  Elec       q    Type
REMARK                         _______ _______ _______ _____ _____    ______ ____
ROOT
ATOM      1  N   UNL     1       0.036  -0.018   2.419  0.00  0.00    -0.296 N 
ATOM      2  C   UNL     1      -0.354  -0.661   3.580  0.00  0.00    +0.149 A 
ATOM      3  C   UNL     1      -0.453   0.083   4.833  0.00  0.00    +0.107 A 
ATOM      4  C   UNL     1      -0.235   1.391   5.192  0.00  0.00    +0.142 A 
ATOM      5  N   UNL     1      -0.489   1.496   6.499  0.00  0.00    -0.243 NA
ATOM      6  C   UNL     1      -0.852   0.331   6.976  0.00  0.00    +0.205 A 
ATOM      7  N   UNL     1      -0.845  -0.577   5.984  0.00  0.00    -0.278 N 
ATOM      8  C   UNL     1      -1.136  -1.931   5.915  0.00  0.00    +0.167 A 
ATOM      9  C   UNL     1      -1.026  -2.600   4.686  0.00  0.00    +0.109 A 
ATOM     10  N   UNL     1      -0.643  -1.944   3.559  0.00  0.00    -0.227 NA
ATOM     11  C   UNL     1      -1.323  -3.971   4.630  0.00  0.00    +0.035 A 
ATOM     12  C   UNL     1      -1.712  -4.607   5.791  0.00  0.00    +0.046 A 
ATOM     13  C   UNL     1      -1.798  -3.877   6.975  0.00  0.00    +0.124 A 
ATOM     14  N   UNL     1      -1.514  -2.586   7.003  0.00  0.00    -0.212 NA
ATOM     15  H   UNL     1       0.171   0.943   2.418  0.00  0.00    +0.154 HD
ENDROOT
BRANCH  13  16
ATOM     16  N   UNL     1      -2.191  -4.517   8.145  0.00  0.00    -0.318 N 
ATOM     17  C   UNL     1      -2.521  -3.746   9.354  0.00  0.00    +0.087 C 
ATOM     18  C   UNL     1      -1.741  -4.335  10.534  0.00  0.00    -0.063 C 
ATOM     19  N   UNL     1      -2.022  -5.773  10.636  0.00  0.00    +0.383 N 
ATOM     20  C   UNL     1      -1.519  -6.467   9.444  0.00  0.00    -0.057 C 
ATOM     21  C   UNL     1      -2.293  -5.983   8.209  0.00  0.00    +0.090 C 
ATOM     22  C   UNL     1      -1.717  -7.975   9.610  0.00  0.00    -0.012 C 
ATOM     23  H   UNL     1      -1.569  -6.145  11.457  0.00  0.00    -0.085 HD
ATOM     24  H   UNL     1      -3.018  -5.915  10.711  0.00  0.00    -0.085 HD
ENDBRANCH  13  16
BRANCH   1  31
ATOM     25  C   UNL     1       2.685  -0.236   1.404  0.00  0.00    +0.046 C 
ATOM     26  C   UNL     1       1.511  -0.884   0.715  0.00  0.00    -0.028 A 
ATOM     27  C   UNL     1       1.705  -1.615  -0.441  0.00  0.00    +0.005 A 
ATOM     28  C   UNL     1       0.629  -2.210  -1.074  0.00  0.00    +0.002 A 
ATOM     29  C   UNL     1      -0.645  -2.077  -0.552  0.00  0.00    +0.022 A 
ATOM     30  C   UNL     1      -0.846  -1.347   0.605  0.00  0.00    +0.062 A 
ATOM     31  C   UNL     1       0.235  -0.752   1.246  0.00  0.00    +0.054 A 
ATOM     32 CL   UNL     1      -2.445  -1.180   1.259  0.00  0.00    -0.082 Cl
ENDBRANCH   1  31
TORSDOF 2
