REMARK  Name = CHEMBL468117
REMARK  6 active torsions:
REMARK  status: ('A' for Active; 'I' for Inactive)
REMARK    1  A    between atoms: C_1  and  C_2
REMARK    2  A    between atoms: C_9  and  O_29
REMARK    3  A    between atoms: C_11  and  O_28
REMARK    4  A    between atoms: C_18  and  O_26
REMARK    5  A    between atoms: C_20  and  O_25
REMARK    6  A    between atoms: O_26  and  C_27
REMARK                            x       y       z     vdW  Elec       q    Type
REMARK                         _______ _______ _______ _____ _____    ______ ____
ROOT
ATOM      1  C   UNL     1      -0.019   1.526   0.010  0.00  0.00    +0.052 C 
ATOM      2  C   UNL     1       0.002  -0.004   0.002  0.00  0.00    +0.174 C 
ATOM      3  C   UNL     1       0.722  -0.509  -1.246  0.00  0.00    +0.045 C 
ATOM      4  C   UNL     1      -0.177  -0.392  -2.478  0.00  0.00    +0.011 C 
ATOM      5  C   UNL     1       0.484  -1.151  -3.634  0.00  0.00    +0.077 C 
ATOM      6  C   UNL     1       1.797  -0.490  -3.974  0.00  0.00    +0.164 C 
ATOM      7  O   UNL     1       1.803   0.608  -4.476  0.00  0.00    -0.295 OA
ATOM      8  C   UNL     1       3.096  -1.194  -3.689  0.00  0.00    +0.209 C 
ATOM      9  C   UNL     1       4.237  -0.178  -3.651  0.00  0.00    +0.154 C 
ATOM     10  C   UNL     1       5.374  -0.712  -2.768  0.00  0.00    +0.061 C 
ATOM     11  C   UNL     1       5.345   0.023  -1.444  0.00  0.00    -0.024 C 
ATOM     12  C   UNL     1       4.289  -0.158  -0.661  0.00  0.00    +0.005 C 
ATOM     13  C   UNL     1       4.175   0.526   0.633  0.00  0.00    -0.004 A 
ATOM     14  C   UNL     1       5.179   1.359   1.099  0.00  0.00    +0.054 A 
ATOM     15  C   UNL     1       5.033   2.044   2.296  0.00  0.00    +0.124 A 
ATOM     16  C   UNL     1       3.865   1.898   3.040  0.00  0.00    +0.091 A 
ATOM     17  C   UNL     1       2.861   1.048   2.610  0.00  0.00    +0.135 A 
ATOM     18  C   UNL     1       3.014   0.329   1.418  0.00  0.00    +0.108 A 
ATOM     19  C   UNL     1       2.025  -0.661   0.992  0.00  0.00    +0.344 C 
ATOM     20  O   UNL     1       2.396  -1.681   0.451  0.00  0.00    -0.245 OA
ATOM     21  O   UNL     1       0.698  -0.487   1.163  0.00  0.00    -0.458 OA
ENDROOT
BRANCH  17  22
ATOM     22  O   UNL     1       1.728   0.910   3.345  0.00  0.00    -0.506 OA
ATOM     23  H   UNL     1       1.029   1.535   3.110  0.00  0.00    +0.292 HD
ENDBRANCH  17  22
BRANCH  15  24
ATOM     24  O   UNL     1       6.026   2.854   2.741  0.00  0.00    -0.495 OA
ATOM     25  C   UNL     1       5.806   3.528   3.982  0.00  0.00    +0.277 C 
ENDBRANCH  15  24
BRANCH   9  26
ATOM     26  O   UNL     1       4.727   0.038  -4.976  0.00  0.00    -0.388 OA
ATOM     27  H   UNL     1       5.454   0.673  -5.027  0.00  0.00    +0.210 HD
ENDBRANCH   9  26
BRANCH   8  28
ATOM     28  O   UNL     1       3.350  -2.154  -4.717  0.00  0.00    -0.382 OA
ATOM     29  H   UNL     1       2.668  -2.835  -4.797  0.00  0.00    +0.210 HD
ENDBRANCH   8  28
TORSDOF 4
