REMARK  Name = CHEMBL567669
REMARK  6 active torsions:
REMARK  status: ('A' for Active; 'I' for Inactive)
REMARK    1  A    between atoms: C_1  and  C_2
REMARK    2  A    between atoms: C_2  and  C_3
REMARK    3  A    between atoms: C_2  and  N_18
REMARK    4  A    between atoms: C_9  and  C_11
REMARK    5  A    between atoms: C_11  and  C_12
REMARK    6  A    between atoms: C_23  and  N_25
REMARK                            x       y       z     vdW  Elec       q    Type
REMARK                         _______ _______ _______ _____ _____    ______ ____
ROOT
ATOM      1  C   UNL     1      -0.019   1.526   0.010  0.00  0.00    +0.028 C 
ATOM      2  C   UNL     1       0.002  -0.004   0.002  0.00  0.00    +0.075 C 
ENDROOT
BRANCH   2   3
ATOM      3  C   UNL     1       0.742  -0.511   1.242  0.00  0.00    +0.026 C 
ATOM      4  C   UNL     1       2.177   0.022   1.233  0.00  0.00    +0.008 C 
ATOM      5  C   UNL     1       2.928  -0.511   2.456  0.00  0.00    +0.019 C 
ATOM      6  C   UNL     1       2.236  -0.018   3.730  0.00  0.00    +0.108 C 
ATOM      7  N   UNL     1       0.819  -0.401   3.678  0.00  0.00    -0.301 N 
ATOM      8  C   UNL     1       0.025  -0.017   2.502  0.00  0.00    +0.113 C 
ATOM      9  C   UNL     1       0.257  -1.093   4.689  0.00  0.00    +0.220 C 
ATOM     10  O   UNL     1      -0.914  -1.404   4.634  0.00  0.00    -0.275 OA
BRANCH   9  11
ATOM     11  C   UNL     1       1.083  -1.480   5.888  0.00  0.00    +0.131 C 
BRANCH  11  12
ATOM     12  C   UNL     1       0.225  -2.240   6.866  0.00  0.00    -0.039 A 
ATOM     13  C   UNL     1      -0.471  -1.561   7.848  0.00  0.00    +0.004 A 
ATOM     14  C   UNL     1      -1.258  -2.258   8.745  0.00  0.00    +0.000 A 
ATOM     15  C   UNL     1      -1.350  -3.635   8.660  0.00  0.00    +0.000 A 
ATOM     16  C   UNL     1      -0.655  -4.314   7.677  0.00  0.00    +0.000 A 
ATOM     17  C   UNL     1       0.129  -3.616   6.777  0.00  0.00    +0.004 A 
ENDBRANCH  11  12
ENDBRANCH   9  11
ENDBRANCH   2   3
BRANCH   2  18
ATOM     18  N   UNL     1      -1.372  -0.511   0.012  0.00  0.00    -0.311 N 
ATOM     19  C   UNL     1      -2.069  -0.646  -1.176  0.00  0.00    +0.217 A 
ATOM     20  N   UNL     1      -1.476  -0.317  -2.314  0.00  0.00    -0.223 NA
ATOM     21  C   UNL     1      -2.110  -0.433  -3.470  0.00  0.00    +0.118 A 
ATOM     22  C   UNL     1      -3.410  -0.905  -3.484  0.00  0.00    +0.066 A 
ATOM     23  C   UNL     1      -4.008  -1.243  -2.270  0.00  0.00    +0.144 A 
ATOM     24  N   UNL     1      -3.311  -1.106  -1.147  0.00  0.00    -0.197 NA
ATOM     25  H   UNL     1      -1.794  -0.752   0.852  0.00  0.00    +0.149 HD
BRANCH  23  26
ATOM     26  N   UNL     1      -5.316  -1.722  -2.236  0.00  0.00    -0.283 N 
ATOM     27  C   UNL     1      -6.134  -1.919  -3.309  0.00  0.00    +0.206 A 
ATOM     28  N   UNL     1      -7.286  -2.375  -2.914  0.00  0.00    -0.235 NA
ATOM     29  C   UNL     1      -7.289  -2.504  -1.562  0.00  0.00    +0.089 A 
ATOM     30  C   UNL     1      -6.025  -2.092  -1.107  0.00  0.00    +0.075 A 
ATOM     31  C   UNL     1      -5.734  -2.121   0.249  0.00  0.00    +0.028 A 
ATOM     32  C   UNL     1      -6.687  -2.556   1.146  0.00  0.00    +0.002 A 
ATOM     33  C   UNL     1      -7.935  -2.967   0.702  0.00  0.00    +0.002 A 
ATOM     34  C   UNL     1      -8.244  -2.938  -0.639  0.00  0.00    +0.030 A 
ENDBRANCH  23  26
ENDBRANCH   2  18
TORSDOF 5
