REMARK  Name = CHEMBL31965
REMARK  8 active torsions:
REMARK  status: ('A' for Active; 'I' for Inactive)
REMARK    1  A    between atoms: C_2  and  C_3
REMARK    2  A    between atoms: N_5  and  C_6
REMARK    3  A    between atoms: C_11  and  O_12
REMARK    4  A    between atoms: O_12  and  C_13
REMARK    5  A    between atoms: C_13  and  C_14
REMARK    6  A    between atoms: C_14  and  C_15
REMARK    7  A    between atoms: C_15  and  N_16
REMARK    8  A    between atoms: N_26  and  C_27
REMARK                            x       y       z     vdW  Elec       q    Type
REMARK                         _______ _______ _______ _____ _____    ______ ____
ROOT
ATOM      1  C   UNL     1       2.552  -2.713  -0.216  0.00  0.00    +0.077 A 
ATOM      2  C   UNL     1       3.705  -1.960  -0.183  0.00  0.00    +0.040 A 
ATOM      3  C   UNL     1       4.949  -2.600  -0.212  0.00  0.00    +0.042 A 
ATOM      4  C   UNL     1       5.015  -4.014  -0.275  0.00  0.00    +0.080 A 
ATOM      5  C   UNL     1       3.831  -4.760  -0.308  0.00  0.00    +0.076 A 
ATOM      6  C   UNL     1       2.616  -4.114  -0.273  0.00  0.00    +0.144 A 
ATOM      7  N   UNL     1       6.222  -4.601  -0.302  0.00  0.00    -0.235 NA
ATOM      8  C   UNL     1       7.316  -3.878  -0.269  0.00  0.00    +0.223 A 
ATOM      9  N   UNL     1       7.302  -2.556  -0.210  0.00  0.00    -0.220 NA
ATOM     10  C   UNL     1       6.164  -1.875  -0.180  0.00  0.00    +0.134 A 
ATOM     11  N   UNL     1       6.165  -0.496  -0.118  0.00  0.00    -0.299 N 
ATOM     12  H   UNL     1       5.331  -0.015  -0.003  0.00  0.00    +0.154 HD
ENDROOT
BRANCH  11  13
ATOM     13  C   UNL     1       7.369   0.208  -0.223  0.00  0.00    +0.034 A 
ATOM     14  C   UNL     1       7.501   1.454   0.379  0.00  0.00    +0.026 A 
ATOM     15  C   UNL     1       8.691   2.147   0.275  0.00  0.00    +0.041 A 
ATOM     16  C   UNL     1       9.752   1.603  -0.428  0.00  0.00    +0.142 A 
ATOM     17  C   UNL     1       9.623   0.361  -1.029  0.00  0.00    +0.078 A 
ATOM     18  C   UNL     1       8.436  -0.339  -0.922  0.00  0.00    +0.046 A 
ATOM     19 CL   UNL     1      10.956  -0.319  -1.911  0.00  0.00    -0.081 Cl
ATOM     20  F   UNL     1      10.915   2.283  -0.528  0.00  0.00    -0.204 F 
ENDBRANCH  11  13
BRANCH   1  23
ATOM     21  C   UNL     1       1.189  -0.847   0.355  0.00  0.00    +0.241 C 
ATOM     22  O   UNL     1       2.143  -0.333   0.906  0.00  0.00    -0.271 OA
ATOM     23  N   UNL     1       1.305  -2.076  -0.186  0.00  0.00    -0.279 N 
ATOM     24  H   UNL     1       0.525  -2.519  -0.555  0.00  0.00    +0.155 HD
BRANCH  21  26
ATOM     25  C   UNL     1      -0.206   1.084   0.812  0.00  0.00    +0.013 C 
ATOM     26  C   UNL     1      -0.092  -0.128   0.279  0.00  0.00    +0.060 C 
ENDBRANCH  21  26
ENDBRANCH   1  23
BRANCH   6  27
ATOM     27  O   UNL     1       1.468  -4.839  -0.300  0.00  0.00    -0.490 OA
BRANCH  27  28
ATOM     28  C   UNL     1       1.600  -6.261  -0.359  0.00  0.00    +0.227 C 
BRANCH  28  29
ATOM     29  C   UNL     1       0.211  -6.901  -0.381  0.00  0.00    +0.022 C 
BRANCH  29  30
ATOM     30  C   UNL     1       0.352  -8.423  -0.444  0.00  0.00    -0.075 C 
BRANCH  30  31
ATOM     31  N   UNL     1      -0.982  -9.038  -0.466  0.00  0.00    +0.383 N 
ATOM     32  C   UNL     1      -1.669  -8.764   0.804  0.00  0.00    -0.050 C 
ATOM     33  C   UNL     1      -3.058  -9.406   0.779  0.00  0.00    +0.141 C 
ATOM     34  O   UNL     1      -2.925 -10.811   0.546  0.00  0.00    -0.383 OA
ATOM     35  C   UNL     1      -2.240 -11.129  -0.669  0.00  0.00    +0.141 C 
ATOM     36  C   UNL     1      -0.849 -10.490  -0.646  0.00  0.00    -0.050 C 
ATOM     37  H   UNL     1      -1.518  -8.652  -1.228  0.00  0.00    -0.082 HD
ENDBRANCH  30  31
ENDBRANCH  29  30
ENDBRANCH  28  29
ENDBRANCH  27  28
ENDBRANCH   6  27
TORSDOF 8
