REMARK  Name = CHEMBL271375
REMARK  6 active torsions:
REMARK  status: ('A' for Active; 'I' for Inactive)
REMARK    1  A    between atoms: C_1  and  C_2
REMARK    2  A    between atoms: C_5  and  N_18
REMARK    3  A    between atoms: C_7  and  C_8
REMARK    4  A    between atoms: N_10  and  C_11
REMARK    5  A    between atoms: N_21  and  C_22
REMARK    6  A    between atoms: C_26  and  C_28
REMARK                            x       y       z     vdW  Elec       q    Type
REMARK                         _______ _______ _______ _____ _____    ______ ____
ROOT
ATOM      1  C   UNL     1      -0.385   1.478  -0.087  0.00  0.00    +0.044 C 
ATOM      2  C   UNL     1      -0.242  -0.020   0.003  0.00  0.00    -0.038 A 
ATOM      3  C   UNL     1      -0.299  -0.788  -1.143  0.00  0.00    +0.006 A 
ATOM      4  C   UNL     1      -0.168  -2.162  -1.066  0.00  0.00    +0.023 A 
ATOM      5  C   UNL     1       0.021  -2.779   0.165  0.00  0.00    +0.036 A 
ATOM      6  C   UNL     1       0.079  -2.017   1.321  0.00  0.00    +0.036 A 
ATOM      7  C   UNL     1      -0.048  -0.629   1.243  0.00  0.00    +0.042 A 
ENDROOT
BRANCH   5   8
ATOM      8  N   UNL     1       0.152  -4.171   0.237  0.00  0.00    -0.269 N 
ATOM      9  C   UNL     1      -0.340  -4.840   1.299  0.00  0.00    +0.308 C 
ATOM     10  O   UNL     1      -0.984  -4.249   2.144  0.00  0.00    -0.252 OA
ATOM     11  N   UNL     1      -0.118  -6.163   1.423  0.00  0.00    -0.269 N 
ATOM     12  H   UNL     1       0.597  -4.654  -0.477  0.00  0.00    +0.156 HD
ATOM     13  H   UNL     1       0.461  -6.619   0.792  0.00  0.00    +0.156 HD
BRANCH  11  14
ATOM     14  C   UNL     1      -0.723  -6.880   2.462  0.00  0.00    +0.035 A 
ATOM     15  C   UNL     1      -1.996  -6.535   2.895  0.00  0.00    +0.023 A 
ATOM     16  C   UNL     1      -2.591  -7.245   3.920  0.00  0.00    +0.002 A 
ATOM     17  C   UNL     1      -1.919  -8.297   4.515  0.00  0.00    +0.012 A 
ATOM     18  C   UNL     1      -0.651  -8.642   4.086  0.00  0.00    +0.057 A 
ATOM     19  C   UNL     1      -0.053  -7.940   3.058  0.00  0.00    +0.035 A 
BRANCH  18  20
ATOM     20  C   UNL     1       0.078  -9.789   4.738  0.00  0.00    +0.417 C 
ATOM     21  F   UNL     1      -0.726 -10.343   5.740  0.00  0.00    -0.166 F 
ATOM     22  F   UNL     1       0.364 -10.765   3.777  0.00  0.00    -0.166 F 
ATOM     23  F   UNL     1       1.271  -9.324   5.301  0.00  0.00    -0.166 F 
ENDBRANCH  18  20
ENDBRANCH  11  14
ENDBRANCH   5   8
BRANCH   7  24
ATOM     24  C   UNL     1       0.019   0.191   2.471  0.00  0.00    +0.249 C 
ATOM     25  O   UNL     1      -0.169   1.391   2.411  0.00  0.00    -0.270 OA
ATOM     26  N   UNL     1       0.287  -0.390   3.657  0.00  0.00    -0.279 N 
ATOM     27  H   UNL     1       0.360  -1.356   3.718  0.00  0.00    +0.155 HD
BRANCH  26  28
ATOM     28  C   UNL     1       0.460   0.400   4.801  0.00  0.00    +0.070 A 
ATOM     29  C   UNL     1       0.902   1.716   4.699  0.00  0.00    +0.139 A 
ATOM     30  N   UNL     1       1.054   2.431   5.801  0.00  0.00    -0.221 NA
ATOM     31  C   UNL     1       0.791   1.910   6.990  0.00  0.00    +0.213 A 
ATOM     32  N   UNL     1       0.370   0.661   7.125  0.00  0.00    -0.221 NA
ATOM     33  C   UNL     1       0.189  -0.112   6.067  0.00  0.00    +0.139 A 
ATOM     34  N   UNL     1       0.963   2.691   8.122  0.00  0.00    -0.327 N 
ATOM     35  H   UNL     1       1.272   3.606   8.037  0.00  0.00    +0.145 HD
ATOM     36  H   UNL     1       0.775   2.322   8.999  0.00  0.00    +0.145 HD
ENDBRANCH  26  28
ENDBRANCH   7  24
TORSDOF 5
