REMARK  Name = CHEMBL216240
REMARK  7 active torsions:
REMARK  status: ('A' for Active; 'I' for Inactive)
REMARK    1  A    between atoms: C_1  and  C_2
REMARK    2  A    between atoms: C_7  and  N_8
REMARK    3  A    between atoms: C_9  and  C_11
REMARK    4  A    between atoms: C_19  and  N_24
REMARK    5  A    between atoms: C_21  and  C_23
REMARK    6  A    between atoms: C_27  and  C_30
REMARK    7  A    between atoms: C_30  and  O_31
REMARK                            x       y       z     vdW  Elec       q    Type
REMARK                         _______ _______ _______ _____ _____    ______ ____
ROOT
ATOM      1  C   UNL     1       1.091   6.231   6.068  0.00  0.00    +0.095 A 
ATOM      2  C   UNL     1       1.047   6.221   7.455  0.00  0.00    +0.133 A 
ATOM      3  N   UNL     1       0.831   5.061   8.022  0.00  0.00    -0.232 NA
ATOM      4  C   UNL     1       0.665   3.963   7.306  0.00  0.00    +0.164 A 
ATOM      5  S   UNL     1       0.799   4.504   5.718  0.00  0.00    -0.047 S 
ATOM      6  N   UNL     1       0.431   2.678   7.754  0.00  0.00    -0.279 N 
ATOM      7  C   UNL     1       0.236   2.440   9.108  0.00  0.00    +0.130 A 
ATOM      8  C   UNL     1      -0.111   1.170   9.558  0.00  0.00    +0.087 A 
ATOM      9  C   UNL     1      -0.295   0.983  10.925  0.00  0.00    +0.127 A 
ATOM     10  N   UNL     1      -0.133   2.018  11.747  0.00  0.00    -0.218 NA
ATOM     11  C   UNL     1       0.196   3.205  11.281  0.00  0.00    +0.130 A 
ATOM     12  N   UNL     1       0.384   3.422   9.995  0.00  0.00    -0.217 NA
ATOM     13  C   UNL     1       0.369   4.348  12.248  0.00  0.00    +0.088 C 
ATOM     14  H   UNL     1       0.402   1.942   7.123  0.00  0.00    +0.155 HD
ENDROOT
BRANCH   9  15
ATOM     15  N   UNL     1      -0.642  -0.263  11.424  0.00  0.00    -0.315 N 
ATOM     16  C   UNL     1      -1.058  -0.420  12.824  0.00  0.00    +0.107 C 
ATOM     17  C   UNL     1      -2.414  -1.131  12.860  0.00  0.00    +0.025 C 
ATOM     18  C   UNL     1      -2.317  -2.446  12.082  0.00  0.00    +0.017 C 
ATOM     19  C   UNL     1      -1.963  -2.152  10.623  0.00  0.00    +0.025 C 
ATOM     20  C   UNL     1      -0.608  -1.452  10.560  0.00  0.00    +0.107 C 
BRANCH  18  21
ATOM     21  C   UNL     1      -3.660  -3.176  12.145  0.00  0.00    +0.159 C 
BRANCH  21  22
ATOM     22  O   UNL     1      -3.537  -4.455  11.519  0.00  0.00    -0.395 OA
ATOM     23  H   UNL     1      -4.352  -4.974  11.522  0.00  0.00    +0.209 HD
ENDBRANCH  21  22
ENDBRANCH  18  21
ENDBRANCH   9  15
BRANCH   1  25
ATOM     24  N   UNL     1       1.309   7.132   3.817  0.00  0.00    -0.280 N 
ATOM     25  C   UNL     1       1.310   7.346   5.148  0.00  0.00    +0.256 C 
ATOM     26  O   UNL     1       1.494   8.468   5.584  0.00  0.00    -0.269 OA
ATOM     27  H   UNL     1       1.083   6.256   3.467  0.00  0.00    +0.155 HD
BRANCH  24  34
ATOM     28  C   UNL     1       3.323   6.666   1.863  0.00  0.00    +0.046 C 
ATOM     29  C   UNL     1       2.610   7.989   1.972  0.00  0.00    -0.028 A 
ATOM     30  C   UNL     1       2.923   9.018   1.104  0.00  0.00    +0.005 A 
ATOM     31  C   UNL     1       2.269  10.232   1.203  0.00  0.00    +0.002 A 
ATOM     32  C   UNL     1       1.299  10.422   2.171  0.00  0.00    +0.022 A 
ATOM     33  C   UNL     1       0.981   9.398   3.042  0.00  0.00    +0.062 A 
ATOM     34  C   UNL     1       1.633   8.174   2.941  0.00  0.00    +0.055 A 
ATOM     35 CL   UNL     1      -0.236   9.636   4.257  0.00  0.00    -0.082 Cl
ENDBRANCH  24  34
ENDBRANCH   1  25
TORSDOF 5
