REMARK  Name = CHEMBL1082693
REMARK  8 active torsions:
REMARK  status: ('A' for Active; 'I' for Inactive)
REMARK    1  A    between atoms: C_1  and  N_2
REMARK    2  A    between atoms: N_5  and  C_8
REMARK    3  A    between atoms: C_11  and  C_14
REMARK    4  A    between atoms: C_21  and  C_24
REMARK    5  A    between atoms: C_22  and  N_23
REMARK    6  A    between atoms: C_27  and  N_30
REMARK    7  A    between atoms: N_33  and  C_34
REMARK    8  A    between atoms: N_33  and  C_35
REMARK                            x       y       z     vdW  Elec       q    Type
REMARK                         _______ _______ _______ _____ _____    ______ ____
ROOT
ATOM      1  C   UNL     1      -2.335  -6.746   4.222  0.00  0.00    +0.046 A 
ATOM      2  C   UNL     1      -3.630  -6.835   4.747  0.00  0.00    +0.145 A 
ATOM      3  N   UNL     1      -3.777  -8.008   5.312  0.00  0.00    -0.171 NA
ATOM      4  N   UNL     1      -2.588  -8.735   5.183  0.00  0.00    -0.200 N 
ATOM      5  C   UNL     1      -1.690  -7.957   4.500  0.00  0.00    +0.165 A 
ATOM      6  N   UNL     1      -0.459  -8.404   4.226  0.00  0.00    -0.235 NA
ATOM      7  C   UNL     1      -0.069  -9.603   4.596  0.00  0.00    +0.125 A 
ATOM      8  C   UNL     1      -0.948 -10.448   5.296  0.00  0.00    +0.040 A 
ATOM      9  C   UNL     1      -2.227  -9.990   5.593  0.00  0.00    +0.129 A 
ENDROOT
BRANCH   1  13
ATOM     10  C   UNL     1      -0.677  -3.421   2.151  0.00  0.00    +0.030 A 
ATOM     11  C   UNL     1      -1.917  -3.924   1.776  0.00  0.00    +0.024 A 
ATOM     12  C   UNL     1      -2.457  -5.002   2.445  0.00  0.00    +0.010 A 
ATOM     13  C   UNL     1      -1.757  -5.588   3.500  0.00  0.00    -0.013 A 
ATOM     14  C   UNL     1      -0.513  -5.081   3.874  0.00  0.00    +0.010 A 
ATOM     15  C   UNL     1       0.025  -4.006   3.198  0.00  0.00    +0.024 A 
BRANCH  10  20
ATOM     16  C   UNL     1       0.284   1.784   0.818  0.00  0.00    -0.096 C 
ATOM     17  N   UNL     1       0.393   0.321   0.750  0.00  0.00    +0.380 N 
ATOM     18  C   UNL     1      -0.928  -0.254   0.467  0.00  0.00    -0.060 C 
ATOM     19  C   UNL     1      -0.796  -1.769   0.283  0.00  0.00    +0.086 C 
ATOM     20  N   UNL     1      -0.133  -2.328   1.471  0.00  0.00    -0.333 N 
ATOM     21  C   UNL     1       1.120  -1.703   1.924  0.00  0.00    +0.086 C 
ATOM     22  C   UNL     1       0.897  -0.191   2.031  0.00  0.00    -0.060 C 
ATOM     23  H   UNL     1       1.033   0.066   0.012  0.00  0.00    -0.082 HD
ENDBRANCH  10  20
ENDBRANCH   1  13
BRANCH   8  24
ATOM     24  C   UNL     1      -0.515 -11.802   5.718  0.00  0.00    -0.013 A 
ATOM     25  C   UNL     1      -0.414 -12.112   7.073  0.00  0.00    +0.010 A 
ATOM     26  C   UNL     1      -0.012 -13.373   7.463  0.00  0.00    +0.024 A 
ATOM     27  C   UNL     1       0.292 -14.333   6.505  0.00  0.00    +0.035 A 
ATOM     28  C   UNL     1       0.193 -14.026   5.154  0.00  0.00    +0.024 A 
ATOM     29  C   UNL     1      -0.214 -12.769   4.759  0.00  0.00    +0.010 A 
BRANCH  27  30
ATOM     30  N   UNL     1       0.700 -15.611   6.903  0.00  0.00    -0.269 N 
ATOM     31  C   UNL     1       0.326 -16.691   6.189  0.00  0.00    +0.306 C 
ATOM     32  O   UNL     1      -0.296 -16.549   5.154  0.00  0.00    -0.252 OA
ATOM     33  N   UNL     1       0.642 -17.928   6.622  0.00  0.00    -0.285 N 
ATOM     34  C   UNL     1       1.392 -18.098   7.869  0.00  0.00    +0.134 C 
ATOM     35  H   UNL     1       1.253 -15.720   7.693  0.00  0.00    +0.156 HD
BRANCH  33  36
ATOM     36  C   UNL     1       0.235 -19.102   5.845  0.00  0.00    +0.077 C 
ATOM     37  C   UNL     1      -0.669 -19.991   6.701  0.00  0.00    +0.022 C 
ATOM     38  C   UNL     1      -1.094 -21.217   5.890  0.00  0.00    +0.002 C 
ATOM     39  C   UNL     1       0.148 -22.006   5.470  0.00  0.00    +0.000 C 
ATOM     40  C   UNL     1       1.052 -21.116   4.614  0.00  0.00    +0.002 C 
ATOM     41  C   UNL     1       1.476 -19.890   5.425  0.00  0.00    +0.022 C 
ENDBRANCH  33  36
ENDBRANCH  27  30
ENDBRANCH   8  24
BRANCH   9  42
ATOM     42  N   UNL     1      -3.116 -10.788   6.275  0.00  0.00    -0.343 N 
ATOM     43  H   UNL     1      -4.010 -10.463   6.469  0.00  0.00    +0.144 HD
ATOM     44  H   UNL     1      -2.851 -11.675   6.562  0.00  0.00    +0.144 HD
ENDBRANCH   9  42
TORSDOF 6
