REMARK  Name = CHEMBL131661
REMARK  7 active torsions:
REMARK  status: ('A' for Active; 'I' for Inactive)
REMARK    1  A    between atoms: C_1  and  C_2
REMARK    2  A    between atoms: C_4  and  C_26
REMARK    3  A    between atoms: C_5  and  N_9
REMARK    4  A    between atoms: C_6  and  C_8
REMARK    5  A    between atoms: C_10  and  C_12
REMARK    6  A    between atoms: C_13  and  C_25
REMARK    7  A    between atoms: C_18  and  C_20
REMARK                            x       y       z     vdW  Elec       q    Type
REMARK                         _______ _______ _______ _____ _____    ______ ____
ROOT
ATOM      1  C   UNL     1       0.397  -6.431   0.971  0.00  0.00    +0.098 A 
ATOM      2  C   UNL     1       0.765  -7.332   1.960  0.00  0.00    +0.060 A 
ATOM      3  N   UNL     1       0.716  -8.600   1.639  0.00  0.00    -0.229 NA
ATOM      4  C   UNL     1       0.336  -8.993   0.436  0.00  0.00    +0.166 A 
ATOM      5  S   UNL     1      -0.001  -7.550  -0.362  0.00  0.00    -0.047 S 
ATOM      6  N   UNL     1       0.234 -10.283  -0.049  0.00  0.00    -0.258 N 
ATOM      7  C   UNL     1      -0.175 -10.496  -1.316  0.00  0.00    +0.285 C 
ATOM      8  O   UNL     1      -0.454  -9.553  -2.032  0.00  0.00    -0.266 OA
ATOM      9  C   UNL     1       1.197  -6.876   3.330  0.00  0.00    +0.067 C 
ATOM     10  H   UNL     1       0.456 -11.035   0.521  0.00  0.00    +0.157 HD
ENDROOT
BRANCH   7  11
ATOM     11  C   UNL     1      -0.284 -11.864  -1.831  0.00  0.00    +0.189 A 
ATOM     12  C   UNL     1      -0.678 -12.220  -3.089  0.00  0.00    +0.054 A 
ATOM     13  C   UNL     1      -0.635 -13.621  -3.145  0.00  0.00    +0.042 A 
ATOM     14  C   UNL     1      -0.223 -14.055  -1.933  0.00  0.00    +0.196 A 
ATOM     15  O   UNL     1      -0.006 -12.993  -1.146  0.00  0.00    -0.458 OA
ENDBRANCH   7  11
BRANCH   1  17
ATOM     16  N   UNL     1      -0.052  -4.279  -0.077  0.00  0.00    -0.281 N 
ATOM     17  C   UNL     1       0.345  -4.969   1.011  0.00  0.00    +0.257 C 
ATOM     18  O   UNL     1       0.659  -4.376   2.026  0.00  0.00    -0.269 OA
ATOM     19  H   UNL     1      -0.371  -4.752  -0.862  0.00  0.00    +0.155 HD
BRANCH  16  24
ATOM     20  C   UNL     1       0.136   1.390  -0.065  0.00  0.00    +0.044 C 
ATOM     21  C   UNL     1       0.086  -0.116  -0.068  0.00  0.00    -0.050 A 
ATOM     22  C   UNL     1       0.758  -0.827  -1.046  0.00  0.00    +0.008 A 
ATOM     23  C   UNL     1       0.714  -2.207  -1.051  0.00  0.00    -0.029 A 
ATOM     24  C   UNL     1      -0.006  -2.881  -0.074  0.00  0.00    +0.040 A 
ATOM     25  C   UNL     1      -0.679  -2.165   0.907  0.00  0.00    -0.029 A 
ATOM     26  C   UNL     1      -0.627  -0.785   0.910  0.00  0.00    +0.008 A 
ATOM     27  C   UNL     1      -1.462  -2.893   1.970  0.00  0.00    +0.045 C 
ATOM     28  C   UNL     1       1.446  -2.981  -2.118  0.00  0.00    +0.045 C 
ENDBRANCH  16  24
ENDBRANCH   1  17
TORSDOF 3
