REMARK  Name = CHEMBL1085733
REMARK  8 active torsions:
REMARK  status: ('A' for Active; 'I' for Inactive)
REMARK    1  A    between atoms: C_1  and  N_2
REMARK    2  A    between atoms: N_5  and  C_8
REMARK    3  A    between atoms: C_11  and  C_14
REMARK    4  A    between atoms: C_21  and  C_24
REMARK    5  A    between atoms: C_22  and  N_23
REMARK    6  A    between atoms: C_27  and  N_30
REMARK    7  A    between atoms: C_31  and  C_33
REMARK    8  A    between atoms: C_36  and  C_39
REMARK                            x       y       z     vdW  Elec       q    Type
REMARK                         _______ _______ _______ _____ _____    ______ ____
ROOT
ATOM      1  C   UNL     1      -2.324  -6.715   4.318  0.00  0.00    +0.046 A 
ATOM      2  C   UNL     1      -3.506  -6.706   5.067  0.00  0.00    +0.145 A 
ATOM      3  N   UNL     1      -3.607  -7.841   5.713  0.00  0.00    -0.171 NA
ATOM      4  N   UNL     1      -2.498  -8.640   5.415  0.00  0.00    -0.200 N 
ATOM      5  C   UNL     1      -1.699  -7.947   4.544  0.00  0.00    +0.165 A 
ATOM      6  N   UNL     1      -0.561  -8.477   4.081  0.00  0.00    -0.235 NA
ATOM      7  C   UNL     1      -0.170  -9.679   4.441  0.00  0.00    +0.125 A 
ATOM      8  C   UNL     1      -0.950 -10.439   5.329  0.00  0.00    +0.040 A 
ATOM      9  C   UNL     1      -2.130  -9.895   5.824  0.00  0.00    +0.129 A 
ENDROOT
BRANCH   1  13
ATOM     10  C   UNL     1      -0.901  -3.586   1.812  0.00  0.00    +0.030 A 
ATOM     11  C   UNL     1      -2.212  -4.032   1.689  0.00  0.00    +0.024 A 
ATOM     12  C   UNL     1      -2.675  -5.047   2.500  0.00  0.00    +0.010 A 
ATOM     13  C   UNL     1      -1.828  -5.625   3.445  0.00  0.00    -0.013 A 
ATOM     14  C   UNL     1      -0.513  -5.175   3.567  0.00  0.00    +0.010 A 
ATOM     15  C   UNL     1      -0.053  -4.164   2.749  0.00  0.00    +0.024 A 
BRANCH  10  20
ATOM     16  C   UNL     1       0.073   1.489   0.056  0.00  0.00    -0.096 C 
ATOM     17  N   UNL     1       0.090   0.020   0.046  0.00  0.00    +0.380 N 
ATOM     18  C   UNL     1      -1.289  -0.483   0.038  0.00  0.00    -0.060 C 
ATOM     19  C   UNL     1      -1.274  -2.010  -0.088  0.00  0.00    +0.086 C 
ATOM     20  N   UNL     1      -0.434  -2.558   0.988  0.00  0.00    -0.333 N 
ATOM     21  C   UNL     1       0.912  -1.994   1.173  0.00  0.00    +0.086 C 
ATOM     22  C   UNL     1       0.793  -0.467   1.239  0.00  0.00    -0.060 C 
ATOM     23  H   UNL     1       0.569  -0.304  -0.781  0.00  0.00    -0.082 HD
ENDBRANCH  10  20
ENDBRANCH   1  13
BRANCH   8  24
ATOM     24  C   UNL     1      -0.516 -11.796   5.740  0.00  0.00    -0.013 A 
ATOM     25  C   UNL     1      -0.189 -12.051   7.072  0.00  0.00    +0.010 A 
ATOM     26  C   UNL     1       0.214 -13.314   7.452  0.00  0.00    +0.024 A 
ATOM     27  C   UNL     1       0.295 -14.332   6.509  0.00  0.00    +0.034 A 
ATOM     28  C   UNL     1      -0.030 -14.080   5.181  0.00  0.00    +0.024 A 
ATOM     29  C   UNL     1      -0.439 -12.820   4.797  0.00  0.00    +0.010 A 
BRANCH  27  30
ATOM     30  N   UNL     1       0.704 -15.612   6.897  0.00  0.00    -0.282 N 
ATOM     31  C   UNL     1       0.365 -16.088   8.111  0.00  0.00    +0.248 C 
ATOM     32  O   UNL     1      -0.377 -15.448   8.830  0.00  0.00    -0.270 OA
ATOM     33  H   UNL     1       1.232 -16.157   6.292  0.00  0.00    +0.155 HD
BRANCH  31  34
ATOM     34  C   UNL     1       0.897 -17.390   8.569  0.00  0.00    +0.037 A 
ATOM     35  C   UNL     1       1.754 -18.125   7.748  0.00  0.00    +0.013 A 
ATOM     36  C   UNL     1       2.246 -19.339   8.181  0.00  0.00    +0.013 A 
ATOM     37  C   UNL     1       1.891 -19.828   9.425  0.00  0.00    +0.055 A 
ATOM     38  C   UNL     1       1.042 -19.105  10.244  0.00  0.00    +0.013 A 
ATOM     39  C   UNL     1       0.548 -17.886   9.826  0.00  0.00    +0.013 A 
BRANCH  37  40
ATOM     40  C   UNL     1       2.432 -21.155   9.892  0.00  0.00    +0.417 C 
ATOM     41  F   UNL     1       3.638 -20.954  10.572  0.00  0.00    -0.166 F 
ATOM     42  F   UNL     1       1.508 -21.760  10.750  0.00  0.00    -0.166 F 
ATOM     43  F   UNL     1       2.654 -21.983   8.786  0.00  0.00    -0.166 F 
ENDBRANCH  37  40
ENDBRANCH  31  34
ENDBRANCH  27  30
ENDBRANCH   8  24
BRANCH   9  44
ATOM     44  N   UNL     1      -2.922 -10.609   6.693  0.00  0.00    -0.343 N 
ATOM     45  H   UNL     1      -3.749 -10.225   7.023  0.00  0.00    +0.144 HD
ATOM     46  H   UNL     1      -2.652 -11.497   6.976  0.00  0.00    +0.144 HD
ENDBRANCH   9  44
TORSDOF 7
