REMARK  Name = CHEMBL596079
REMARK  8 active torsions:
REMARK  status: ('A' for Active; 'I' for Inactive)
REMARK    1  A    between atoms: C_4  and  O_7
REMARK    2  A    between atoms: O_7  and  C_8
REMARK    3  A    between atoms: C_11  and  C_14
REMARK    4  A    between atoms: C_15  and  C_37
REMARK    5  A    between atoms: C_23  and  O_28
REMARK    6  A    between atoms: O_28  and  C_29
REMARK    7  A    between atoms: C_29  and  C_30
REMARK    8  A    between atoms: C_30  and  N_31
REMARK                            x       y       z     vdW  Elec       q    Type
REMARK                         _______ _______ _______ _____ _____    ______ ____
ROOT
ATOM      1  C   UNL     1       3.087  -6.213   1.663  0.00  0.00    +0.107 A 
ATOM      2  C   UNL     1       4.126  -6.878   0.860  0.00  0.00    +0.104 A 
ATOM      3  C   UNL     1       3.877  -8.233   0.991  0.00  0.00    +0.134 A 
ATOM      4  N   UNL     1       2.835  -8.406   1.783  0.00  0.00    -0.249 N 
ATOM      5  N   UNL     1       2.344  -7.160   2.193  0.00  0.00    -0.169 NA
ATOM      6  C   UNL     1       2.313  -9.720   2.174  0.00  0.00    +0.150 C 
ATOM      7  C   UNL     1       3.296 -10.460   3.054  0.00  0.00    +0.060 C 
ATOM      8  C   UNL     1       4.625 -10.760   2.395  0.00  0.00    -0.021 A 
ATOM      9  C   UNL     1       5.386 -11.692   3.116  0.00  0.00    +0.051 A 
ATOM     10  C   UNL     1       6.624 -12.112   2.683  0.00  0.00    +0.121 A 
ATOM     11  C   UNL     1       7.150 -11.613   1.500  0.00  0.00    +0.047 A 
ATOM     12  C   UNL     1       6.418 -10.695   0.782  0.00  0.00    +0.027 A 
ATOM     13  C   UNL     1       5.165 -10.265   1.230  0.00  0.00    +0.036 A 
ATOM     14  N   UNL     1       4.534  -9.307   0.431  0.00  0.00    -0.299 N 
ATOM     15  H   UNL     1       4.560  -9.399  -0.534  0.00  0.00    +0.154 HD
ENDROOT
BRANCH   1  19
ATOM     16  C   UNL     1       2.595  -2.022   2.191  0.00  0.00    +0.128 A 
ATOM     17  C   UNL     1       1.481  -2.849   2.138  0.00  0.00    +0.047 A 
ATOM     18  C   UNL     1       1.637  -4.208   1.967  0.00  0.00    +0.014 A 
ATOM     19  C   UNL     1       2.916  -4.752   1.847  0.00  0.00    +0.003 A 
ATOM     20  C   UNL     1       4.033  -3.918   1.900  0.00  0.00    +0.014 A 
ATOM     21  C   UNL     1       3.869  -2.559   2.066  0.00  0.00    +0.047 A 
BRANCH  16  22
ATOM     22  O   UNL     1       2.438  -0.683   2.361  0.00  0.00    -0.456 OA
BRANCH  22  26
ATOM     23  C   UNL     1       1.885   0.733   6.196  0.00  0.00    +0.000 A 
ATOM     24  C   UNL     1       2.158  -0.606   5.987  0.00  0.00    +0.004 A 
ATOM     25  C   UNL     1       2.343  -1.083   4.704  0.00  0.00    +0.046 A 
ATOM     26  C   UNL     1       2.256  -0.216   3.624  0.00  0.00    +0.128 A 
ATOM     27  C   UNL     1       1.982   1.127   3.836  0.00  0.00    +0.046 A 
ATOM     28  C   UNL     1       1.798   1.599   5.121  0.00  0.00    +0.004 A 
ENDBRANCH  22  26
ENDBRANCH  16  22
ENDBRANCH   1  19
BRANCH   2  29
ATOM     29  C   UNL     1       5.195  -6.240   0.085  0.00  0.00    +0.247 C 
ATOM     30  O   UNL     1       6.270  -6.010   0.606  0.00  0.00    -0.270 OA
ATOM     31  N   UNL     1       4.987  -5.910  -1.205  0.00  0.00    -0.325 N 
ATOM     32  H   UNL     1       4.130  -6.093  -1.621  0.00  0.00    +0.145 HD
ATOM     33  H   UNL     1       5.694  -5.488  -1.718  0.00  0.00    +0.145 HD
ENDBRANCH   2  29
BRANCH  10  34
ATOM     34  O   UNL     1       7.331 -13.016   3.413  0.00  0.00    -0.491 OA
BRANCH  34  35
ATOM     35  C   UNL     1       8.607 -13.407   2.903  0.00  0.00    +0.244 C 
BRANCH  35  36
ATOM     36  C   UNL     1       9.247 -14.421   3.853  0.00  0.00    +0.125 C 
BRANCH  36  37
ATOM     37  N   UNL     1       8.430 -15.641   3.890  0.00  0.00    -0.295 NA
ATOM     38  C   UNL     1       8.735 -16.444   5.083  0.00  0.00    +0.112 C 
ATOM     39  C   UNL     1       7.821 -17.672   5.112  0.00  0.00    +0.175 C 
ATOM     40  O   UNL     1       7.990 -18.415   3.901  0.00  0.00    -0.377 OA
ATOM     41  C   UNL     1       7.700 -17.663   2.720  0.00  0.00    +0.175 C 
ATOM     42  C   UNL     1       8.613 -16.435   2.666  0.00  0.00    +0.112 C 
ENDBRANCH  36  37
ENDBRANCH  35  36
ENDBRANCH  34  35
ENDBRANCH  10  34
TORSDOF 8
