REMARK  Name = CHEMBL460702
REMARK  8 active torsions:
REMARK  status: ('A' for Active; 'I' for Inactive)
REMARK    1  A    between atoms: C_1  and  C_2
REMARK    2  A    between atoms: C_2  and  O_3
REMARK    3  A    between atoms: O_3  and  C_4
REMARK    4  A    between atoms: N_7  and  C_30
REMARK    5  A    between atoms: C_10  and  C_11
REMARK    6  A    between atoms: N_13  and  C_14
REMARK    7  A    between atoms: C_17  and  O_21
REMARK    8  A    between atoms: O_21  and  C_22
REMARK                            x       y       z     vdW  Elec       q    Type
REMARK                         _______ _______ _______ _____ _____    ______ ____
ROOT
ATOM      1  C   UNL     1      -0.368  -2.001  -0.769  0.00  0.00    +0.257 C 
ATOM      2  O   UNL     1      -1.525  -2.292  -1.007  0.00  0.00    -0.270 OA
ATOM      3  N   UNL     1       0.332  -1.252  -1.644  0.00  0.00    -0.281 N 
ATOM      4  H   UNL     1       1.272  -1.072  -1.485  0.00  0.00    +0.155 HD
ENDROOT
BRANCH   1  11
ATOM      5  C   UNL     1       0.196  -1.696   1.641  0.00  0.00    +0.139 A 
ATOM      6  C   UNL     1       0.811  -2.181   2.807  0.00  0.00    +0.064 A 
ATOM      7  C   UNL     1       1.462  -3.367   2.785  0.00  0.00    +0.098 A 
ATOM      8  N   UNL     1       1.536  -4.111   1.651  0.00  0.00    -0.283 N 
ATOM      9  C   UNL     1       0.965  -3.697   0.505  0.00  0.00    +0.271 A 
ATOM     10  O   UNL     1       1.045  -4.382  -0.500  0.00  0.00    -0.266 OA
ATOM     11  C   UNL     1       0.266  -2.466   0.470  0.00  0.00    +0.143 A 
BRANCH   8  12
ATOM     12  C   UNL     1       2.220  -5.333   1.675  0.00  0.00    +0.050 A 
ATOM     13  C   UNL     1       1.727  -6.392   2.426  0.00  0.00    +0.029 A 
ATOM     14  C   UNL     1       2.404  -7.596   2.448  0.00  0.00    +0.040 A 
ATOM     15  C   UNL     1       3.573  -7.748   1.722  0.00  0.00    +0.124 A 
ATOM     16  C   UNL     1       4.066  -6.693   0.972  0.00  0.00    +0.040 A 
ATOM     17  C   UNL     1       3.390  -5.490   0.943  0.00  0.00    +0.029 A 
ATOM     18  F   UNL     1       4.233  -8.926   1.745  0.00  0.00    -0.205 F 
ENDBRANCH   8  12
BRANCH   5  19
ATOM     19  O   UNL     1      -0.458  -0.513   1.649  0.00  0.00    -0.491 OA
BRANCH  19  21
ATOM     20  C   UNL     1      -1.833   1.207   0.654  0.00  0.00    +0.048 C 
ATOM     21  C   UNL     1      -1.111  -0.125   0.439  0.00  0.00    +0.226 C 
ENDBRANCH  19  21
ENDBRANCH   5  19
ENDBRANCH   1  11
BRANCH   3  22
ATOM     22  C   UNL     1      -0.298  -0.732  -2.781  0.00  0.00    +0.037 A 
ATOM     23  C   UNL     1      -1.669  -0.513  -2.776  0.00  0.00    +0.027 A 
ATOM     24  C   UNL     1      -2.291  -0.001  -3.898  0.00  0.00    +0.051 A 
ATOM     25  C   UNL     1      -1.547   0.296  -5.030  0.00  0.00    +0.164 A 
ATOM     26  C   UNL     1      -0.174   0.078  -5.036  0.00  0.00    +0.167 A 
ATOM     27  C   UNL     1       0.449  -0.430  -3.912  0.00  0.00    +0.065 A 
ATOM     28  F   UNL     1       0.551   0.366  -6.139  0.00  0.00    -0.202 F 
BRANCH  25  29
ATOM     29  O   UNL     1      -2.160   0.800  -6.134  0.00  0.00    -0.452 OA
BRANCH  29  30
ATOM     30  C   UNL     1      -3.478   1.105  -6.047  0.00  0.00    +0.152 A 
ATOM     31  C   UNL     1      -3.913   2.137  -5.188  0.00  0.00    +0.067 A 
ATOM     32  C   UNL     1      -5.223   2.441  -5.100  0.00  0.00    +0.117 A 
ATOM     33  N   UNL     1      -6.149   1.762  -5.836  0.00  0.00    -0.235 NA
ATOM     34  C   UNL     1      -5.761   0.751  -6.684  0.00  0.00    +0.168 A 
ATOM     35  C   UNL     1      -4.394   0.419  -6.795  0.00  0.00    +0.127 A 
ATOM     36 CL   UNL     1      -3.883  -0.850  -7.864  0.00  0.00    -0.076 Cl
ATOM     37  N   UNL     1      -6.661   0.098  -7.393  0.00  0.00    -0.281 NA
ATOM     38  H   UNL     1      -6.385  -0.614  -7.990  0.00  0.00    +0.188 HD
ENDBRANCH  29  30
ENDBRANCH  25  29
ENDBRANCH   3  22
TORSDOF 7
