REMARK  Name = CHEMBL270692
REMARK  10 active torsions:
REMARK  status: ('A' for Active; 'I' for Inactive)
REMARK    1  A    between atoms: C_1  and  C_2
REMARK    2  A    between atoms: C_6  and  C_37
REMARK    3  A    between atoms: C_7  and  N_8
REMARK    4  A    between atoms: N_24  and  C_25
REMARK    5  A    between atoms: C_27  and  O_35
REMARK    6  A    between atoms: C_28  and  O_33
REMARK    7  A    between atoms: C_29  and  O_31
REMARK    8  A    between atoms: O_31  and  C_32
REMARK    9  A    between atoms: O_33  and  C_34
REMARK   10  A    between atoms: O_35  and  C_36
REMARK                            x       y       z     vdW  Elec       q    Type
REMARK                         _______ _______ _______ _____ _____    ______ ____
ROOT
ATOM      1  N   UNL     1       0.783  -1.137   2.985  0.00  0.00    -0.286 N 
ATOM      2  C   UNL     1       0.363  -1.996   3.980  0.00  0.00    +0.185 A 
ATOM      3  N   UNL     1       0.134  -3.275   3.822  0.00  0.00    -0.327 N 
ATOM      4  C   UNL     1      -0.264  -3.819   5.003  0.00  0.00    +0.066 A 
ATOM      5  C   UNL     1      -0.627  -5.112   5.388  0.00  0.00    +0.028 A 
ATOM      6  C   UNL     1      -0.993  -5.359   6.693  0.00  0.00    +0.002 A 
ATOM      7  C   UNL     1      -1.004  -4.334   7.627  0.00  0.00    +0.002 A 
ATOM      8  C   UNL     1      -0.648  -3.052   7.261  0.00  0.00    +0.028 A 
ATOM      9  C   UNL     1      -0.277  -2.785   5.953  0.00  0.00    +0.076 A 
ATOM     10  N   UNL     1       0.130  -1.640   5.282  0.00  0.00    -0.250 N 
ATOM     11  C   UNL     1       0.271  -0.371   5.828  0.00  0.00    +0.242 A 
ATOM     12  N   UNL     1       0.014  -0.168   7.117  0.00  0.00    -0.200 NA
ATOM     13  C   UNL     1       0.148   1.039   7.638  0.00  0.00    +0.228 A 
ATOM     14  N   UNL     1       0.537   2.050   6.881  0.00  0.00    -0.203 NA
ATOM     15  C   UNL     1       0.796   1.854   5.590  0.00  0.00    +0.224 A 
ATOM     16  N   UNL     1       0.667   0.640   5.065  0.00  0.00    -0.178 NA
ATOM     17  N   UNL     1       1.202   2.911   4.799  0.00  0.00    -0.283 N 
ATOM     18  H   UNL     1       0.858  -0.187   3.165  0.00  0.00    +0.155 HD
ATOM     19  H   UNL     1       1.311   2.787   3.843  0.00  0.00    +0.155 HD
ATOM     20  H   UNL     1       0.234  -3.762   2.989  0.00  0.00    +0.169 HD
ENDROOT
BRANCH   1  27
ATOM     21  C   UNL     1       3.436  -2.061   2.531  0.00  0.00    +0.045 C 
ATOM     22  C   UNL     1       2.383  -2.098   1.453  0.00  0.00    -0.029 A 
ATOM     23  C   UNL     1       2.691  -2.595   0.202  0.00  0.00    +0.005 A 
ATOM     24  C   UNL     1       1.726  -2.629  -0.787  0.00  0.00    +0.001 A 
ATOM     25  C   UNL     1       0.449  -2.165  -0.528  0.00  0.00    +0.005 A 
ATOM     26  C   UNL     1       0.134  -1.666   0.720  0.00  0.00    -0.029 A 
ATOM     27  C   UNL     1       1.100  -1.636   1.718  0.00  0.00    +0.039 A 
ATOM     28  C   UNL     1      -1.257  -1.160   1.002  0.00  0.00    +0.045 C 
ENDBRANCH   1  27
BRANCH  17  29
ATOM     29  C   UNL     1       1.457   4.161   5.377  0.00  0.00    +0.041 A 
ATOM     30  C   UNL     1       1.969   4.238   6.665  0.00  0.00    +0.073 A 
ATOM     31  C   UNL     1       2.221   5.475   7.237  0.00  0.00    +0.167 A 
ATOM     32  C   UNL     1       1.962   6.638   6.521  0.00  0.00    +0.204 A 
ATOM     33  C   UNL     1       1.450   6.559   5.231  0.00  0.00    +0.167 A 
ATOM     34  C   UNL     1       1.202   5.321   4.659  0.00  0.00    +0.073 A 
BRANCH  33  35
ATOM     35  O   UNL     1       1.196   7.696   4.530  0.00  0.00    -0.491 OA
ATOM     36  C   UNL     1       0.670   7.540   3.211  0.00  0.00    +0.277 C 
ENDBRANCH  33  35
BRANCH  32  37
ATOM     37  O   UNL     1       2.209   7.853   7.083  0.00  0.00    -0.488 OA
ATOM     38  C   UNL     1       3.511   8.408   6.882  0.00  0.00    +0.277 C 
ENDBRANCH  32  37
BRANCH  31  39
ATOM     39  O   UNL     1       2.722   5.551   8.499  0.00  0.00    -0.491 OA
ATOM     40  C   UNL     1       2.965   4.316   9.176  0.00  0.00    +0.277 C 
ENDBRANCH  31  39
ENDBRANCH  17  29
TORSDOF 5
