REMARK  Name = CHEMBL69638
REMARK  5 active torsions:
REMARK  status: ('A' for Active; 'I' for Inactive)
REMARK    1  A    between atoms: C_4  and  O_7
REMARK    2  A    between atoms: O_7  and  C_8
REMARK    3  A    between atoms: C_12  and  C_14
REMARK    4  A    between atoms: N_16  and  C_24
REMARK    5  A    between atoms: C_19  and  N_23
REMARK                            x       y       z     vdW  Elec       q    Type
REMARK                         _______ _______ _______ _____ _____    ______ ____
ROOT
ATOM      1  C   UNL     1       6.277  -4.685   0.143  0.00  0.00    +0.012 A 
ATOM      2  C   UNL     1       7.353  -4.445  -0.646  0.00  0.00    +0.097 A 
ATOM      3  N   UNL     1       8.383  -5.269  -0.281  0.00  0.00    -0.328 N 
ATOM      4  C   UNL     1       8.003  -6.071   0.761  0.00  0.00    +0.147 A 
ATOM      5  C   UNL     1       6.674  -5.743   1.081  0.00  0.00    +0.066 A 
ATOM      6  C   UNL     1       6.045  -6.426   2.130  0.00  0.00    +0.129 A 
ATOM      7  N   UNL     1       6.737  -7.356   2.782  0.00  0.00    -0.220 NA
ATOM      8  C   UNL     1       7.985  -7.632   2.452  0.00  0.00    +0.225 A 
ATOM      9  N   UNL     1       8.611  -7.021   1.469  0.00  0.00    -0.218 NA
ENDROOT
BRANCH   1  14
ATOM     10  C   UNL     1       3.657  -1.988  -0.011  0.00  0.00    +0.129 A 
ATOM     11  C   UNL     1       2.494  -2.746  -0.046  0.00  0.00    +0.046 A 
ATOM     12  C   UNL     1       2.562  -4.126  -0.020  0.00  0.00    +0.004 A 
ATOM     13  C   UNL     1       3.787  -4.760   0.042  0.00  0.00    +0.009 A 
ATOM     14  C   UNL     1       4.960  -4.007   0.077  0.00  0.00    -0.012 A 
ATOM     15  C   UNL     1       4.891  -2.616   0.044  0.00  0.00    +0.054 A 
BRANCH  10  16
ATOM     16  O   UNL     1       3.586  -0.632  -0.037  0.00  0.00    -0.456 OA
BRANCH  16  20
ATOM     17  C   UNL     1       3.334   1.363   3.565  0.00  0.00    +0.000 A 
ATOM     18  C   UNL     1       3.416  -0.017   3.545  0.00  0.00    +0.004 A 
ATOM     19  C   UNL     1       3.500  -0.687   2.340  0.00  0.00    +0.046 A 
ATOM     20  C   UNL     1       3.502   0.025   1.149  0.00  0.00    +0.128 A 
ATOM     21  C   UNL     1       3.420   1.410   1.173  0.00  0.00    +0.046 A 
ATOM     22  C   UNL     1       3.336   2.076   2.380  0.00  0.00    +0.004 A 
ENDBRANCH  16  20
ENDBRANCH  10  16
ENDBRANCH   1  14
BRANCH   3  23
ATOM     23  C   UNL     1       9.703  -5.290  -0.916  0.00  0.00    +0.089 C 
ATOM     24  C   UNL     1      10.344  -3.888  -0.847  0.00  0.00    +0.025 C 
ATOM     25  C   UNL     1      11.091  -3.746  -2.197  0.00  0.00    +0.002 C 
ATOM     26  C   UNL     1      10.127  -4.435  -3.195  0.00  0.00    +0.002 C 
ATOM     27  C   UNL     1       9.565  -5.637  -2.408  0.00  0.00    +0.025 C 
ENDBRANCH   3  23
BRANCH   6  28
ATOM     28  N   UNL     1       4.737  -6.139   2.479  0.00  0.00    -0.343 N 
ATOM     29  H   UNL     1       4.244  -5.458   1.996  0.00  0.00    +0.144 HD
ATOM     30  H   UNL     1       4.314  -6.620   3.208  0.00  0.00    +0.144 HD
ENDBRANCH   6  28
TORSDOF 5
