REMARK  Name = CHEMBL187697
REMARK  7 active torsions:
REMARK  status: ('A' for Active; 'I' for Inactive)
REMARK    1  A    between atoms: C_1  and  C_2
REMARK    2  A    between atoms: C_7  and  N_8
REMARK    3  A    between atoms: C_9  and  C_11
REMARK    4  A    between atoms: C_19  and  N_23
REMARK    5  A    between atoms: N_23  and  C_24
REMARK    6  A    between atoms: C_24  and  C_25
REMARK    7  A    between atoms: C_25  and  N_26
REMARK                            x       y       z     vdW  Elec       q    Type
REMARK                         _______ _______ _______ _____ _____    ______ ____
ROOT
ATOM      1  C   UNL     1       1.096   6.229   6.068  0.00  0.00    +0.095 A 
ATOM      2  C   UNL     1       1.049   6.220   7.455  0.00  0.00    +0.133 A 
ATOM      3  N   UNL     1       0.833   5.061   8.022  0.00  0.00    -0.232 NA
ATOM      4  C   UNL     1       0.669   3.962   7.306  0.00  0.00    +0.164 A 
ATOM      5  S   UNL     1       0.805   4.502   5.718  0.00  0.00    -0.047 S 
ATOM      6  N   UNL     1       0.435   2.677   7.754  0.00  0.00    -0.279 N 
ATOM      7  C   UNL     1       0.238   2.439   9.108  0.00  0.00    +0.129 A 
ATOM      8  C   UNL     1      -0.109   1.169   9.559  0.00  0.00    +0.087 A 
ATOM      9  C   UNL     1      -0.295   0.983  10.925  0.00  0.00    +0.124 A 
ATOM     10  N   UNL     1      -0.135   2.018  11.746  0.00  0.00    -0.221 NA
ATOM     11  C   UNL     1       0.194   3.206  11.281  0.00  0.00    +0.225 A 
ATOM     12  N   UNL     1       0.384   3.422   9.995  0.00  0.00    -0.220 NA
ATOM     13  H   UNL     1       0.408   1.941   7.124  0.00  0.00    +0.155 HD
ENDROOT
BRANCH   1  15
ATOM     14  N   UNL     1       1.317   7.130   3.817  0.00  0.00    -0.280 N 
ATOM     15  C   UNL     1       1.316   7.344   5.148  0.00  0.00    +0.256 C 
ATOM     16  O   UNL     1       1.498   8.466   5.584  0.00  0.00    -0.269 OA
ATOM     17  H   UNL     1       1.092   6.254   3.467  0.00  0.00    +0.155 HD
BRANCH  14  24
ATOM     18  C   UNL     1       3.335   6.665   1.866  0.00  0.00    +0.046 C 
ATOM     19  C   UNL     1       2.620   7.987   1.974  0.00  0.00    -0.028 A 
ATOM     20  C   UNL     1       2.934   9.015   1.106  0.00  0.00    +0.005 A 
ATOM     21  C   UNL     1       2.279  10.229   1.203  0.00  0.00    +0.002 A 
ATOM     22  C   UNL     1       1.307  10.418   2.169  0.00  0.00    +0.022 A 
ATOM     23  C   UNL     1       0.989   9.395   3.041  0.00  0.00    +0.062 A 
ATOM     24  C   UNL     1       1.641   8.171   2.941  0.00  0.00    +0.055 A 
ATOM     25 CL   UNL     1      -0.231   9.633   4.253  0.00  0.00    -0.082 Cl
ENDBRANCH  14  24
ENDBRANCH   1  15
BRANCH   9  26
ATOM     26  N   UNL     1      -0.642  -0.263  11.424  0.00  0.00    -0.328 N 
ATOM     27  H   UNL     1      -0.770  -0.386  12.377  0.00  0.00    +0.147 HD
BRANCH  26  28
ATOM     28  C   UNL     1      -0.816  -1.396  10.510  0.00  0.00    +0.118 C 
BRANCH  28  29
ATOM     29  C   UNL     1      -1.195  -2.643  11.311  0.00  0.00    +0.103 C 
BRANCH  29  30
ATOM     30  N   UNL     1      -1.369  -3.779  10.395  0.00  0.00    -0.297 NA
ATOM     31  C   UNL     1      -2.527  -3.571   9.513  0.00  0.00    +0.112 C 
ATOM     32  C   UNL     1      -2.636  -4.747   8.538  0.00  0.00    +0.175 C 
ATOM     33  O   UNL     1      -2.730  -5.967   9.278  0.00  0.00    -0.377 OA
ATOM     34  C   UNL     1      -1.618  -6.200  10.147  0.00  0.00    +0.175 C 
ATOM     35  C   UNL     1      -1.499  -5.040  11.138  0.00  0.00    +0.112 C 
ENDBRANCH  29  30
ENDBRANCH  28  29
ENDBRANCH  26  28
ENDBRANCH   9  26
TORSDOF 6
