REMARK  Name = CHEMBL426438
REMARK  4 active torsions:
REMARK  status: ('A' for Active; 'I' for Inactive)
REMARK    1  A    between atoms: C_1  and  C_2
REMARK    2  A    between atoms: C_7  and  N_8
REMARK    3  A    between atoms: C_17  and  C_18
REMARK    4  A    between atoms: N_19  and  C_22
REMARK                            x       y       z     vdW  Elec       q    Type
REMARK                         _______ _______ _______ _____ _____    ______ ____
ROOT
ATOM      1  N   UNL     1       0.238   0.227   2.474  0.00  0.00    -0.229 NA
ATOM      2  C   UNL     1      -0.923   0.482   3.038  0.00  0.00    +0.146 C 
ATOM      3  N   UNL     1      -2.154   0.053   2.482  0.00  0.00    -0.303 N 
ATOM      4  C   UNL     1      -3.173  -0.181   3.478  0.00  0.00    +0.233 C 
ATOM      5  C   UNL     1      -3.496   1.176   4.180  0.00  0.00    +0.220 C 
ATOM      6  N   UNL     1      -2.288   1.555   4.867  0.00  0.00    -0.302 N 
ATOM      7  C   UNL     1      -1.046   1.232   4.304  0.00  0.00    +0.103 A 
ATOM      8  C   UNL     1      -0.107   1.733   5.132  0.00  0.00    +0.142 A 
ATOM      9  N   UNL     1      -0.739   2.307   6.165  0.00  0.00    -0.240 NA
ATOM     10  C   UNL     1      -2.038   2.201   6.004  0.00  0.00    +0.109 A 
ATOM     11  C   UNL     1      -3.081   2.714   6.964  0.00  0.00    +0.086 C 
ATOM     12  N   UNL     1      -4.670   0.727   4.923  0.00  0.00    -0.301 N 
ATOM     13  C   UNL     1      -5.325  -0.094   4.010  0.00  0.00    +0.182 C 
ATOM     14  N   UNL     1      -4.504  -0.632   3.141  0.00  0.00    -0.250 NA
ATOM     15  C   UNL     1      -5.061   1.058   6.296  0.00  0.00    +0.132 C 
ATOM     16  H   UNL     1      -2.297  -0.071   1.531  0.00  0.00    +0.150 HD
ENDROOT
BRANCH   1  23
ATOM     17  C   UNL     1       0.131   1.705   0.049  0.00  0.00    +0.046 C 
ATOM     18  C   UNL     1       0.239   0.202   0.078  0.00  0.00    -0.024 A 
ATOM     19  C   UNL     1       0.297  -0.510  -1.102  0.00  0.00    +0.005 A 
ATOM     20  C   UNL     1       0.397  -1.890  -1.078  0.00  0.00    +0.002 A 
ATOM     21  C   UNL     1       0.440  -2.566   0.129  0.00  0.00    +0.022 A 
ATOM     22  C   UNL     1       0.384  -1.867   1.318  0.00  0.00    +0.067 A 
ATOM     23  C   UNL     1       0.288  -0.472   1.300  0.00  0.00    +0.087 A 
ATOM     24 CL   UNL     1       0.439  -2.717   2.830  0.00  0.00    -0.081 Cl
ENDBRANCH   1  23
TORSDOF 1
