REMARK  Name = CHEMBL248081
REMARK  6 active torsions:
REMARK  status: ('A' for Active; 'I' for Inactive)
REMARK    1  A    between atoms: C_4  and  C_7
REMARK    2  A    between atoms: C_15  and  C_16
REMARK    3  A    between atoms: C_19  and  C_22
REMARK    4  A    between atoms: N_30  and  C_31
REMARK    5  A    between atoms: C_31  and  C_32
REMARK    6  A    between atoms: C_32  and  N_33
REMARK                            x       y       z     vdW  Elec       q    Type
REMARK                         _______ _______ _______ _____ _____    ______ ____
ROOT
ATOM      1  C   UNL     1       3.865  -0.622  -0.097  0.00  0.00    +0.041 A 
ATOM      2  C   UNL     1       4.335  -1.609  -1.075  0.00  0.00    +0.088 A 
ATOM      3  C   UNL     1       3.886  -2.067  -2.322  0.00  0.00    +0.134 A 
ATOM      4  N   UNL     1       4.595  -3.007  -2.941  0.00  0.00    -0.220 NA
ATOM      5  C   UNL     1       5.694  -3.497  -2.396  0.00  0.00    +0.227 A 
ATOM      6  N   UNL     1       6.150  -3.095  -1.229  0.00  0.00    -0.200 NA
ATOM      7  C   UNL     1       5.510  -2.158  -0.533  0.00  0.00    +0.233 A 
ATOM      8  O   UNL     1       5.730  -1.565   0.652  0.00  0.00    -0.436 OA
ATOM      9  C   UNL     1       4.776  -0.652   0.926  0.00  0.00    +0.146 A 
ATOM     10  N   UNL     1       2.735  -1.556  -2.892  0.00  0.00    -0.327 N 
ATOM     11  H   UNL     1       2.228  -0.871  -2.430  0.00  0.00    +0.148 HD
ENDROOT
BRANCH   1  15
ATOM     12  C   UNL     1       0.410   1.834  -0.386  0.00  0.00    +0.000 A 
ATOM     13  C   UNL     1       1.668   2.408  -0.426  0.00  0.00    +0.001 A 
ATOM     14  C   UNL     1       2.794   1.616  -0.333  0.00  0.00    +0.008 A 
ATOM     15  C   UNL     1       2.662   0.234  -0.197  0.00  0.00    -0.014 A 
ATOM     16  C   UNL     1       1.390  -0.339  -0.157  0.00  0.00    +0.008 A 
ATOM     17  C   UNL     1       0.272   0.464  -0.252  0.00  0.00    +0.001 A 
ENDBRANCH   1  15
BRANCH   9  18
ATOM     18  C   UNL     1       4.720   0.181   2.140  0.00  0.00    +0.018 A 
ATOM     19  C   UNL     1       3.521   0.299   2.853  0.00  0.00    +0.012 A 
ATOM     20  C   UNL     1       3.470   1.071   3.978  0.00  0.00    +0.014 A 
ATOM     21  C   UNL     1       4.614   1.745   4.417  0.00  0.00    +0.037 A 
ATOM     22  C   UNL     1       5.811   1.628   3.704  0.00  0.00    +0.014 A 
ATOM     23  C   UNL     1       5.866   0.851   2.583  0.00  0.00    +0.012 A 
BRANCH  21  24
ATOM     24  C   UNL     1       4.557   2.580   5.632  0.00  0.00    +0.247 C 
ATOM     25  O   UNL     1       4.010   2.160   6.633  0.00  0.00    -0.270 OA
ATOM     26  N   UNL     1       5.113   3.808   5.632  0.00  0.00    -0.298 N 
ATOM     27  C   UNL     1       5.846   4.298   4.457  0.00  0.00    +0.108 C 
ATOM     28  C   UNL     1       5.261   5.651   4.039  0.00  0.00    +0.019 C 
ATOM     29  C   UNL     1       5.284   6.604   5.237  0.00  0.00    +0.003 C 
ATOM     30  C   UNL     1       4.420   6.031   6.363  0.00  0.00    +0.019 C 
ATOM     31  C   UNL     1       4.990   4.685   6.805  0.00  0.00    +0.108 C 
ENDBRANCH  21  24
ENDBRANCH   9  18
BRANCH  10  32
ATOM     32  C   UNL     1       2.283  -2.048  -4.196  0.00  0.00    +0.118 C 
BRANCH  32  33
ATOM     33  C   UNL     1       0.996  -1.323  -4.596  0.00  0.00    +0.103 C 
BRANCH  33  34
ATOM     34  N   UNL     1       0.542  -1.817  -5.903  0.00  0.00    -0.304 NA
ATOM     35  C   UNL     1       0.132  -3.226  -5.821  0.00  0.00    +0.065 C 
ATOM     36  C   UNL     1      -0.276  -3.718  -7.211  0.00  0.00    -0.067 C 
ATOM     37  N   UNL     1      -1.384  -2.896  -7.715  0.00  0.00    +0.381 N 
ATOM     38  C   UNL     1      -0.952  -1.496  -7.815  0.00  0.00    -0.067 C 
ATOM     39  C   UNL     1      -0.549  -0.986  -6.430  0.00  0.00    +0.065 C 
ATOM     40  H   UNL     1      -1.661  -3.228  -8.627  0.00  0.00    -0.086 HD
ATOM     41  H   UNL     1      -2.167  -2.962  -7.082  0.00  0.00    -0.086 HD
ENDBRANCH  33  34
ENDBRANCH  32  33
ENDBRANCH  10  32
TORSDOF 6
