REMARK  Name = CHEMBL443240
REMARK  4 active torsions:
REMARK  status: ('A' for Active; 'I' for Inactive)
REMARK    1  A    between atoms: C_3  and  C_25
REMARK    2  A    between atoms: C_5  and  N_7
REMARK    3  A    between atoms: C_12  and  N_14
REMARK    4  A    between atoms: N_14  and  C_15
REMARK                            x       y       z     vdW  Elec       q    Type
REMARK                         _______ _______ _______ _____ _____    ______ ____
ROOT
ATOM      1  N   UNL     1       1.212  -2.059   0.278  0.00  0.00    -0.284 N 
ATOM      2  C   UNL     1       0.027  -2.774   0.330  0.00  0.00    +0.221 A 
ATOM      3  N   UNL     1      -1.123  -2.117   0.371  0.00  0.00    -0.223 NA
ATOM      4  C   UNL     1      -2.277  -2.766   0.421  0.00  0.00    +0.118 A 
ATOM      5  C   UNL     1      -2.275  -4.147   0.431  0.00  0.00    +0.063 A 
ATOM      6  C   UNL     1      -1.048  -4.812   0.388  0.00  0.00    +0.128 A 
ATOM      7  N   UNL     1       0.071  -4.098   0.333  0.00  0.00    -0.199 NA
ATOM      8  H   UNL     1       2.055  -2.525   0.166  0.00  0.00    +0.155 HD
ENDROOT
BRANCH   1  13
ATOM      9  C   UNL     1       2.110   1.477  -0.205  0.00  0.00    +0.003 A 
ATOM     10  C   UNL     1       1.170   2.105   0.587  0.00  0.00    +0.013 A 
ATOM     11  C   UNL     1       0.229   1.347   1.287  0.00  0.00    +0.038 A 
ATOM     12  C   UNL     1       0.244  -0.044   1.183  0.00  0.00    +0.036 A 
ATOM     13  C   UNL     1       1.192  -0.664   0.385  0.00  0.00    +0.034 A 
ATOM     14  C   UNL     1       2.125   0.099  -0.308  0.00  0.00    +0.023 A 
BRANCH  11  15
ATOM     15  C   UNL     1      -0.779   2.017   2.136  0.00  0.00    +0.242 C 
ATOM     16  O   UNL     1      -1.597   1.355   2.745  0.00  0.00    -0.270 OA
ATOM     17  N   UNL     1      -0.791   3.361   2.235  0.00  0.00    -0.325 N 
ATOM     18  H   UNL     1      -0.138   3.889   1.749  0.00  0.00    +0.145 HD
ATOM     19  H   UNL     1      -1.452   3.800   2.792  0.00  0.00    +0.145 HD
ENDBRANCH  11  15
ENDBRANCH   1  13
BRANCH   6  20
ATOM     20  N   UNL     1      -0.999  -6.198   0.396  0.00  0.00    -0.298 N 
ATOM     21  H   UNL     1      -1.818  -6.713   0.337  0.00  0.00    +0.154 HD
BRANCH  20  22
ATOM     22  C   UNL     1       0.230  -6.851   0.488  0.00  0.00    +0.062 A 
ATOM     23  C   UNL     1       1.323  -6.197   0.983  0.00  0.00    +0.025 A 
ATOM     24  C   UNL     1       2.564  -6.823   1.087  0.00  0.00    +0.004 A 
ATOM     25  C   UNL     1       2.750  -8.114   0.704  0.00  0.00    +0.032 A 
ATOM     26  C   UNL     1       1.668  -8.848   0.185  0.00  0.00    +0.114 A 
ATOM     27  C   UNL     1       0.355  -8.196   0.078  0.00  0.00    +0.134 A 
ATOM     28  N   UNL     1      -0.442  -9.122  -0.426  0.00  0.00    -0.153 NA
ATOM     29  H   UNL     1      -0.140 -11.017  -0.974  0.00  0.00    +0.213 HD
ATOM     30  N   UNL     1       0.237 -10.201  -0.611  0.00  0.00    -0.196 N 
ATOM     31  N   UNL     1       1.473 -10.074  -0.273  0.00  0.00    -0.155 NA
ENDBRANCH  20  22
ENDBRANCH   6  20
TORSDOF 4
