REMARK  Name = CHEMBL220645
REMARK  7 active torsions:
REMARK  status: ('A' for Active; 'I' for Inactive)
REMARK    1  A    between atoms: C_1  and  C_2
REMARK    2  A    between atoms: C_5  and  O_33
REMARK    3  A    between atoms: C_7  and  N_8
REMARK    4  A    between atoms: C_11  and  O_24
REMARK    5  A    between atoms: O_24  and  C_25
REMARK    6  A    between atoms: C_25  and  C_26
REMARK    7  A    between atoms: C_26  and  N_27
REMARK                            x       y       z     vdW  Elec       q    Type
REMARK                         _______ _______ _______ _____ _____    ______ ____
ROOT
ATOM      1  N   UNL     1      -0.116  -0.736   1.412  0.00  0.00    -0.299 N 
ATOM      2  C   UNL     1      -0.038  -1.226   2.707  0.00  0.00    +0.132 A 
ATOM      3  C   UNL     1       0.189  -2.581   2.937  0.00  0.00    +0.111 A 
ATOM      4  C   UNL     1       0.258  -3.027   4.251  0.00  0.00    +0.221 A 
ATOM      5  N   UNL     1       0.107  -2.151   5.240  0.00  0.00    -0.177 NA
ATOM      6  C   UNL     1      -0.107  -0.870   4.986  0.00  0.00    +0.241 A 
ATOM      7  N   UNL     1      -0.175  -0.408   3.747  0.00  0.00    -0.196 NA
ATOM      8  N   UNL     1      -0.261   0.015   6.049  0.00  0.00    -0.267 N 
ATOM      9  C   UNL     1      -0.492   1.357   5.958  0.00  0.00    +0.207 A 
ATOM     10  N   UNL     1      -0.583   1.875   7.147  0.00  0.00    -0.235 NA
ATOM     11  C   UNL     1      -0.417   0.906   8.085  0.00  0.00    +0.089 A 
ATOM     12  C   UNL     1      -0.213  -0.302   7.395  0.00  0.00    +0.076 A 
ATOM     13  C   UNL     1      -0.018  -1.479   8.102  0.00  0.00    +0.028 A 
ATOM     14  C   UNL     1      -0.027  -1.460   9.481  0.00  0.00    +0.002 A 
ATOM     15  C   UNL     1      -0.231  -0.271  10.167  0.00  0.00    +0.002 A 
ATOM     16  C   UNL     1      -0.418   0.908   9.482  0.00  0.00    +0.030 A 
ATOM     17  H   UNL     1       0.088  -1.315   0.661  0.00  0.00    +0.154 HD
ENDROOT
BRANCH   1  24
ATOM     18  C   UNL     1       0.760   0.517  -0.986  0.00  0.00    +0.045 C 
ATOM     19  C   UNL     1      -0.082   1.244   0.031  0.00  0.00    -0.029 A 
ATOM     20  C   UNL     1      -0.455   2.556  -0.192  0.00  0.00    +0.009 A 
ATOM     21  C   UNL     1      -1.227   3.225   0.738  0.00  0.00    +0.046 A 
ATOM     22  C   UNL     1      -1.631   2.581   1.900  0.00  0.00    +0.119 A 
ATOM     23  C   UNL     1      -1.259   1.266   2.127  0.00  0.00    +0.069 A 
ATOM     24  C   UNL     1      -0.488   0.593   1.189  0.00  0.00    +0.039 A 
BRANCH  22  25
ATOM     25  O   UNL     1      -2.390   3.241   2.814  0.00  0.00    -0.507 OA
ATOM     26  H   UNL     1      -3.342   3.155   2.670  0.00  0.00    +0.292 HD
ENDBRANCH  22  25
ENDBRANCH   1  24
BRANCH   4  27
ATOM     27  O   UNL     1       0.477  -4.337   4.521  0.00  0.00    -0.475 OA
BRANCH  27  28
ATOM     28  C   UNL     1       0.535  -4.714   5.898  0.00  0.00    +0.246 C 
BRANCH  28  29
ATOM     29  C   UNL     1       0.787  -6.219   6.004  0.00  0.00    +0.125 C 
BRANCH  29  30
ATOM     30  N   UNL     1       2.097  -6.539   5.419  0.00  0.00    -0.295 NA
ATOM     31  C   UNL     1       2.184  -7.964   5.069  0.00  0.00    +0.112 C 
ATOM     32  C   UNL     1       3.538  -8.240   4.410  0.00  0.00    +0.175 C 
ATOM     33  O   UNL     1       4.585  -7.836   5.296  0.00  0.00    -0.377 OA
ATOM     34  C   UNL     1       4.531  -6.453   5.658  0.00  0.00    +0.175 C 
ATOM     35  C   UNL     1       3.187  -6.159   6.329  0.00  0.00    +0.112 C 
ENDBRANCH  29  30
ENDBRANCH  28  29
ENDBRANCH  27  28
ENDBRANCH   4  27
TORSDOF 6
