REMARK  Name = CHEMBL1421
REMARK  8 active torsions:
REMARK  status: ('A' for Active; 'I' for Inactive)
REMARK    1  A    between atoms: C_1  and  C_2
REMARK    2  A    between atoms: C_7  and  N_8
REMARK    3  A    between atoms: C_9  and  C_11
REMARK    4  A    between atoms: N_16  and  C_17
REMARK    5  A    between atoms: C_21  and  C_23
REMARK    6  A    between atoms: N_27  and  C_30
REMARK    7  A    between atoms: C_30  and  C_31
REMARK    8  A    between atoms: C_31  and  O_32
REMARK                            x       y       z     vdW  Elec       q    Type
REMARK                         _______ _______ _______ _____ _____    ______ ____
ROOT
ATOM      1  C   UNL     1       1.090   6.234   6.073  0.00  0.00    +0.095 A 
ATOM      2  C   UNL     1       1.062   6.219   7.460  0.00  0.00    +0.133 A 
ATOM      3  N   UNL     1       0.836   5.059   8.025  0.00  0.00    -0.232 NA
ATOM      4  C   UNL     1       0.646   3.967   7.306  0.00  0.00    +0.164 A 
ATOM      5  S   UNL     1       0.769   4.514   5.718  0.00  0.00    -0.047 S 
ATOM      6  N   UNL     1       0.399   2.684   7.751  0.00  0.00    -0.279 N 
ATOM      7  H   UNL     1       0.349   1.952   7.116  0.00  0.00    +0.155 HD
ENDROOT
BRANCH   6   8
ATOM      8  C   UNL     1       0.220   2.441   9.106  0.00  0.00    +0.129 A 
ATOM      9  C   UNL     1      -0.134   1.173   9.556  0.00  0.00    +0.085 A 
ATOM     10  C   UNL     1      -0.300   0.982  10.924  0.00  0.00    +0.103 A 
ATOM     11  N   UNL     1      -0.116   2.012  11.748  0.00  0.00    -0.332 N 
ATOM     12  C   UNL     1       0.219   3.198  11.283  0.00  0.00    +0.107 A 
ATOM     13  N   UNL     1       0.391   3.418   9.996  0.00  0.00    -0.219 NA
ATOM     14  C   UNL     1       0.416   4.335  12.252  0.00  0.00    +0.086 C 
ATOM     15  N   UNL     1      -0.653  -0.263  11.422  0.00  0.00    -0.320 N 
ATOM     16  C   UNL     1      -0.964  -0.447  12.848  0.00  0.00    +0.088 C 
ATOM     17  C   UNL     1      -2.303  -1.184  12.963  0.00  0.00    -0.059 C 
ATOM     18  N   UNL     1      -2.241  -2.431  12.190  0.00  0.00    +0.383 N 
ATOM     19  C   UNL     1      -2.077  -2.128  10.763  0.00  0.00    -0.059 C 
ATOM     20  C   UNL     1      -0.733  -1.436  10.539  0.00  0.00    +0.088 C 
ATOM     21  H   UNL     1      -0.231   1.887  12.703  0.00  0.00    +0.168 HD
ATOM     22  H   UNL     1      -1.458  -2.983  12.508  0.00  0.00    -0.082 HD
BRANCH  18  23
ATOM     23  C   UNL     1      -3.483  -3.190  12.389  0.00  0.00    -0.051 C 
BRANCH  23  24
ATOM     24  C   UNL     1      -3.370  -4.545  11.687  0.00  0.00    +0.137 C 
BRANCH  24  25
ATOM     25  O   UNL     1      -2.348  -5.322  12.313  0.00  0.00    -0.397 OA
ATOM     26  H   UNL     1      -2.221  -6.196  11.918  0.00  0.00    +0.209 HD
ENDBRANCH  24  25
ENDBRANCH  23  24
ENDBRANCH  18  23
ENDBRANCH   6   8
BRANCH   1  28
ATOM     27  N   UNL     1       1.293   7.143   3.824  0.00  0.00    -0.280 N 
ATOM     28  C   UNL     1       1.314   7.351   5.155  0.00  0.00    +0.256 C 
ATOM     29  O   UNL     1       1.519   8.468   5.594  0.00  0.00    -0.269 OA
ATOM     30  H   UNL     1       1.051   6.272   3.472  0.00  0.00    +0.155 HD
BRANCH  27  37
ATOM     31  C   UNL     1       3.277   6.658   1.843  0.00  0.00    +0.046 C 
ATOM     32  C   UNL     1       2.584   7.990   1.967  0.00  0.00    -0.028 A 
ATOM     33  C   UNL     1       2.901   9.018   1.100  0.00  0.00    +0.005 A 
ATOM     34  C   UNL     1       2.266  10.241   1.212  0.00  0.00    +0.002 A 
ATOM     35  C   UNL     1       1.311  10.440   2.193  0.00  0.00    +0.022 A 
ATOM     36  C   UNL     1       0.989   9.417   3.063  0.00  0.00    +0.062 A 
ATOM     37  C   UNL     1       1.621   8.184   2.949  0.00  0.00    +0.055 A 
ATOM     38 CL   UNL     1      -0.210   9.667   4.294  0.00  0.00    -0.082 Cl
ENDBRANCH  27  37
ENDBRANCH   1  28
TORSDOF 6
