REMARK  Name = CHEMBL1083023
REMARK  6 active torsions:
REMARK  status: ('A' for Active; 'I' for Inactive)
REMARK    1  A    between atoms: C_1  and  N_2
REMARK    2  A    between atoms: N_5  and  C_8
REMARK    3  A    between atoms: C_11  and  C_14
REMARK    4  A    between atoms: C_21  and  C_24
REMARK    5  A    between atoms: C_22  and  N_23
REMARK    6  A    between atoms: C_28  and  O_30
REMARK                            x       y       z     vdW  Elec       q    Type
REMARK                         _______ _______ _______ _____ _____    ______ ____
ROOT
ATOM      1  C   UNL     1      -2.344  -6.947   3.929  0.00  0.00    +0.046 A 
ATOM      2  C   UNL     1      -3.550  -6.995   4.638  0.00  0.00    +0.145 A 
ATOM      3  N   UNL     1      -3.640  -8.154   5.242  0.00  0.00    -0.171 NA
ATOM      4  N   UNL     1      -2.501  -8.913   4.955  0.00  0.00    -0.200 N 
ATOM      5  C   UNL     1      -1.693  -8.170   4.134  0.00  0.00    +0.165 A 
ATOM      6  N   UNL     1      -0.527  -8.654   3.692  0.00  0.00    -0.235 NA
ATOM      7  C   UNL     1      -0.115  -9.857   4.025  0.00  0.00    +0.125 A 
ATOM      8  C   UNL     1      -0.902 -10.667   4.862  0.00  0.00    +0.040 A 
ATOM      9  C   UNL     1      -2.113 -10.171   5.333  0.00  0.00    +0.129 A 
ENDROOT
BRANCH   1  13
ATOM     10  C   UNL     1      -0.928  -3.701   1.574  0.00  0.00    +0.030 A 
ATOM     11  C   UNL     1      -2.221  -4.177   1.393  0.00  0.00    +0.024 A 
ATOM     12  C   UNL     1      -2.683  -5.229   2.155  0.00  0.00    +0.010 A 
ATOM     13  C   UNL     1      -1.850  -5.816   3.108  0.00  0.00    -0.013 A 
ATOM     14  C   UNL     1      -0.553  -5.337   3.287  0.00  0.00    +0.010 A 
ATOM     15  C   UNL     1      -0.095  -4.287   2.519  0.00  0.00    +0.024 A 
BRANCH  10  20
ATOM     16  C   UNL     1      -0.038   1.464  -0.003  0.00  0.00    +0.105 C 
ATOM     17  N   UNL     1      -0.008  -0.004  -0.004  0.00  0.00    -0.302 NA
ATOM     18  C   UNL     1      -1.365  -0.558  -0.108  0.00  0.00    +0.103 C 
ATOM     19  C   UNL     1      -1.280  -2.078  -0.289  0.00  0.00    +0.120 C 
ATOM     20  N   UNL     1      -0.463  -2.633   0.801  0.00  0.00    -0.327 N 
ATOM     21  C   UNL     1       0.857  -2.036   1.055  0.00  0.00    +0.120 C 
ATOM     22  C   UNL     1       0.688  -0.518   1.183  0.00  0.00    +0.103 C 
ENDBRANCH  10  20
ENDBRANCH   1  13
BRANCH   8  23
ATOM     23  C   UNL     1      -0.444 -12.025   5.242  0.00  0.00    -0.010 A 
ATOM     24  C   UNL     1      -0.154 -12.317   6.574  0.00  0.00    +0.009 A 
ATOM     25  C   UNL     1       0.272 -13.582   6.926  0.00  0.00    +0.004 A 
ATOM     26  C   UNL     1       0.411 -14.562   5.960  0.00  0.00    +0.045 A 
ATOM     27  C   UNL     1       0.124 -14.279   4.632  0.00  0.00    +0.117 A 
ATOM     28  C   UNL     1      -0.309 -13.014   4.271  0.00  0.00    +0.054 A 
BRANCH  27  29
ATOM     29  O   UNL     1       0.263 -15.245   3.686  0.00  0.00    -0.507 OA
ATOM     30  H   UNL     1      -0.535 -15.772   3.541  0.00  0.00    +0.292 HD
ENDBRANCH  27  29
ENDBRANCH   8  23
BRANCH   9  31
ATOM     31  N   UNL     1      -2.912 -10.934   6.152  0.00  0.00    -0.343 N 
ATOM     32  H   UNL     1      -3.759 -10.582   6.468  0.00  0.00    +0.144 HD
ATOM     33  H   UNL     1      -2.628 -11.823   6.415  0.00  0.00    +0.144 HD
ENDBRANCH   9  31
TORSDOF 5
