REMARK  Name = CHEMBL304300
REMARK  7 active torsions:
REMARK  status: ('A' for Active; 'I' for Inactive)
REMARK    1  A    between atoms: C_1  and  C_2
REMARK    2  A    between atoms: C_2  and  C_3
REMARK    3  A    between atoms: C_3  and  C_4
REMARK    4  A    between atoms: C_3  and  N_10
REMARK    5  A    between atoms: C_19  and  C_23
REMARK    6  A    between atoms: N_25  and  C_26
REMARK    7  A    between atoms: C_27  and  C_33
REMARK                            x       y       z     vdW  Elec       q    Type
REMARK                         _______ _______ _______ _____ _____    ______ ____
ROOT
ATOM      1  N   UNL     1      -1.355   1.275  -0.571  0.00  0.00    -0.292 N 
ATOM      2  C   UNL     1      -1.024   2.302  -1.379  0.00  0.00    +0.306 C 
ATOM      3  O   UNL     1       0.002   2.257  -2.030  0.00  0.00    -0.252 OA
ATOM      4  N   UNL     1      -1.830   3.378  -1.465  0.00  0.00    -0.248 N 
ATOM      5  C   UNL     1      -1.490   4.433  -2.294  0.00  0.00    +0.167 A 
ATOM      6  N   UNL     1      -0.438   4.564  -3.071  0.00  0.00    -0.225 NA
ATOM      7  C   UNL     1      -0.231   5.656  -3.833  0.00  0.00    +0.080 A 
ATOM      8  C   UNL     1       0.855   5.917  -4.705  0.00  0.00    +0.029 A 
ATOM      9  C   UNL     1       0.923   7.072  -5.411  0.00  0.00    +0.015 A 
ATOM     10  C   UNL     1      -0.073   8.053  -5.307  0.00  0.00    +0.038 A 
ATOM     11  C   UNL     1      -1.159   7.829  -4.454  0.00  0.00    +0.030 A 
ATOM     12  C   UNL     1      -1.224   6.662  -3.745  0.00  0.00    +0.041 A 
ATOM     13  S   UNL     1      -2.374   5.958  -2.587  0.00  0.00    -0.052 S 
ATOM     14  H   UNL     1      -2.173   1.310  -0.052  0.00  0.00    +0.151 HD
ATOM     15  H   UNL     1      -2.648   3.414  -0.946  0.00  0.00    +0.158 HD
ENDROOT
BRANCH  10  16
ATOM     16  C   UNL     1       0.023   9.303  -6.083  0.00  0.00    +0.248 C 
ATOM     17  O   UNL     1      -0.846  10.148  -5.986  0.00  0.00    -0.270 OA
ATOM     18  N   UNL     1       1.075   9.509  -6.901  0.00  0.00    -0.280 N 
ATOM     19  H   UNL     1       1.804   8.870  -6.924  0.00  0.00    +0.155 HD
BRANCH  18  20
ATOM     20  C   UNL     1       1.115  10.645  -7.717  0.00  0.00    +0.055 A 
ATOM     21  C   UNL     1       1.764  11.792  -7.281  0.00  0.00    -0.028 A 
ATOM     22  C   UNL     1       1.802  12.912  -8.089  0.00  0.00    +0.005 A 
ATOM     23  C   UNL     1       1.194  12.892  -9.331  0.00  0.00    +0.002 A 
ATOM     24  C   UNL     1       0.545  11.752  -9.768  0.00  0.00    +0.022 A 
ATOM     25  C   UNL     1       0.509  10.626  -8.968  0.00  0.00    +0.062 A 
ATOM     26 CL   UNL     1      -0.299   9.192  -9.521  0.00  0.00    -0.082 Cl
ATOM     27  C   UNL     1       2.428  11.816  -5.928  0.00  0.00    +0.046 C 
ENDBRANCH  18  20
ENDBRANCH  10  16
BRANCH   1  28
ATOM     28  C   UNL     1      -0.478   0.104  -0.478  0.00  0.00    +0.104 C 
BRANCH  28  29
ATOM     29  C   UNL     1      -1.286  -1.095  -0.054  0.00  0.00    -0.027 A 
ATOM     30  C   UNL     1      -2.274  -0.961   0.903  0.00  0.00    +0.005 A 
ATOM     31  C   UNL     1      -3.015  -2.061   1.291  0.00  0.00    +0.000 A 
ATOM     32  C   UNL     1      -2.768  -3.296   0.722  0.00  0.00    +0.000 A 
ATOM     33  C   UNL     1      -1.780  -3.431  -0.236  0.00  0.00    +0.000 A 
ATOM     34  C   UNL     1      -1.042  -2.329  -0.627  0.00  0.00    +0.005 A 
ENDBRANCH  28  29
BRANCH  28  36
ATOM     35  C   UNL     1       1.516   1.509   0.064  0.00  0.00    +0.006 C 
ATOM     36  C   UNL     1       0.619   0.371   0.554  0.00  0.00    +0.024 C 
ENDBRANCH  28  36
ENDBRANCH   1  28
TORSDOF 5
