REMARK  Name = CHEMBL189649
REMARK  4 active torsions:
REMARK  status: ('A' for Active; 'I' for Inactive)
REMARK    1  A    between atoms: C_1  and  C_2
REMARK    2  A    between atoms: C_7  and  N_8
REMARK    3  A    between atoms: C_9  and  C_11
REMARK    4  A    between atoms: C_19  and  N_23
REMARK                            x       y       z     vdW  Elec       q    Type
REMARK                         _______ _______ _______ _____ _____    ______ ____
ROOT
ATOM      1  C   UNL     1      -0.464   0.115   4.796  0.00  0.00    +0.095 A 
ATOM      2  C   UNL     1      -0.813  -0.325   6.065  0.00  0.00    +0.133 A 
ATOM      3  N   UNL     1      -0.824   0.579   7.012  0.00  0.00    -0.232 NA
ATOM      4  C   UNL     1      -0.517   1.840   6.765  0.00  0.00    +0.164 A 
ATOM      5  S   UNL     1      -0.171   1.847   5.118  0.00  0.00    -0.047 S 
ATOM      6  N   UNL     1      -0.483   2.900   7.650  0.00  0.00    -0.279 N 
ATOM      7  C   UNL     1      -0.692   2.680   9.005  0.00  0.00    +0.129 A 
ATOM      8  C   UNL     1      -0.550   3.720   9.918  0.00  0.00    +0.087 A 
ATOM      9  C   UNL     1      -0.770   3.448  11.266  0.00  0.00    +0.126 A 
ATOM     10  N   UNL     1      -1.105   2.212  11.629  0.00  0.00    -0.221 NA
ATOM     11  C   UNL     1      -1.229   1.254  10.733  0.00  0.00    +0.225 A 
ATOM     12  N   UNL     1      -1.035   1.473   9.448  0.00  0.00    -0.220 NA
ATOM     13  H   UNL     1      -0.314   3.798   7.324  0.00  0.00    +0.155 HD
ENDROOT
BRANCH   9  14
ATOM     14  N   UNL     1      -0.641   4.450  12.215  0.00  0.00    -0.311 N 
ATOM     15  C   UNL     1      -0.663   4.138  13.653  0.00  0.00    +0.134 C 
ATOM     16  C   UNL     1       0.553   4.800  14.310  0.00  0.00    +0.178 C 
ATOM     17  O   UNL     1       0.581   6.186  13.962  0.00  0.00    -0.377 OA
ATOM     18  C   UNL     1       0.730   6.434  12.562  0.00  0.00    +0.178 C 
ATOM     19  C   UNL     1      -0.472   5.856  11.815  0.00  0.00    +0.134 C 
ENDBRANCH   9  14
BRANCH   1  21
ATOM     20  N   UNL     1       0.008  -0.002   2.411  0.00  0.00    -0.280 N 
ATOM     21  C   UNL     1      -0.359  -0.633   3.544  0.00  0.00    +0.256 C 
ATOM     22  O   UNL     1      -0.603  -1.826   3.525  0.00  0.00    -0.269 OA
ATOM     23  H   UNL     1       0.280   0.929   2.440  0.00  0.00    +0.155 HD
BRANCH  20  30
ATOM     24  C   UNL     1      -1.393   1.161   0.225  0.00  0.00    +0.046 C 
ATOM     25  C   UNL     1      -0.675  -0.158   0.100  0.00  0.00    -0.028 A 
ATOM     26  C   UNL     1      -0.679  -0.836  -1.104  0.00  0.00    +0.005 A 
ATOM     27  C   UNL     1      -0.020  -2.046  -1.220  0.00  0.00    +0.002 A 
ATOM     28  C   UNL     1       0.645  -2.582  -0.132  0.00  0.00    +0.022 A 
ATOM     29  C   UNL     1       0.653  -1.909   1.075  0.00  0.00    +0.062 A 
ATOM     30  C   UNL     1      -0.003  -0.689   1.192  0.00  0.00    +0.055 A 
ATOM     31 CL   UNL     1       1.488  -2.583   2.440  0.00  0.00    -0.082 Cl
ENDBRANCH  20  30
ENDBRANCH   1  21
TORSDOF 3
