REMARK  Name = CHEMBL566362
REMARK  5 active torsions:
REMARK  status: ('A' for Active; 'I' for Inactive)
REMARK    1  A    between atoms: C_1  and  C_2
REMARK    2  A    between atoms: C_2  and  C_3
REMARK    3  A    between atoms: C_2  and  N_18
REMARK    4  A    between atoms: N_11  and  C_12
REMARK    5  A    between atoms: C_23  and  N_25
REMARK                            x       y       z     vdW  Elec       q    Type
REMARK                         _______ _______ _______ _____ _____    ______ ____
ROOT
ATOM      1  C   UNL     1       1.004   2.614  -1.305  0.00  0.00    +0.028 C 
ATOM      2  C   UNL     1       1.122   1.172  -0.806  0.00  0.00    +0.075 C 
ENDROOT
BRANCH   2   3
ATOM      3  C   UNL     1       1.421   0.246  -1.986  0.00  0.00    +0.026 C 
ATOM      4  C   UNL     1       0.284   0.337  -3.007  0.00  0.00    +0.008 C 
ATOM      5  C   UNL     1       0.598  -0.565  -4.204  0.00  0.00    +0.019 C 
ATOM      6  C   UNL     1       0.707  -2.017  -3.729  0.00  0.00    +0.109 C 
ATOM      7  N   UNL     1       1.696  -2.087  -2.645  0.00  0.00    -0.285 N 
ATOM      8  C   UNL     1       1.539  -1.197  -1.487  0.00  0.00    +0.114 C 
ATOM      9  C   UNL     1       2.728  -2.952  -2.712  0.00  0.00    +0.306 C 
ATOM     10  O   UNL     1       3.592  -2.935  -1.856  0.00  0.00    -0.252 OA
ATOM     11  N   UNL     1       2.802  -3.836  -3.727  0.00  0.00    -0.269 N 
ATOM     12  H   UNL     1       2.156  -3.799  -4.450  0.00  0.00    +0.156 HD
BRANCH  11  13
ATOM     13  C   UNL     1       3.811  -4.806  -3.738  0.00  0.00    +0.035 A 
ATOM     14  C   UNL     1       4.271  -5.344  -2.544  0.00  0.00    +0.023 A 
ATOM     15  C   UNL     1       5.266  -6.302  -2.558  0.00  0.00    +0.002 A 
ATOM     16  C   UNL     1       5.804  -6.725  -3.760  0.00  0.00    +0.000 A 
ATOM     17  C   UNL     1       5.348  -6.190  -4.951  0.00  0.00    +0.002 A 
ATOM     18  C   UNL     1       4.349  -5.236  -4.944  0.00  0.00    +0.023 A 
ENDBRANCH  11  13
ENDBRANCH   2   3
BRANCH   2  19
ATOM     19  N   UNL     1       2.208   1.082   0.173  0.00  0.00    -0.311 N 
ATOM     20  C   UNL     1       1.969   1.383   1.502  0.00  0.00    +0.217 A 
ATOM     21  N   UNL     1       0.750   1.746   1.873  0.00  0.00    -0.223 NA
ATOM     22  C   UNL     1       0.482   2.041   3.136  0.00  0.00    +0.118 A 
ATOM     23  C   UNL     1       1.494   1.968   4.076  0.00  0.00    +0.066 A 
ATOM     24  C   UNL     1       2.767   1.583   3.655  0.00  0.00    +0.144 A 
ATOM     25  N   UNL     1       2.963   1.296   2.373  0.00  0.00    -0.197 NA
ATOM     26  H   UNL     1       3.096   0.812  -0.111  0.00  0.00    +0.149 HD
BRANCH  24  27
ATOM     27  N   UNL     1       3.816   1.496   4.567  0.00  0.00    -0.283 N 
ATOM     28  C   UNL     1       3.749   1.751   5.906  0.00  0.00    +0.206 A 
ATOM     29  N   UNL     1       4.914   1.571   6.454  0.00  0.00    -0.235 NA
ATOM     30  C   UNL     1       5.811   1.188   5.508  0.00  0.00    +0.089 A 
ATOM     31  C   UNL     1       5.120   1.129   4.286  0.00  0.00    +0.075 A 
ATOM     32  C   UNL     1       5.789   0.757   3.130  0.00  0.00    +0.028 A 
ATOM     33  C   UNL     1       7.131   0.442   3.184  0.00  0.00    +0.002 A 
ATOM     34  C   UNL     1       7.817   0.496   4.388  0.00  0.00    +0.002 A 
ATOM     35  C   UNL     1       7.171   0.871   5.545  0.00  0.00    +0.030 A 
ENDBRANCH  24  27
ENDBRANCH   2  19
TORSDOF 4
