REMARK  Name = CHEMBL473250
REMARK  6 active torsions:
REMARK  status: ('A' for Active; 'I' for Inactive)
REMARK    1  A    between atoms: C_1  and  C_2
REMARK    2  A    between atoms: C_7  and  N_8
REMARK    3  A    between atoms: C_20  and  N_24
REMARK    4  A    between atoms: C_28  and  C_31
REMARK    5  A    between atoms: C_31  and  C_32
REMARK    6  A    between atoms: C_32  and  N_33
REMARK                            x       y       z     vdW  Elec       q    Type
REMARK                         _______ _______ _______ _____ _____    ______ ____
ROOT
ATOM      1  N   UNL     1      -3.293   0.172   5.437  0.00  0.00    -0.283 N 
ATOM      2  C   UNL     1      -2.221  -0.373   4.762  0.00  0.00    +0.207 A 
ATOM      3  N   UNL     1      -2.198  -1.566   4.224  0.00  0.00    -0.214 NA
ATOM      4  C   UNL     1      -0.990  -1.782   3.639  0.00  0.00    +0.091 A 
ATOM      5  C   UNL     1      -0.442  -2.860   2.940  0.00  0.00    +0.030 A 
ATOM      6  C   UNL     1       0.845  -2.779   2.455  0.00  0.00    +0.002 A 
ATOM      7  C   UNL     1       1.601  -1.634   2.656  0.00  0.00    +0.002 A 
ATOM      8  C   UNL     1       1.075  -0.561   3.346  0.00  0.00    +0.028 A 
ATOM      9  C   UNL     1      -0.219  -0.625   3.840  0.00  0.00    +0.077 A 
ATOM     10  N   UNL     1      -1.023   0.256   4.549  0.00  0.00    -0.264 N 
ATOM     11  C   UNL     1      -0.675   1.539   4.968  0.00  0.00    +0.145 A 
ATOM     12  C   UNL     1      -0.074   2.430   4.086  0.00  0.00    +0.090 A 
ATOM     13  C   UNL     1       0.253   3.700   4.553  0.00  0.00    +0.129 A 
ATOM     14  N   UNL     1      -0.019   4.013   5.819  0.00  0.00    -0.220 NA
ATOM     15  C   UNL     1      -0.589   3.139   6.623  0.00  0.00    +0.225 A 
ATOM     16  N   UNL     1      -0.919   1.930   6.216  0.00  0.00    -0.218 NA
ATOM     17  H   UNL     1      -3.245   1.081   5.771  0.00  0.00    +0.155 HD
ENDROOT
BRANCH   1  24
ATOM     18  C   UNL     1      -4.169  -0.251   8.111  0.00  0.00    +0.046 C 
ATOM     19  C   UNL     1      -4.913  -0.818   6.930  0.00  0.00    -0.028 A 
ATOM     20  C   UNL     1      -6.059  -1.564   7.128  0.00  0.00    +0.005 A 
ATOM     21  C   UNL     1      -6.743  -2.085   6.045  0.00  0.00    +0.002 A 
ATOM     22  C   UNL     1      -6.282  -1.861   4.760  0.00  0.00    +0.022 A 
ATOM     23  C   UNL     1      -5.137  -1.117   4.554  0.00  0.00    +0.062 A 
ATOM     24  C   UNL     1      -4.450  -0.587   5.641  0.00  0.00    +0.055 A 
ATOM     25 CL   UNL     1      -4.560  -0.837   2.941  0.00  0.00    -0.082 Cl
ENDBRANCH   1  24
BRANCH  13  26
ATOM     26  N   UNL     1       0.855   4.626   3.713  0.00  0.00    -0.284 N 
ATOM     27  C   UNL     1       1.300   5.842   4.223  0.00  0.00    +0.124 A 
ATOM     28  C   UNL     1       1.485   5.989   5.593  0.00  0.00    +0.044 A 
ATOM     29  C   UNL     1       1.928   7.203   6.086  0.00  0.00    +0.008 A 
ATOM     30  C   UNL     1       2.173   8.233   5.188  0.00  0.00    -0.031 A 
ATOM     31  C   UNL     1       1.968   8.018   3.840  0.00  0.00    +0.116 A 
ATOM     32  N   UNL     1       1.550   6.847   3.398  0.00  0.00    -0.240 NA
ATOM     33  H   UNL     1       0.966   4.425   2.770  0.00  0.00    +0.155 HD
BRANCH  30  34
ATOM     34  C   UNL     1       2.656   9.573   5.680  0.00  0.00    +0.018 C 
BRANCH  34  35
ATOM     35  C   UNL     1       4.183   9.626   5.598  0.00  0.00    -0.074 C 
BRANCH  35  36
ATOM     36  N   UNL     1       4.662  10.885   6.185  0.00  0.00    +0.383 N 
ATOM     37  C   UNL     1       4.190  12.015   5.373  0.00  0.00    -0.050 C 
ATOM     38  C   UNL     1       4.690  13.325   5.988  0.00  0.00    +0.141 C 
ATOM     39  O   UNL     1       6.118  13.294   6.066  0.00  0.00    -0.383 OA
ATOM     40  C   UNL     1       6.627  12.196   6.828  0.00  0.00    +0.141 C 
ATOM     41  C   UNL     1       6.131  10.884   6.215  0.00  0.00    -0.050 C 
ATOM     42  H   UNL     1       4.306  10.974   7.125  0.00  0.00    -0.082 HD
ENDBRANCH  35  36
ENDBRANCH  34  35
ENDBRANCH  30  34
ENDBRANCH  13  26
TORSDOF 5
