REMARK  Name = CHEMBL595398
REMARK  9 active torsions:
REMARK  status: ('A' for Active; 'I' for Inactive)
REMARK    1  A    between atoms: C_1  and  N_2
REMARK    2  A    between atoms: N_2  and  C_3
REMARK    3  A    between atoms: N_2  and  C_4
REMARK    4  A    between atoms: C_4  and  C_5
REMARK    5  A    between atoms: C_5  and  O_6
REMARK    6  A    between atoms: O_6  and  C_7
REMARK    7  A    between atoms: C_17  and  C_27
REMARK    8  A    between atoms: C_18  and  C_20
REMARK    9  A    between atoms: C_23  and  O_26
REMARK                            x       y       z     vdW  Elec       q    Type
REMARK                         _______ _______ _______ _____ _____    ______ ____
ROOT
ATOM      1  C   UNL     1      -0.971  -3.862   1.322  0.00  0.00    +0.121 A 
ATOM      2  C   UNL     1      -1.237  -4.702   0.250  0.00  0.00    +0.047 A 
ATOM      3  C   UNL     1      -1.184  -6.063   0.443  0.00  0.00    +0.027 A 
ATOM      4  C   UNL     1      -0.866  -6.601   1.694  0.00  0.00    +0.036 A 
ATOM      5  C   UNL     1      -0.590  -5.781   2.763  0.00  0.00    -0.021 A 
ATOM      6  C   UNL     1      -0.650  -4.395   2.550  0.00  0.00    +0.051 A 
ATOM      7  C   UNL     1      -0.199  -6.134   4.182  0.00  0.00    +0.060 C 
ATOM      8  C   UNL     1       0.206  -7.579   4.380  0.00  0.00    +0.150 C 
ATOM      9  N   UNL     1      -0.900  -8.487   4.067  0.00  0.00    -0.249 N 
ATOM     10  C   UNL     1      -1.396  -8.654   2.854  0.00  0.00    +0.134 A 
ATOM     11  C   UNL     1      -2.445  -9.556   2.914  0.00  0.00    +0.104 A 
ATOM     12  C   UNL     1      -2.537  -9.951   4.329  0.00  0.00    +0.107 A 
ATOM     13  N   UNL     1      -1.598  -9.294   4.975  0.00  0.00    -0.169 NA
ATOM     14  N   UNL     1      -0.863  -7.997   1.768  0.00  0.00    -0.299 N 
ATOM     15  H   UNL     1      -0.478  -8.511   1.042  0.00  0.00    +0.154 HD
ENDROOT
BRANCH  12  16
ATOM     16  C   UNL     1      -3.506 -10.908   4.916  0.00  0.00    +0.003 A 
ATOM     17  C   UNL     1      -4.804 -10.986   4.412  0.00  0.00    +0.013 A 
ATOM     18  C   UNL     1      -5.702 -11.877   4.960  0.00  0.00    +0.046 A 
ATOM     19  C   UNL     1      -5.316 -12.696   6.013  0.00  0.00    +0.117 A 
ATOM     20  C   UNL     1      -4.024 -12.621   6.516  0.00  0.00    +0.046 A 
ATOM     21  C   UNL     1      -3.119 -11.736   5.969  0.00  0.00    +0.013 A 
BRANCH  19  22
ATOM     22  O   UNL     1      -6.204 -13.572   6.551  0.00  0.00    -0.507 OA
ATOM     23  H   UNL     1      -6.200 -14.443   6.131  0.00  0.00    +0.292 HD
ENDBRANCH  19  22
ENDBRANCH  12  16
BRANCH  11  24
ATOM     24  C   UNL     1      -3.285 -10.019   1.805  0.00  0.00    +0.247 C 
ATOM     25  O   UNL     1      -2.962 -11.004   1.167  0.00  0.00    -0.270 OA
ATOM     26  N   UNL     1      -4.415  -9.354   1.492  0.00  0.00    -0.325 N 
ATOM     27  H   UNL     1      -4.672  -8.569   2.001  0.00  0.00    +0.145 HD
ATOM     28  H   UNL     1      -4.970  -9.660   0.758  0.00  0.00    +0.145 HD
ENDBRANCH  11  24
BRANCH   1  29
ATOM     29  O   UNL     1      -1.022  -2.513   1.158  0.00  0.00    -0.494 OA
BRANCH  29  30
ATOM     30  C   UNL     1      -1.362  -2.030  -0.143  0.00  0.00    +0.210 C 
BRANCH  30  31
ATOM     31  C   UNL     1      -1.369  -0.500  -0.133  0.00  0.00    -0.038 C 
BRANCH  31  33
ATOM     32  C   UNL     1       0.866  -0.358  -0.993  0.00  0.00    -0.096 C 
ATOM     33  N   UNL     1      -0.012  -0.005   0.131  0.00  0.00    +0.378 N 
ATOM     34  C   UNL     1      -0.044   1.455   0.287  0.00  0.00    -0.096 C 
ATOM     35  H   UNL     1       0.340  -0.426   0.978  0.00  0.00    -0.082 HD
ENDBRANCH  31  33
ENDBRANCH  30  31
ENDBRANCH  29  30
ENDBRANCH   1  29
TORSDOF 7
