REMARK  Name = CHEMBL568542
REMARK  7 active torsions:
REMARK  status: ('A' for Active; 'I' for Inactive)
REMARK    1  A    between atoms: C_1  and  C_2
REMARK    2  A    between atoms: C_2  and  C_3
REMARK    3  A    between atoms: C_2  and  N_14
REMARK    4  A    between atoms: N_5  and  S_10
REMARK    5  A    between atoms: N_8  and  C_9
REMARK    6  A    between atoms: S_10  and  C_13
REMARK    7  A    between atoms: C_19  and  N_21
REMARK                            x       y       z     vdW  Elec       q    Type
REMARK                         _______ _______ _______ _____ _____    ______ ____
ROOT
ATOM      1  N   UNL     1      -1.372  -0.511   0.012  0.00  0.00    -0.309 N 
ATOM      2  C   UNL     1      -2.046  -0.659   1.212  0.00  0.00    +0.217 A 
ATOM      3  N   UNL     1      -1.435  -0.332   2.341  0.00  0.00    -0.223 NA
ATOM      4  C   UNL     1      -2.048  -0.460   3.508  0.00  0.00    +0.118 A 
ATOM      5  C   UNL     1      -3.343  -0.941   3.542  0.00  0.00    +0.066 A 
ATOM      6  C   UNL     1      -3.960  -1.277   2.337  0.00  0.00    +0.144 A 
ATOM      7  N   UNL     1      -3.288  -1.119   1.203  0.00  0.00    -0.197 NA
ATOM      8  H   UNL     1      -1.810  -0.743  -0.822  0.00  0.00    +0.149 HD
ENDROOT
BRANCH   6   9
ATOM      9  N   UNL     1      -5.265  -1.766   2.324  0.00  0.00    -0.283 N 
ATOM     10  C   UNL     1      -6.066  -1.965   3.410  0.00  0.00    +0.206 A 
ATOM     11  N   UNL     1      -7.220  -2.432   3.033  0.00  0.00    -0.235 NA
ATOM     12  C   UNL     1      -7.242  -2.565   1.682  0.00  0.00    +0.089 A 
ATOM     13  C   UNL     1      -5.992  -2.135   1.206  0.00  0.00    +0.075 A 
ATOM     14  C   UNL     1      -5.725  -2.154  -0.155  0.00  0.00    +0.028 A 
ATOM     15  C   UNL     1      -6.690  -2.592  -1.038  0.00  0.00    +0.002 A 
ATOM     16  C   UNL     1      -7.927  -3.014  -0.573  0.00  0.00    +0.002 A 
ATOM     17  C   UNL     1      -8.207  -3.010   0.774  0.00  0.00    +0.030 A 
ENDBRANCH   6   9
BRANCH   1  19
ATOM     18  C   UNL     1      -0.019   1.526   0.010  0.00  0.00    +0.029 C 
ATOM     19  C   UNL     1       0.002  -0.004   0.002  0.00  0.00    +0.088 C 
BRANCH  19  20
ATOM     20  C   UNL     1       0.718  -0.497  -1.257  0.00  0.00    +0.092 C 
ATOM     21  C   UNL     1       0.742  -2.030  -1.264  0.00  0.00    +0.129 C 
ATOM     22  N   UNL     1       1.562  -2.479  -2.400  0.00  0.00    -0.179 NA
ATOM     23  C   UNL     1       2.908  -1.908  -2.555  0.00  0.00    +0.124 C 
ATOM     24  C   UNL     1       2.799  -0.380  -2.497  0.00  0.00    +0.101 C 
ATOM     25  N   UNL     1       2.096   0.011  -1.268  0.00  0.00    -0.298 NA
ATOM     26  C   UNL     1       2.832  -0.436  -0.077  0.00  0.00    +0.105 C 
BRANCH  22  27
ATOM     27  S   UNL     1       0.984  -3.598  -3.475  0.00  0.00    +0.029 S 
ATOM     28  O   UNL     1       2.144  -4.226  -4.003  0.00  0.00    -0.158 OA
ATOM     29  O   UNL     1       0.025  -4.346  -2.739  0.00  0.00    -0.158 OA
ATOM     30  C   UNL     1       0.160  -2.624  -4.764  0.00  0.00    +0.215 C 
ENDBRANCH  22  27
ENDBRANCH  19  20
ENDBRANCH   1  19
TORSDOF 4
