REMARK  Name = CHEMBL221233
REMARK  7 active torsions:
REMARK  status: ('A' for Active; 'I' for Inactive)
REMARK    1  A    between atoms: C_1  and  C_2
REMARK    2  A    between atoms: C_5  and  O_33
REMARK    3  A    between atoms: C_7  and  N_8
REMARK    4  A    between atoms: C_11  and  N_24
REMARK    5  A    between atoms: N_24  and  C_25
REMARK    6  A    between atoms: C_25  and  C_26
REMARK    7  A    between atoms: C_26  and  N_27
REMARK                            x       y       z     vdW  Elec       q    Type
REMARK                         _______ _______ _______ _____ _____    ______ ____
ROOT
ATOM      1  N   UNL     1       0.025  -0.013   2.416  0.00  0.00    -0.299 N 
ATOM      2  C   UNL     1      -0.059  -0.712   3.612  0.00  0.00    +0.130 A 
ATOM      3  C   UNL     1      -0.035  -2.103   3.619  0.00  0.00    +0.087 A 
ATOM      4  C   UNL     1      -0.121  -2.760   4.843  0.00  0.00    +0.126 A 
ATOM      5  N   UNL     1      -0.224  -2.041   5.958  0.00  0.00    -0.197 NA
ATOM      6  C   UNL     1      -0.243  -0.719   5.913  0.00  0.00    +0.240 A 
ATOM      7  N   UNL     1      -0.158  -0.060   4.768  0.00  0.00    -0.197 NA
ATOM      8  N   UNL     1      -0.352  -0.001   7.101  0.00  0.00    -0.267 N 
ATOM      9  C   UNL     1      -0.438  -0.525   8.358  0.00  0.00    +0.207 A 
ATOM     10  N   UNL     1      -0.527   0.431   9.235  0.00  0.00    -0.235 NA
ATOM     11  C   UNL     1      -0.505   1.635   8.605  0.00  0.00    +0.089 A 
ATOM     12  C   UNL     1      -0.387   1.376   7.229  0.00  0.00    +0.076 A 
ATOM     13  C   UNL     1      -0.333   2.430   6.328  0.00  0.00    +0.028 A 
ATOM     14  C   UNL     1      -0.393   3.729   6.787  0.00  0.00    +0.002 A 
ATOM     15  C   UNL     1      -0.507   3.989   8.145  0.00  0.00    +0.002 A 
ATOM     16  C   UNL     1      -0.570   2.956   9.053  0.00  0.00    +0.030 A 
ATOM     17  H   UNL     1       0.084   0.955   2.423  0.00  0.00    +0.154 HD
ENDROOT
BRANCH   1  24
ATOM     18  C   UNL     1      -2.436  -1.104   1.498  0.00  0.00    +0.045 C 
ATOM     19  C   UNL     1      -1.157  -1.254   0.715  0.00  0.00    -0.029 A 
ATOM     20  C   UNL     1      -1.159  -1.932  -0.488  0.00  0.00    +0.009 A 
ATOM     21  C   UNL     1       0.012  -2.071  -1.209  0.00  0.00    +0.046 A 
ATOM     22  C   UNL     1       1.195  -1.529  -0.725  0.00  0.00    +0.119 A 
ATOM     23  C   UNL     1       1.202  -0.847   0.481  0.00  0.00    +0.069 A 
ATOM     24  C   UNL     1       0.023  -0.704   1.201  0.00  0.00    +0.039 A 
BRANCH  22  25
ATOM     25  O   UNL     1       2.346  -1.666  -1.435  0.00  0.00    -0.507 OA
ATOM     26  H   UNL     1       2.507  -0.952  -2.066  0.00  0.00    +0.292 HD
ENDBRANCH  22  25
ENDBRANCH   1  24
BRANCH   4  27
ATOM     27  N   UNL     1      -0.102  -4.145   4.899  0.00  0.00    -0.331 N 
ATOM     28  H   UNL     1      -0.163  -4.597   5.756  0.00  0.00    +0.147 HD
BRANCH  27  29
ATOM     29  C   UNL     1       0.010  -4.927   3.666  0.00  0.00    +0.084 C 
BRANCH  29  30
ATOM     30  C   UNL     1       0.009  -6.419   4.005  0.00  0.00    -0.060 C 
BRANCH  30  31
ATOM     31  N   UNL     1       0.122  -7.203   2.768  0.00  0.00    +0.384 N 
ATOM     32  C   UNL     1      -1.076  -6.992   1.944  0.00  0.00    -0.050 C 
ATOM     33  C   UNL     1      -0.956  -7.810   0.655  0.00  0.00    +0.141 C 
ATOM     34  O   UNL     1      -0.783  -9.191   0.988  0.00  0.00    -0.383 OA
ATOM     35  C   UNL     1       0.358  -9.444   1.811  0.00  0.00    +0.141 C 
ATOM     36  C   UNL     1       0.241  -8.629   3.101  0.00  0.00    -0.050 C 
ATOM     37  H   UNL     1       0.939  -6.908   2.256  0.00  0.00    -0.082 HD
ENDBRANCH  30  31
ENDBRANCH  29  30
ENDBRANCH  27  29
ENDBRANCH   4  27
TORSDOF 6
