REMARK  Name = CHEMBL271759
REMARK  2 active torsions:
REMARK  status: ('A' for Active; 'I' for Inactive)
REMARK    1  A    between atoms: C_8  and  C_14
REMARK    2  A    between atoms: N_16  and  C_17
REMARK                            x       y       z     vdW  Elec       q    Type
REMARK                         _______ _______ _______ _____ _____    ______ ____
ROOT
ATOM      1  C   UNL     1      -0.014   1.371   0.055  0.00  0.00    +0.002 A 
ATOM      2  C   UNL     1       1.173   2.090   0.054  0.00  0.00    +0.002 A 
ATOM      3  C   UNL     1       2.387   1.435   0.034  0.00  0.00    +0.028 A 
ATOM      4  C   UNL     1       2.429   0.048   0.016  0.00  0.00    +0.073 A 
ATOM      5  C   UNL     1       1.229  -0.689   0.018  0.00  0.00    +0.089 A 
ATOM      6  C   UNL     1       0.004  -0.004   0.038  0.00  0.00    +0.030 A 
ATOM      7  N   UNL     1       1.242  -2.036  -0.001  0.00  0.00    -0.238 NA
ATOM      8  C   UNL     1       2.368  -2.714  -0.020  0.00  0.00    +0.152 A 
ATOM      9  C   UNL     1       3.645  -2.002  -0.023  0.00  0.00    +0.097 A 
ATOM     10  N   UNL     1       3.645  -0.618  -0.004  0.00  0.00    -0.295 N 
ATOM     11  C   UNL     1       4.931  -0.225  -0.012  0.00  0.00    +0.204 A 
ATOM     12  N   UNL     1       5.706  -1.281  -0.034  0.00  0.00    -0.243 NA
ATOM     13  C   UNL     1       4.962  -2.389  -0.040  0.00  0.00    +0.141 A 
ENDROOT
BRANCH   8  14
ATOM     14  C   UNL     1       2.343  -4.195  -0.040  0.00  0.00    +0.269 C 
ATOM     15  O   UNL     1       3.385  -4.820  -0.058  0.00  0.00    -0.268 OA
ATOM     16  N   UNL     1       1.165  -4.849  -0.037  0.00  0.00    -0.279 N 
ATOM     17  H   UNL     1       0.335  -4.354   0.043  0.00  0.00    +0.155 HD
BRANCH  16  18
ATOM     18  C   UNL     1       1.138  -6.243  -0.150  0.00  0.00    +0.048 A 
ATOM     19  C   UNL     1       2.144  -7.007   0.426  0.00  0.00    +0.024 A 
ATOM     20  C   UNL     1       2.116  -8.383   0.312  0.00  0.00    +0.002 A 
ATOM     21  C   UNL     1       1.087  -9.001  -0.375  0.00  0.00    +0.001 A 
ATOM     22  C   UNL     1       0.083  -8.244  -0.951  0.00  0.00    +0.017 A 
ATOM     23  C   UNL     1       0.103  -6.867  -0.836  0.00  0.00    +0.039 A 
ATOM     24 BR   UNL     1      -1.275  -5.832  -1.616  0.00  0.00    -0.048 Br
ENDBRANCH  16  18
ENDBRANCH   8  14
TORSDOF 2
