REMARK  Name = CHEMBL1084233
REMARK  7 active torsions:
REMARK  status: ('A' for Active; 'I' for Inactive)
REMARK    1  A    between atoms: C_1  and  N_2
REMARK    2  A    between atoms: N_5  and  C_8
REMARK    3  A    between atoms: C_11  and  C_14
REMARK    4  A    between atoms: C_21  and  C_24
REMARK    5  A    between atoms: C_22  and  N_23
REMARK    6  A    between atoms: C_27  and  N_30
REMARK    7  A    between atoms: N_33  and  C_34
REMARK                            x       y       z     vdW  Elec       q    Type
REMARK                         _______ _______ _______ _____ _____    ______ ____
ROOT
ATOM      1  C   UNL     1      -2.361  -6.732   4.300  0.00  0.00    +0.046 A 
ATOM      2  C   UNL     1      -3.540  -6.721   5.055  0.00  0.00    +0.145 A 
ATOM      3  N   UNL     1      -3.636  -7.854   5.706  0.00  0.00    -0.171 NA
ATOM      4  N   UNL     1      -2.528  -8.654   5.406  0.00  0.00    -0.200 N 
ATOM      5  C   UNL     1      -1.734  -7.963   4.527  0.00  0.00    +0.165 A 
ATOM      6  N   UNL     1      -0.598  -8.494   4.061  0.00  0.00    -0.235 NA
ATOM      7  C   UNL     1      -0.204  -9.694   4.423  0.00  0.00    +0.125 A 
ATOM      8  C   UNL     1      -0.979 -10.451   5.319  0.00  0.00    +0.040 A 
ATOM      9  C   UNL     1      -2.157  -9.906   5.817  0.00  0.00    +0.129 A 
ENDROOT
BRANCH   1  13
ATOM     10  C   UNL     1      -0.955  -3.612   1.775  0.00  0.00    +0.030 A 
ATOM     11  C   UNL     1      -2.266  -4.060   1.660  0.00  0.00    +0.024 A 
ATOM     12  C   UNL     1      -2.724  -5.072   2.478  0.00  0.00    +0.010 A 
ATOM     13  C   UNL     1      -1.871  -5.645   3.420  0.00  0.00    -0.013 A 
ATOM     14  C   UNL     1      -0.556  -5.194   3.533  0.00  0.00    +0.010 A 
ATOM     15  C   UNL     1      -0.101  -4.186   2.709  0.00  0.00    +0.024 A 
BRANCH  10  20
ATOM     16  C   UNL     1       0.002   1.459  -0.005  0.00  0.00    -0.096 C 
ATOM     17  N   UNL     1       0.022  -0.010  -0.009  0.00  0.00    +0.380 N 
ATOM     18  C   UNL     1      -1.357  -0.516  -0.009  0.00  0.00    -0.060 C 
ATOM     19  C   UNL     1      -1.339  -2.044  -0.130  0.00  0.00    +0.086 C 
ATOM     20  N   UNL     1      -0.493  -2.586   0.945  0.00  0.00    -0.333 N 
ATOM     21  C   UNL     1       0.852  -2.018   1.122  0.00  0.00    +0.086 C 
ATOM     22  C   UNL     1       0.731  -0.492   1.183  0.00  0.00    -0.060 C 
ATOM     23  H   UNL     1       0.497  -0.337  -0.837  0.00  0.00    -0.082 HD
ENDBRANCH  10  20
ENDBRANCH   1  13
BRANCH   8  24
ATOM     24  C   UNL     1      -0.541 -11.806   5.733  0.00  0.00    -0.013 A 
ATOM     25  C   UNL     1      -0.207 -12.056   7.063  0.00  0.00    +0.010 A 
ATOM     26  C   UNL     1       0.199 -13.317   7.446  0.00  0.00    +0.024 A 
ATOM     27  C   UNL     1       0.276 -14.338   6.507  0.00  0.00    +0.035 A 
ATOM     28  C   UNL     1      -0.056 -14.092   5.180  0.00  0.00    +0.024 A 
ATOM     29  C   UNL     1      -0.469 -12.835   4.793  0.00  0.00    +0.010 A 
BRANCH  27  30
ATOM     30  N   UNL     1       0.689 -15.617   6.898  0.00  0.00    -0.269 N 
ATOM     31  C   UNL     1       0.358 -16.089   8.116  0.00  0.00    +0.308 C 
ATOM     32  O   UNL     1      -0.381 -15.447   8.837  0.00  0.00    -0.252 OA
ATOM     33  N   UNL     1       0.847 -17.273   8.536  0.00  0.00    -0.268 N 
ATOM     34  H   UNL     1       1.213 -16.164   6.292  0.00  0.00    +0.156 HD
ATOM     35  H   UNL     1       1.383 -17.816   7.937  0.00  0.00    +0.156 HD
BRANCH  33  36
ATOM     36  C   UNL     1       0.581 -17.719   9.836  0.00  0.00    +0.053 A 
ATOM     37  C   UNL     1      -0.639 -17.433  10.434  0.00  0.00    +0.025 A 
ATOM     38  C   UNL     1      -0.899 -17.875  11.716  0.00  0.00    +0.002 A 
ATOM     39  C   UNL     1       0.054 -18.601  12.406  0.00  0.00    +0.002 A 
ATOM     40  C   UNL     1       1.271 -18.887  11.815  0.00  0.00    +0.022 A 
ATOM     41  C   UNL     1       1.535 -18.453  10.529  0.00  0.00    +0.062 A 
ATOM     42 CL   UNL     1       3.060 -18.819   9.784  0.00  0.00    -0.082 Cl
ENDBRANCH  33  36
ENDBRANCH  27  30
ENDBRANCH   8  24
BRANCH   9  43
ATOM     43  N   UNL     1      -2.943 -10.617   6.694  0.00  0.00    -0.343 N 
ATOM     44  H   UNL     1      -3.769 -10.232   7.027  0.00  0.00    +0.144 HD
ATOM     45  H   UNL     1      -2.671 -11.504   6.979  0.00  0.00    +0.144 HD
ENDBRANCH   9  43
TORSDOF 6
