REMARK  Name = CHEMBL576787
REMARK  5 active torsions:
REMARK  status: ('A' for Active; 'I' for Inactive)
REMARK    1  A    between atoms: C_1  and  C_2
REMARK    2  A    between atoms: C_7  and  C_8
REMARK    3  A    between atoms: N_18  and  C_19
REMARK    4  A    between atoms: C_23  and  N_24
REMARK    5  A    between atoms: N_24  and  C_25
REMARK                            x       y       z     vdW  Elec       q    Type
REMARK                         _______ _______ _______ _____ _____    ______ ____
ROOT
ATOM      1  C   UNL     1      -1.480   1.361  -0.243  0.00  0.00    +0.044 C 
ATOM      2  C   UNL     1      -1.205  -0.120  -0.205  0.00  0.00    -0.042 A 
ATOM      3  C   UNL     1      -0.713  -0.757  -1.338  0.00  0.00    +0.004 A 
ATOM      4  C   UNL     1      -0.453  -2.096  -1.339  0.00  0.00    +0.012 A 
ATOM      5  C   UNL     1      -0.682  -2.854  -0.183  0.00  0.00    +0.021 A 
ATOM      6  C   UNL     1      -1.183  -2.221   0.981  0.00  0.00    -0.005 A 
ATOM      7  C   UNL     1      -1.440  -0.833   0.960  0.00  0.00    -0.007 A 
ATOM      8  C   UNL     1      -1.403  -3.005   2.126  0.00  0.00    +0.026 A 
ATOM      9  C   UNL     1      -1.127  -4.338   2.074  0.00  0.00    +0.085 A 
ATOM     10  N   UNL     1      -0.658  -4.915   0.976  0.00  0.00    -0.349 N 
ATOM     11  C   UNL     1      -0.427  -4.243  -0.137  0.00  0.00    +0.108 A 
ATOM     12  H   UNL     1      -0.478  -5.868   0.991  0.00  0.00    +0.167 HD
ENDROOT
BRANCH   7  13
ATOM     13  C   UNL     1      -1.959  -0.147   2.166  0.00  0.00    -0.016 A 
ATOM     14  C   UNL     1      -1.161  -0.067   3.320  0.00  0.00    +0.010 A 
ATOM     15  C   UNL     1      -1.613   0.556   4.440  0.00  0.00    +0.029 A 
ATOM     16  C   UNL     1      -2.894   1.130   4.454  0.00  0.00    +0.076 A 
ATOM     17  C   UNL     1      -3.709   1.054   3.294  0.00  0.00    +0.019 A 
ATOM     18  C   UNL     1      -3.225   0.414   2.146  0.00  0.00    +0.020 A 
ATOM     19  C   UNL     1      -4.989   1.639   3.336  0.00  0.00    +0.124 A 
ATOM     20  N   UNL     1      -5.374   2.229   4.448  0.00  0.00    -0.222 NA
ATOM     21  C   UNL     1      -4.583   2.281   5.518  0.00  0.00    +0.215 A 
ATOM     22  N   UNL     1      -3.375   1.752   5.537  0.00  0.00    -0.215 NA
ATOM     23  N   UNL     1      -5.047   2.917   6.656  0.00  0.00    -0.317 N 
ATOM     24  C   UNL     1      -6.384   3.515   6.667  0.00  0.00    +0.128 C 
ATOM     25  H   UNL     1      -4.487   2.966   7.446  0.00  0.00    +0.149 HD
ENDBRANCH   7  13
BRANCH  11  26
ATOM     26  N   UNL     1       0.063  -4.898  -1.255  0.00  0.00    -0.300 N 
ATOM     27  H   UNL     1       0.319  -4.390  -2.041  0.00  0.00    +0.154 HD
BRANCH  26  28
ATOM     28  C   UNL     1       0.188  -6.290  -1.251  0.00  0.00    +0.032 A 
ATOM     29  C   UNL     1      -0.812  -7.077  -0.693  0.00  0.00    +0.025 A 
ATOM     30  C   UNL     1      -0.686  -8.452  -0.690  0.00  0.00    +0.022 A 
ATOM     31  C   UNL     1       0.435  -9.047  -1.243  0.00  0.00    +0.041 A 
ATOM     32  C   UNL     1       1.432  -8.265  -1.800  0.00  0.00    +0.022 A 
ATOM     33  C   UNL     1       1.309  -6.890  -1.811  0.00  0.00    +0.025 A 
ATOM     34 CL   UNL     1       0.591 -10.776  -1.238  0.00  0.00    -0.084 Cl
ENDBRANCH  26  28
ENDBRANCH  11  26
TORSDOF 3
