REMARK  Name = CHEMBL220645
REMARK  7 active torsions:
REMARK  status: ('A' for Active; 'I' for Inactive)
REMARK    1  A    between atoms: C_1  and  C_2
REMARK    2  A    between atoms: C_5  and  O_33
REMARK    3  A    between atoms: C_7  and  N_8
REMARK    4  A    between atoms: C_11  and  O_24
REMARK    5  A    between atoms: O_24  and  C_25
REMARK    6  A    between atoms: C_25  and  C_26
REMARK    7  A    between atoms: C_26  and  N_27
REMARK                            x       y       z     vdW  Elec       q    Type
REMARK                         _______ _______ _______ _____ _____    ______ ____
ROOT
ATOM      1  N   UNL     1       0.129  -0.386   1.819  0.00  0.00    -0.299 N 
ATOM      2  C   UNL     1       0.172  -0.973   3.075  0.00  0.00    +0.132 A 
ATOM      3  C   UNL     1       0.351  -2.348   3.206  0.00  0.00    +0.111 A 
ATOM      4  C   UNL     1       0.388  -2.890   4.485  0.00  0.00    +0.221 A 
ATOM      5  N   UNL     1       0.252  -2.085   5.534  0.00  0.00    -0.177 NA
ATOM      6  C   UNL     1       0.084  -0.783   5.372  0.00  0.00    +0.241 A 
ATOM      7  N   UNL     1       0.049  -0.229   4.171  0.00  0.00    -0.196 NA
ATOM      8  N   UNL     1      -0.056   0.027   6.496  0.00  0.00    -0.267 N 
ATOM      9  C   UNL     1      -0.242   1.379   6.502  0.00  0.00    +0.207 A 
ATOM     10  N   UNL     1      -0.332   1.811   7.725  0.00  0.00    -0.235 NA
ATOM     11  C   UNL     1      -0.211   0.771   8.590  0.00  0.00    +0.089 A 
ATOM     12  C   UNL     1      -0.037  -0.389   7.816  0.00  0.00    +0.076 A 
ATOM     13  C   UNL     1       0.109  -1.621   8.437  0.00  0.00    +0.028 A 
ATOM     14  C   UNL     1       0.081  -1.703   9.813  0.00  0.00    +0.002 A 
ATOM     15  C   UNL     1      -0.093  -0.561  10.582  0.00  0.00    +0.002 A 
ATOM     16  C   UNL     1      -0.232   0.670   9.983  0.00  0.00    +0.030 A 
ATOM     17  H   UNL     1       0.324  -0.916   1.029  0.00  0.00    +0.154 HD
ENDROOT
BRANCH   1  24
ATOM     18  C   UNL     1       1.127   1.022  -0.442  0.00  0.00    +0.045 C 
ATOM     19  C   UNL     1       0.271   1.694   0.601  0.00  0.00    -0.029 A 
ATOM     20  C   UNL     1      -0.054   3.030   0.471  0.00  0.00    +0.009 A 
ATOM     21  C   UNL     1      -0.838   3.649   1.426  0.00  0.00    +0.046 A 
ATOM     22  C   UNL     1      -1.302   2.930   2.519  0.00  0.00    +0.119 A 
ATOM     23  C   UNL     1      -0.978   1.589   2.653  0.00  0.00    +0.069 A 
ATOM     24  C   UNL     1      -0.195   0.967   1.690  0.00  0.00    +0.039 A 
BRANCH  22  25
ATOM     25  O   UNL     1      -2.073   3.540   3.457  0.00  0.00    -0.507 OA
ATOM     26  H   UNL     1      -3.022   3.496   3.276  0.00  0.00    +0.292 HD
ENDBRANCH  22  25
ENDBRANCH   1  24
BRANCH   4  27
ATOM     27  O   UNL     1       0.560  -4.224   4.660  0.00  0.00    -0.478 OA
BRANCH  27  28
ATOM     28  C   UNL     1       0.586  -4.703   6.006  0.00  0.00    +0.212 C 
BRANCH  28  29
ATOM     29  C   UNL     1       0.787  -6.219   6.004  0.00  0.00    -0.037 C 
BRANCH  29  30
ATOM     30  N   UNL     1       2.097  -6.539   5.419  0.00  0.00    +0.385 N 
ATOM     31  C   UNL     1       2.226  -7.995   5.274  0.00  0.00    -0.050 C 
ATOM     32  C   UNL     1       3.591  -8.326   4.665  0.00  0.00    +0.141 C 
ATOM     33  O   UNL     1       4.622  -7.787   5.497  0.00  0.00    -0.383 OA
ATOM     34  C   UNL     1       4.525  -6.373   5.688  0.00  0.00    +0.141 C 
ATOM     35  C   UNL     1       3.162  -6.039   6.300  0.00  0.00    -0.050 C 
ATOM     36  H   UNL     1       2.176  -6.102   4.513  0.00  0.00    -0.081 HD
ENDBRANCH  29  30
ENDBRANCH  28  29
ENDBRANCH  27  28
ENDBRANCH   4  27
TORSDOF 6
