REMARK  Name = CHEMBL270306
REMARK  9 active torsions:
REMARK  status: ('A' for Active; 'I' for Inactive)
REMARK    1  A    between atoms: C_1  and  C_2
REMARK    2  A    between atoms: C_2  and  C_4
REMARK    3  A    between atoms: C_2  and  N_10
REMARK    4  A    between atoms: C_21  and  O_23
REMARK    5  A    between atoms: O_23  and  C_24
REMARK    6  A    between atoms: C_31  and  O_36
REMARK    7  A    between atoms: C_32  and  O_34
REMARK    8  A    between atoms: O_34  and  C_35
REMARK    9  A    between atoms: O_36  and  C_37
REMARK                            x       y       z     vdW  Elec       q    Type
REMARK                         _______ _______ _______ _____ _____    ______ ____
ROOT
ATOM      1  N   UNL     1       2.753  -0.286  -0.115  0.00  0.00    -0.292 N 
ATOM      2  C   UNL     1       2.040  -0.591  -1.217  0.00  0.00    +0.307 C 
ATOM      3  O   UNL     1       0.825  -0.567  -1.181  0.00  0.00    -0.252 OA
ATOM      4  N   UNL     1       2.673  -0.922  -2.360  0.00  0.00    -0.249 N 
ATOM      5  C   UNL     1       4.140  -1.049  -2.409  0.00  0.00    +0.156 C 
ATOM      6  C   UNL     1       4.618  -0.398  -3.715  0.00  0.00    +0.248 C 
ATOM      7  O   UNL     1       3.982  -1.052  -4.816  0.00  0.00    -0.488 OA
ATOM      8  C   UNL     1       2.634  -1.217  -4.763  0.00  0.00    +0.145 A 
ATOM      9  C   UNL     1       1.956  -1.164  -3.547  0.00  0.00    +0.080 A 
ATOM     10  C   UNL     1       0.583  -1.343  -3.503  0.00  0.00    +0.031 A 
ATOM     11  C   UNL     1      -0.120  -1.578  -4.670  0.00  0.00    +0.048 A 
ATOM     12  C   UNL     1       0.549  -1.634  -5.884  0.00  0.00    +0.132 A 
ATOM     13  C   UNL     1       1.926  -1.446  -5.933  0.00  0.00    +0.093 A 
ATOM     14  H   UNL     1       3.719  -0.376  -0.122  0.00  0.00    +0.151 HD
ENDROOT
BRANCH   1  16
ATOM     15  C   UNL     1       1.598  -1.023   1.911  0.00  0.00    +0.033 C 
ATOM     16  C   UNL     1       2.070   0.181   1.093  0.00  0.00    +0.102 C 
BRANCH  16  17
ATOM     17  C   UNL     1       3.021   1.008   1.920  0.00  0.00    -0.027 A 
ATOM     18  C   UNL     1       4.343   0.624   2.043  0.00  0.00    +0.005 A 
ATOM     19  C   UNL     1       5.216   1.382   2.801  0.00  0.00    +0.000 A 
ATOM     20  C   UNL     1       4.766   2.525   3.436  0.00  0.00    +0.000 A 
ATOM     21  C   UNL     1       3.445   2.909   3.312  0.00  0.00    +0.000 A 
ATOM     22  C   UNL     1       2.573   2.154   2.551  0.00  0.00    +0.005 A 
ENDBRANCH  16  17
ENDBRANCH   1  16
BRANCH  12  23
ATOM     23  O   UNL     1      -0.144  -1.865  -7.030  0.00  0.00    -0.455 OA
BRANCH  23  24
ATOM     24  C   UNL     1      -0.059  -3.097  -7.590  0.00  0.00    +0.139 A 
ATOM     25  C   UNL     1       0.788  -4.059  -7.068  0.00  0.00    +0.066 A 
ATOM     26  C   UNL     1       0.854  -5.313  -7.662  0.00  0.00    +0.115 A 
ATOM     27  N   UNL     1       0.132  -5.619  -8.714  0.00  0.00    -0.255 NA
ATOM     28  C   UNL     1      -0.707  -4.738  -9.270  0.00  0.00    +0.078 A 
ATOM     29  C   UNL     1      -0.835  -3.439  -8.719  0.00  0.00    +0.046 A 
ATOM     30  C   UNL     1      -1.720  -2.519  -9.300  0.00  0.00    +0.063 A 
ATOM     31  C   UNL     1      -2.454  -2.884 -10.391  0.00  0.00    +0.162 A 
ATOM     32  C   UNL     1      -2.334  -4.171 -10.936  0.00  0.00    +0.164 A 
ATOM     33  C   UNL     1      -1.473  -5.082 -10.396  0.00  0.00    +0.077 A 
BRANCH  32  34
ATOM     34  O   UNL     1      -3.076  -4.511 -12.022  0.00  0.00    -0.491 OA
ATOM     35  C   UNL     1      -2.910  -5.836 -12.532  0.00  0.00    +0.277 C 
ENDBRANCH  32  34
BRANCH  31  36
ATOM     36  O   UNL     1      -3.312  -1.992 -10.955  0.00  0.00    -0.491 OA
ATOM     37  C   UNL     1      -3.390  -0.698 -10.353  0.00  0.00    +0.277 C 
ENDBRANCH  31  36
ENDBRANCH  23  24
ENDBRANCH  12  23
TORSDOF 6
