REMARK  Name = CHEMBL568101
REMARK  6 active torsions:
REMARK  status: ('A' for Active; 'I' for Inactive)
REMARK    1  A    between atoms: C_1  and  C_2
REMARK    2  A    between atoms: C_2  and  C_3
REMARK    3  A    between atoms: C_2  and  N_23
REMARK    4  A    between atoms: N_8  and  C_9
REMARK    5  A    between atoms: N_12  and  C_13
REMARK    6  A    between atoms: C_28  and  N_30
REMARK                            x       y       z     vdW  Elec       q    Type
REMARK                         _______ _______ _______ _____ _____    ______ ____
ROOT
ATOM      1  C   UNL     1       1.506   0.549  -0.614  0.00  0.00    -0.031 C 
ATOM      2  C   UNL     1       2.917   0.952  -1.055  0.00  0.00    +0.096 C 
ATOM      3  N   UNL     1       3.282   0.155  -2.237  0.00  0.00    -0.289 N 
ATOM      4  C   UNL     1       2.333   0.106  -3.360  0.00  0.00    +0.091 C 
ATOM      5  C   UNL     1       0.949  -0.257  -2.810  0.00  0.00    -0.059 C 
ATOM      6  N   UNL     1       0.583   0.688  -1.747  0.00  0.00    +0.383 N 
ATOM      7  C   UNL     1       0.652   2.059  -2.268  0.00  0.00    -0.096 C 
ATOM      8  C   UNL     1       4.453  -0.510  -2.290  0.00  0.00    +0.306 C 
ATOM      9  O   UNL     1       5.181  -0.538  -1.316  0.00  0.00    -0.252 OA
ATOM     10  N   UNL     1       4.817  -1.143  -3.422  0.00  0.00    -0.269 N 
ATOM     11  H   UNL     1       4.290  -1.036  -4.229  0.00  0.00    +0.156 HD
ATOM     12  H   UNL     1      -0.358   0.495  -1.438  0.00  0.00    -0.082 HD
ENDROOT
BRANCH  10  13
ATOM     13  C   UNL     1       5.956  -1.956  -3.433  0.00  0.00    +0.035 A 
ATOM     14  C   UNL     1       6.299  -2.684  -2.288  0.00  0.00    +0.024 A 
ATOM     15  C   UNL     1       7.399  -3.482  -2.270  0.00  0.00    +0.010 A 
ATOM     16  C   UNL     1       8.210  -3.583  -3.415  0.00  0.00    -0.018 A 
ATOM     17  C   UNL     1       9.353  -4.401  -3.426  0.00  0.00    +0.008 A 
ATOM     18  C   UNL     1      10.116  -4.477  -4.550  0.00  0.00    +0.001 A 
ATOM     19  C   UNL     1       9.783  -3.755  -5.694  0.00  0.00    +0.001 A 
ATOM     20  C   UNL     1       8.683  -2.953  -5.721  0.00  0.00    +0.008 A 
ATOM     21  C   UNL     1       7.870  -2.850  -4.579  0.00  0.00    -0.016 A 
ATOM     22  C   UNL     1       6.725  -2.037  -4.573  0.00  0.00    +0.031 A 
ENDBRANCH  10  13
BRANCH   1  24
ATOM     23  C   UNL     1       1.913   1.191   1.766  0.00  0.00    +0.026 C 
ATOM     24  C   UNL     1       1.050   1.456   0.530  0.00  0.00    +0.058 C 
BRANCH  24  25
ATOM     25  N   UNL     1      -0.353   1.178   0.845  0.00  0.00    -0.312 N 
ATOM     26  C   UNL     1      -1.136   2.153   1.437  0.00  0.00    +0.217 A 
ATOM     27  N   UNL     1      -0.602   3.335   1.707  0.00  0.00    -0.223 NA
ATOM     28  C   UNL     1      -1.320   4.293   2.272  0.00  0.00    +0.118 A 
ATOM     29  C   UNL     1      -2.645   4.051   2.583  0.00  0.00    +0.066 A 
ATOM     30  C   UNL     1      -3.179   2.797   2.286  0.00  0.00    +0.144 A 
ATOM     31  N   UNL     1      -2.403   1.884   1.714  0.00  0.00    -0.197 NA
ATOM     32  H   UNL     1      -0.733   0.310   0.638  0.00  0.00    +0.149 HD
BRANCH  30  33
ATOM     33  N   UNL     1      -4.510   2.509   2.582  0.00  0.00    -0.283 N 
ATOM     34  C   UNL     1      -5.414   3.354   3.156  0.00  0.00    +0.206 A 
ATOM     35  N   UNL     1      -6.562   2.758   3.287  0.00  0.00    -0.235 NA
ATOM     36  C   UNL     1      -6.478   1.490   2.806  0.00  0.00    +0.089 A 
ATOM     37  C   UNL     1      -5.163   1.312   2.342  0.00  0.00    +0.075 A 
ATOM     38  C   UNL     1      -4.783   0.100   1.786  0.00  0.00    +0.028 A 
ATOM     39  C   UNL     1      -5.698  -0.926   1.687  0.00  0.00    +0.002 A 
ATOM     40  C   UNL     1      -6.998  -0.755   2.140  0.00  0.00    +0.002 A 
ATOM     41  C   UNL     1      -7.391   0.438   2.702  0.00  0.00    +0.030 A 
ENDBRANCH  30  33
ENDBRANCH  24  25
ENDBRANCH   1  24
TORSDOF 4
