REMARK  Name = CHEMBL477817
REMARK  6 active torsions:
REMARK  status: ('A' for Active; 'I' for Inactive)
REMARK    1  A    between atoms: C_1  and  C_2
REMARK    2  A    between atoms: C_11  and  N_12
REMARK    3  A    between atoms: N_12  and  C_13
REMARK    4  A    between atoms: C_16  and  C_24
REMARK    5  A    between atoms: C_21  and  C_22
REMARK    6  A    between atoms: C_25  and  C_26
REMARK                            x       y       z     vdW  Elec       q    Type
REMARK                         _______ _______ _______ _____ _____    ______ ____
ROOT
ATOM      1  C   UNL     1       0.150  -0.712   3.595  0.00  0.00    +0.060 A 
ATOM      2  C   UNL     1      -0.164  -0.092   4.841  0.00  0.00    +0.031 A 
ATOM      3  C   UNL     1      -0.616   1.216   5.070  0.00  0.00    +0.027 A 
ATOM      4  C   UNL     1      -0.867   1.633   6.345  0.00  0.00    +0.015 A 
ATOM      5  S   UNL     1      -0.478   0.190   7.319  0.00  0.00    -0.069 S 
ATOM      6  C   UNL     1      -0.002  -0.896   5.994  0.00  0.00    +0.111 A 
ATOM      7  N   UNL     1       0.414  -2.144   5.946  0.00  0.00    -0.246 NA
ATOM      8  C   UNL     1       0.710  -2.736   4.808  0.00  0.00    +0.132 A 
ATOM      9  C   UNL     1       0.583  -2.044   3.598  0.00  0.00    +0.092 A 
ENDROOT
BRANCH   1  10
ATOM     10  N   UNL     1       0.025  -0.015   2.410  0.00  0.00    -0.313 N 
ATOM     11  H   UNL     1      -0.768  -0.126   1.863  0.00  0.00    +0.152 HD
BRANCH  10  22
ATOM     12  C   UNL     1      -0.188   1.171  -0.161  0.00  0.00    +0.046 C 
ATOM     13  C   UNL     1       0.977   1.451   0.753  0.00  0.00    -0.020 A 
ATOM     14  C   UNL     1       1.994   2.320   0.350  0.00  0.00    +0.004 A 
ATOM     15  C   UNL     1       2.236   3.108  -0.861  0.00  0.00    +0.028 A 
ATOM     16  C   UNL     1       3.394   3.763  -0.678  0.00  0.00    +0.083 A 
ATOM     17  N   UNL     1       3.913   3.459   0.551  0.00  0.00    -0.361 N 
ATOM     18  H   UNL     1       4.743   3.811   0.908  0.00  0.00    +0.165 HD
ATOM     19  C   UNL     1       3.079   2.577   1.206  0.00  0.00    +0.047 A 
ATOM     20  C   UNL     1       3.131   1.961   2.453  0.00  0.00    +0.028 A 
ATOM     21  C   UNL     1       2.125   1.106   2.841  0.00  0.00    +0.025 A 
ATOM     22  C   UNL     1       1.044   0.853   1.997  0.00  0.00    +0.035 A 
ENDBRANCH  10  22
ENDBRANCH   1  10
BRANCH   9  23
ATOM     23  C   UNL     1       0.901  -2.696   2.363  0.00  0.00    +0.103 C 
ATOM     24  N   UNL     1       1.154  -3.214   1.384  0.00  0.00    -0.191 NA
ENDBRANCH   9  23
BRANCH   4  25
ATOM     25  C   UNL     1      -1.324   2.901   6.786  0.00  0.00    +0.020 C 
ATOM     26  C   UNL     1      -1.517   3.129   8.108  0.00  0.00    +0.068 C 
BRANCH  26  27
ATOM     27  C   UNL     1      -1.973   4.395   8.549  0.00  0.00    +0.239 C 
ATOM     28  O   UNL     1      -2.192   5.279   7.741  0.00  0.00    -0.271 OA
ATOM     29  N   UNL     1      -2.165   4.622   9.864  0.00  0.00    -0.298 N 
ATOM     30  C   UNL     1      -1.934   3.651  10.943  0.00  0.00    +0.108 C 
ATOM     31  C   UNL     1      -2.311   4.343  12.270  0.00  0.00    +0.020 C 
ATOM     32  C   UNL     1      -3.268   5.474  11.812  0.00  0.00    +0.020 C 
ATOM     33  C   UNL     1      -2.634   5.887  10.458  0.00  0.00    +0.108 C 
ENDBRANCH  26  27
ENDBRANCH   4  25
TORSDOF 5
