REMARK  Name = CHEMBL459044
REMARK  11 active torsions:
REMARK  status: ('A' for Active; 'I' for Inactive)
REMARK    1  A    between atoms: C_1  and  C_2
REMARK    2  A    between atoms: C_2  and  O_3
REMARK    3  A    between atoms: O_3  and  C_4
REMARK    4  A    between atoms: C_9  and  O_10
REMARK    5  A    between atoms: O_10  and  C_11
REMARK    6  A    between atoms: C_12  and  C_30
REMARK    7  A    between atoms: N_17  and  C_18
REMARK    8  A    between atoms: C_21  and  N_24
REMARK    9  A    between atoms: N_32  and  C_33
REMARK   10  A    between atoms: C_34  and  C_40
REMARK   11  A    between atoms: C_38  and  C_39
REMARK                            x       y       z     vdW  Elec       q    Type
REMARK                         _______ _______ _______ _____ _____    ______ ____
ROOT
ATOM      1  C   UNL     1      -5.966  -2.450  -1.395  0.00  0.00    +0.237 A 
ATOM      2  C   UNL     1      -6.675  -1.655  -0.472  0.00  0.00    +0.117 A 
ATOM      3  C   UNL     1      -7.531  -2.295   0.432  0.00  0.00    +0.132 A 
ATOM      4  N   UNL     1      -7.643  -3.610   0.387  0.00  0.00    -0.222 NA
ATOM      5  C   UNL     1      -6.960  -4.326  -0.496  0.00  0.00    +0.223 A 
ATOM      6  N   UNL     1      -6.141  -3.764  -1.375  0.00  0.00    -0.178 NA
ATOM      7  N   UNL     1      -7.110  -5.698  -0.504  0.00  0.00    -0.284 N 
ATOM      8  H   UNL     1      -6.561  -6.243  -1.090  0.00  0.00    +0.155 HD
ENDROOT
BRANCH   7   9
ATOM      9  C   UNL     1      -8.055  -6.305   0.334  0.00  0.00    +0.034 A 
ATOM     10  C   UNL     1      -9.208  -5.619   0.690  0.00  0.00    +0.025 A 
ATOM     11  C   UNL     1     -10.140  -6.216   1.516  0.00  0.00    +0.025 A 
ATOM     12  C   UNL     1      -9.923  -7.504   1.989  0.00  0.00    +0.030 A 
ATOM     13  C   UNL     1      -8.769  -8.190   1.633  0.00  0.00    +0.025 A 
ATOM     14  C   UNL     1      -7.840  -7.594   0.803  0.00  0.00    +0.025 A 
BRANCH  12  15
ATOM     15  N   UNL     1     -10.867  -8.109   2.826  0.00  0.00    -0.333 N 
ATOM     16  C   UNL     1     -10.600  -9.417   3.446  0.00  0.00    +0.086 C 
ATOM     17  C   UNL     1     -10.884  -9.310   4.948  0.00  0.00    -0.063 C 
ATOM     18  N   UNL     1     -12.249  -8.809   5.152  0.00  0.00    +0.381 N 
ATOM     19  C   UNL     1     -12.364  -7.442   4.630  0.00  0.00    -0.063 C 
ATOM     20  C   UNL     1     -12.151  -7.454   3.117  0.00  0.00    +0.086 C 
ATOM     21  H   UNL     1     -12.902  -9.409   4.669  0.00  0.00    -0.086 HD
ATOM     22  H   UNL     1     -12.462  -8.810   6.138  0.00  0.00    -0.086 HD
ENDBRANCH  12  15
ENDBRANCH   7   9
BRANCH   2  23
ATOM     23  C   UNL     1      -6.519  -0.191  -0.458  0.00  0.00    +0.255 C 
ATOM     24  O   UNL     1      -5.770   0.348  -1.250  0.00  0.00    -0.270 OA
ATOM     25  N   UNL     1      -7.206   0.551   0.433  0.00  0.00    -0.281 N 
ATOM     26  H   UNL     1      -7.773   0.119   1.090  0.00  0.00    +0.155 HD
BRANCH  25  27
ATOM     27  C   UNL     1      -7.100   1.946   0.410  0.00  0.00    +0.040 A 
ATOM     28  C   UNL     1      -8.238   2.728   0.262  0.00  0.00    -0.029 A 
ATOM     29  C   UNL     1      -8.130   4.105   0.240  0.00  0.00    +0.005 A 
ATOM     30  C   UNL     1      -6.890   4.705   0.364  0.00  0.00    +0.001 A 
ATOM     31  C   UNL     1      -5.755   3.929   0.511  0.00  0.00    +0.005 A 
ATOM     32  C   UNL     1      -5.857   2.552   0.541  0.00  0.00    -0.029 A 
ATOM     33  C   UNL     1      -4.620   1.707   0.709  0.00  0.00    +0.045 C 
ATOM     34  C   UNL     1      -9.589   2.075   0.125  0.00  0.00    +0.045 C 
ENDBRANCH  25  27
ENDBRANCH   2  23
BRANCH   1  35
ATOM     35  O   UNL     1      -5.125  -1.882  -2.290  0.00  0.00    -0.433 OA
BRANCH  35  41
ATOM     36  C   UNL     1      -5.267  -3.060  -4.358  0.00  0.00    +0.163 A 
ATOM     37  C   UNL     1      -4.675  -3.873  -5.311  0.00  0.00    +0.049 A 
ATOM     38  C   UNL     1      -3.377  -4.315  -5.132  0.00  0.00    +0.004 A 
ATOM     39  C   UNL     1      -2.668  -3.948  -4.004  0.00  0.00    +0.004 A 
ATOM     40  C   UNL     1      -3.252  -3.136  -3.049  0.00  0.00    +0.050 A 
ATOM     41  C   UNL     1      -4.551  -2.685  -3.225  0.00  0.00    +0.172 A 
BRANCH  36  42
ATOM     42  O   UNL     1      -6.543  -2.624  -4.532  0.00  0.00    -0.489 OA
BRANCH  42  44
ATOM     43  C   UNL     1      -8.631  -2.462  -5.739  0.00  0.00    +0.048 C 
ATOM     44  C   UNL     1      -7.218  -3.048  -5.718  0.00  0.00    +0.226 C 
ENDBRANCH  42  44
ENDBRANCH  36  42
ENDBRANCH  35  41
ENDBRANCH   1  35
TORSDOF 8
