REMARK  Name = CHEMBL106654
REMARK  6 active torsions:
REMARK  status: ('A' for Active; 'I' for Inactive)
REMARK    1  A    between atoms: C_1  and  C_2
REMARK    2  A    between atoms: C_7  and  N_8
REMARK    3  A    between atoms: C_17  and  N_22
REMARK    4  A    between atoms: N_22  and  C_23
REMARK    5  A    between atoms: C_23  and  C_24
REMARK    6  A    between atoms: C_24  and  N_25
REMARK                            x       y       z     vdW  Elec       q    Type
REMARK                         _______ _______ _______ _____ _____    ______ ____
ROOT
ATOM      1  N   UNL     1       0.025  -0.015   2.416  0.00  0.00    -0.296 N 
ATOM      2  C   UNL     1      -0.365  -0.658   3.577  0.00  0.00    +0.149 A 
ATOM      3  C   UNL     1      -0.475   0.090   4.827  0.00  0.00    +0.106 A 
ATOM      4  C   UNL     1      -0.270   1.400   5.183  0.00  0.00    +0.142 A 
ATOM      5  N   UNL     1      -0.530   1.507   6.489  0.00  0.00    -0.243 NA
ATOM      6  C   UNL     1      -0.886   0.340   6.967  0.00  0.00    +0.204 A 
ATOM      7  N   UNL     1      -0.867  -0.570   5.978  0.00  0.00    -0.294 N 
ATOM      8  C   UNL     1      -1.145  -1.930   5.909  0.00  0.00    +0.075 A 
ATOM      9  C   UNL     1      -1.541  -2.621   7.044  0.00  0.00    +0.051 A 
ATOM     10  C   UNL     1      -1.817  -3.978   6.968  0.00  0.00    +0.029 A 
ATOM     11  C   UNL     1      -1.698  -4.650   5.754  0.00  0.00    +0.025 A 
ATOM     12  C   UNL     1      -1.307  -3.975   4.621  0.00  0.00    +0.032 A 
ATOM     13  C   UNL     1      -1.024  -2.605   4.683  0.00  0.00    +0.090 A 
ATOM     14  N   UNL     1      -0.644  -1.943   3.557  0.00  0.00    -0.228 NA
ATOM     15  H   UNL     1       0.230   0.933   2.433  0.00  0.00    +0.154 HD
ENDROOT
BRANCH   1  22
ATOM     16  C   UNL     1       2.523  -1.213   1.769  0.00  0.00    +0.046 C 
ATOM     17  C   UNL     1       1.323  -1.332   0.864  0.00  0.00    -0.028 A 
ATOM     18  C   UNL     1       1.415  -2.043  -0.317  0.00  0.00    +0.005 A 
ATOM     19  C   UNL     1       0.316  -2.153  -1.147  0.00  0.00    +0.002 A 
ATOM     20  C   UNL     1      -0.881  -1.552  -0.800  0.00  0.00    +0.022 A 
ATOM     21  C   UNL     1      -0.980  -0.840   0.380  0.00  0.00    +0.062 A 
ATOM     22  C   UNL     1       0.123  -0.731   1.219  0.00  0.00    +0.054 A 
ATOM     23 CL   UNL     1      -2.482  -0.085   0.815  0.00  0.00    -0.082 Cl
ENDBRANCH   1  22
BRANCH  10  24
ATOM     24  N   UNL     1      -2.216  -4.673   8.113  0.00  0.00    -0.343 N 
ATOM     25  H   UNL     1      -2.299  -4.206   8.960  0.00  0.00    +0.146 HD
BRANCH  24  26
ATOM     26  C   UNL     1      -2.508  -6.106   8.036  0.00  0.00    +0.117 C 
BRANCH  26  27
ATOM     27  C   UNL     1      -2.918  -6.619   9.418  0.00  0.00    +0.103 C 
BRANCH  27  28
ATOM     28  N   UNL     1      -3.212  -8.056   9.340  0.00  0.00    -0.297 NA
ATOM     29  C   UNL     1      -4.402  -8.307   8.514  0.00  0.00    +0.112 C 
ATOM     30  C   UNL     1      -4.636  -9.816   8.411  0.00  0.00    +0.175 C 
ATOM     31  O   UNL     1      -4.764 -10.365   9.725  0.00  0.00    -0.377 OA
ATOM     32  C   UNL     1      -3.622 -10.139  10.557  0.00  0.00    +0.175 C 
ATOM     33  C   UNL     1      -3.378  -8.633  10.682  0.00  0.00    +0.112 C 
ENDBRANCH  27  28
ENDBRANCH  26  27
ENDBRANCH  24  26
ENDBRANCH  10  24
TORSDOF 5
