REMARK  Name = CHEMBL312563
REMARK  3 active torsions:
REMARK  status: ('A' for Active; 'I' for Inactive)
REMARK    1  A    between atoms: C_6  and  N_7
REMARK    2  A    between atoms: C_11  and  C_12
REMARK    3  A    between atoms: C_15  and  O_19
REMARK                            x       y       z     vdW  Elec       q    Type
REMARK                         _______ _______ _______ _____ _____    ______ ____
ROOT
ATOM      1  C   UNL     1       0.011   1.302  -0.728  0.00  0.00    +0.023 A 
ATOM      2  C   UNL     1       1.201   2.003  -0.798  0.00  0.00    +0.006 A 
ATOM      3  C   UNL     1       2.397   1.368  -0.538  0.00  0.00    -0.032 A 
ATOM      4  C   UNL     1       2.417   0.014  -0.202  0.00  0.00    +0.027 A 
ATOM      5  C   UNL     1       1.214  -0.693  -0.131  0.00  0.00    +0.034 A 
ATOM      6  C   UNL     1       0.017  -0.048  -0.394  0.00  0.00    +0.025 A 
ATOM      7  C   UNL     1       3.812  -0.418   0.025  0.00  0.00    +0.190 C 
ATOM      8  O   UNL     1       4.159  -1.544   0.333  0.00  0.00    -0.287 OA
ATOM      9  C   UNL     1       4.683   0.681  -0.171  0.00  0.00    +0.005 C 
ATOM     10  C   UNL     1       6.031   0.672  -0.052  0.00  0.00    +0.015 C 
ATOM     11  C   UNL     1       3.822   1.867  -0.538  0.00  0.00    +0.074 C 
ENDROOT
BRANCH  10  12
ATOM     12  C   UNL     1       6.787   1.926  -0.164  0.00  0.00    -0.022 A 
ATOM     13  C   UNL     1       6.309   3.091   0.448  0.00  0.00    +0.027 A 
ATOM     14  C   UNL     1       7.021   4.265   0.340  0.00  0.00    +0.061 A 
ATOM     15  C   UNL     1       8.214   4.294  -0.376  0.00  0.00    +0.145 A 
ATOM     16  C   UNL     1       8.693   3.139  -0.985  0.00  0.00    +0.061 A 
ATOM     17  C   UNL     1       7.991   1.959  -0.878  0.00  0.00    +0.027 A 
ATOM     18 BR   UNL     1      10.315   3.188  -1.956  0.00  0.00    -0.046 Br
ATOM     19 BR   UNL     1       6.377   5.840   1.165  0.00  0.00    -0.046 Br
BRANCH  15  20
ATOM     20  O   UNL     1       8.912   5.454  -0.480  0.00  0.00    -0.505 OA
ATOM     21  H   UNL     1       9.561   5.587   0.225  0.00  0.00    +0.292 HD
ENDBRANCH  15  20
ENDBRANCH  10  12
BRANCH   6  22
ATOM     22  N   UNL     1      -1.187  -0.753  -0.324  0.00  0.00    -0.358 N 
ATOM     23  H   UNL     1      -2.026  -0.302  -0.508  0.00  0.00    +0.142 HD
ATOM     24  H   UNL     1      -1.184  -1.695  -0.091  0.00  0.00    +0.142 HD
ENDBRANCH   6  22
TORSDOF 3
