REMARK  Name = CHEMBL541726
REMARK  5 active torsions:
REMARK  status: ('A' for Active; 'I' for Inactive)
REMARK    1  A    between atoms: C_1  and  N_2
REMARK    2  A    between atoms: N_5  and  C_8
REMARK    3  A    between atoms: C_11  and  N_14
REMARK    4  A    between atoms: C_18  and  N_21
REMARK    5  A    between atoms: C_22  and  C_24
REMARK                            x       y       z     vdW  Elec       q    Type
REMARK                         _______ _______ _______ _____ _____    ______ ____
ROOT
ATOM      1  N   UNL     1      -2.388  -6.634   4.235  0.00  0.00    -0.284 N 
ATOM      2  C   UNL     1      -3.285  -7.575   3.750  0.00  0.00    +0.220 A 
ATOM      3  N   UNL     1      -3.638  -7.531   2.474  0.00  0.00    -0.221 NA
ATOM      4  C   UNL     1      -4.490  -8.412   1.977  0.00  0.00    +0.139 A 
ATOM      5  C   UNL     1      -5.016  -9.393   2.813  0.00  0.00    +0.070 A 
ATOM      6  C   UNL     1      -4.620  -9.407   4.147  0.00  0.00    +0.139 A 
ATOM      7  N   UNL     1      -3.760  -8.497   4.574  0.00  0.00    -0.221 NA
ATOM      8  H   UNL     1      -2.057  -6.703   5.144  0.00  0.00    +0.155 HD
ENDROOT
BRANCH   1  12
ATOM      9  C   UNL     1      -1.117  -3.508   1.786  0.00  0.00    +0.030 A 
ATOM     10  C   UNL     1      -2.415  -3.990   1.679  0.00  0.00    +0.025 A 
ATOM     11  C   UNL     1      -2.836  -5.025   2.490  0.00  0.00    +0.025 A 
ATOM     12  C   UNL     1      -1.961  -5.584   3.412  0.00  0.00    +0.034 A 
ATOM     13  C   UNL     1      -0.663  -5.103   3.519  0.00  0.00    +0.025 A 
ATOM     14  C   UNL     1      -0.240  -4.071   2.704  0.00  0.00    +0.025 A 
BRANCH   9  19
ATOM     15  C   UNL     1      -0.309   1.609   0.062  0.00  0.00    -0.096 C 
ATOM     16  N   UNL     1      -0.252   0.142   0.038  0.00  0.00    +0.380 N 
ATOM     17  C   UNL     1      -1.617  -0.400   0.046  0.00  0.00    -0.060 C 
ATOM     18  C   UNL     1      -1.561  -1.924  -0.094  0.00  0.00    +0.086 C 
ATOM     19  N   UNL     1      -0.690  -2.459   0.964  0.00  0.00    -0.333 N 
ATOM     20  C   UNL     1       0.642  -1.859   1.133  0.00  0.00    +0.086 C 
ATOM     21  C   UNL     1       0.483  -0.337   1.216  0.00  0.00    -0.060 C 
ATOM     22  H   UNL     1       0.223  -0.162  -0.799  0.00  0.00    -0.082 HD
ENDBRANCH   9  19
ENDBRANCH   1  12
BRANCH   5  23
ATOM     23  N   UNL     1      -5.921 -10.343   2.323  0.00  0.00    -0.279 N 
ATOM     24  C   UNL     1      -5.913 -10.670   1.015  0.00  0.00    +0.251 C 
ATOM     25  O   UNL     1      -5.054 -10.220   0.281  0.00  0.00    -0.270 OA
ATOM     26  H   UNL     1      -6.554 -10.766   2.924  0.00  0.00    +0.155 HD
BRANCH  24  27
ATOM     27  C   UNL     1      -6.947 -11.575   0.474  0.00  0.00    +0.074 A 
ATOM     28  C   UNL     1      -8.142 -11.053  -0.031  0.00  0.00    +0.054 A 
ATOM     29  C   UNL     1      -9.104 -11.905  -0.536  0.00  0.00    +0.021 A 
ATOM     30  C   UNL     1      -8.888 -13.272  -0.542  0.00  0.00    +0.003 A 
ATOM     31  C   UNL     1      -7.709 -13.795  -0.044  0.00  0.00    +0.021 A 
ATOM     32  C   UNL     1      -6.734 -12.956   0.459  0.00  0.00    +0.054 A 
ATOM     33 CL   UNL     1      -5.252 -13.614   1.077  0.00  0.00    -0.083 Cl
ATOM     34 CL   UNL     1      -8.416  -9.339  -0.023  0.00  0.00    -0.083 Cl
ENDBRANCH  24  27
ENDBRANCH   5  23
TORSDOF 4
