REMARK  Name = CHEMBL45693
REMARK  7 active torsions:
REMARK  status: ('A' for Active; 'I' for Inactive)
REMARK    1  A    between atoms: C_1  and  N_2
REMARK    2  A    between atoms: N_5  and  C_8
REMARK    3  A    between atoms: C_11  and  N_14
REMARK    4  A    between atoms: C_17  and  C_19
REMARK    5  A    between atoms: C_22  and  C_25
REMARK    6  A    between atoms: C_25  and  C_27
REMARK    7  A    between atoms: C_33  and  N_37
REMARK                            x       y       z     vdW  Elec       q    Type
REMARK                         _______ _______ _______ _____ _____    ______ ____
ROOT
ATOM      1  N   UNL     1      -1.491  -7.416   0.992  0.00  0.00    -0.243 N 
ATOM      2  C   UNL     1      -1.902  -7.989   2.159  0.00  0.00    +0.164 A 
ATOM      3  C   UNL     1      -1.851  -9.382   1.972  0.00  0.00    +0.086 A 
ATOM      4  C   UNL     1      -1.378  -9.599   0.605  0.00  0.00    +0.105 A 
ATOM      5  N   UNL     1      -1.185  -8.418   0.065  0.00  0.00    -0.168 NA
ATOM      6  C   UNL     1      -2.229 -10.217   3.036  0.00  0.00    +0.131 A 
ATOM      7  N   UNL     1      -2.619  -9.651   4.174  0.00  0.00    -0.220 NA
ATOM      8  C   UNL     1      -2.652  -8.337   4.307  0.00  0.00    +0.225 A 
ATOM      9  N   UNL     1      -2.308  -7.517   3.338  0.00  0.00    -0.216 NA
ENDROOT
BRANCH   1  13
ATOM     10  C   UNL     1      -0.760  -3.730  -1.028  0.00  0.00    +0.057 C 
ATOM     11  C   UNL     1      -2.205  -4.088  -0.674  0.00  0.00    +0.021 C 
ATOM     12  C   UNL     1      -2.310  -5.592  -0.417  0.00  0.00    +0.028 C 
ATOM     13  C   UNL     1      -1.391  -5.976   0.745  0.00  0.00    +0.110 C 
ATOM     14  C   UNL     1       0.054  -5.618   0.392  0.00  0.00    +0.028 C 
ATOM     15  C   UNL     1       0.159  -4.113   0.134  0.00  0.00    +0.021 C 
BRANCH  10  20
ATOM     16  C   UNL     1       0.029   1.469  -3.051  0.00  0.00    -0.096 C 
ATOM     17  N   UNL     1      -0.052   0.015  -2.855  0.00  0.00    +0.379 N 
ATOM     18  C   UNL     1      -1.443  -0.363  -2.573  0.00  0.00    -0.064 C 
ATOM     19  C   UNL     1      -1.531  -1.880  -2.387  0.00  0.00    +0.066 C 
ATOM     20  N   UNL     1      -0.660  -2.285  -1.275  0.00  0.00    -0.303 NA
ATOM     21  C   UNL     1       0.733  -1.890  -1.532  0.00  0.00    +0.066 C 
ATOM     22  C   UNL     1       0.802  -0.374  -1.725  0.00  0.00    -0.064 C 
ATOM     23  H   UNL     1       0.262  -0.455  -3.691  0.00  0.00    -0.082 HD
ENDBRANCH  10  20
ENDBRANCH   1  13
BRANCH   4  24
ATOM     24  C   UNL     1      -1.162 -10.909  -0.051  0.00  0.00    +0.003 A 
ATOM     25  C   UNL     1      -2.115 -11.921   0.081  0.00  0.00    +0.011 A 
ATOM     26  C   UNL     1      -1.917 -13.134  -0.526  0.00  0.00    +0.012 A 
ATOM     27  C   UNL     1      -0.759 -13.358  -1.278  0.00  0.00    +0.022 A 
ATOM     28  C   UNL     1       0.195 -12.344  -1.410  0.00  0.00    +0.012 A 
ATOM     29  C   UNL     1      -0.009 -11.129  -0.807  0.00  0.00    +0.011 A 
BRANCH  27  30
ATOM     30  C   UNL     1      -0.544 -14.664  -1.931  0.00  0.00    +0.193 C 
ATOM     31  O   UNL     1       0.582 -15.019  -2.223  0.00  0.00    -0.287 OA
BRANCH  30  32
ATOM     32  C   UNL     1      -1.696 -15.539  -2.230  0.00  0.00    +0.022 A 
ATOM     33  C   UNL     1      -2.974 -14.993  -2.369  0.00  0.00    +0.012 A 
ATOM     34  C   UNL     1      -4.045 -15.816  -2.649  0.00  0.00    +0.001 A 
ATOM     35  C   UNL     1      -3.856 -17.179  -2.790  0.00  0.00    +0.000 A 
ATOM     36  C   UNL     1      -2.592 -17.727  -2.654  0.00  0.00    +0.001 A 
ATOM     37  C   UNL     1      -1.511 -16.915  -2.380  0.00  0.00    +0.012 A 
ENDBRANCH  30  32
ENDBRANCH  27  30
ENDBRANCH   4  24
BRANCH   6  38
ATOM     38  N   UNL     1      -2.197 -11.592   2.903  0.00  0.00    -0.342 N 
ATOM     39  H   UNL     1      -1.733 -11.996   2.154  0.00  0.00    +0.144 HD
ATOM     40  H   UNL     1      -2.638 -12.153   3.560  0.00  0.00    +0.144 HD
ENDBRANCH   6  38
TORSDOF 6
