REMARK  Name = CHEMBL1081436
REMARK  5 active torsions:
REMARK  status: ('A' for Active; 'I' for Inactive)
REMARK    1  A    between atoms: C_1  and  C_2
REMARK    2  A    between atoms: C_5  and  C_25
REMARK    3  A    between atoms: C_7  and  N_8
REMARK    4  A    between atoms: C_20  and  N_24
REMARK    5  A    between atoms: N_27  and  C_28
REMARK                            x       y       z     vdW  Elec       q    Type
REMARK                         _______ _______ _______ _____ _____    ______ ____
ROOT
ATOM      1  C   UNL     1       2.088   1.183   0.825  0.00  0.00    +0.045 C 
ATOM      2  C   UNL     1       2.336  -0.302   0.885  0.00  0.00    -0.029 A 
ATOM      3  C   UNL     1       3.097  -0.914  -0.094  0.00  0.00    +0.006 A 
ATOM      4  C   UNL     1       3.328  -2.273  -0.046  0.00  0.00    +0.013 A 
ATOM      5  C   UNL     1       2.792  -3.036   0.994  0.00  0.00    +0.039 A 
ATOM      6  C   UNL     1       2.025  -2.419   1.981  0.00  0.00    +0.036 A 
ATOM      7  C   UNL     1       1.802  -1.052   1.927  0.00  0.00    +0.037 A 
ENDROOT
BRANCH   7   8
ATOM      8  N   UNL     1       1.038  -0.427   2.917  0.00  0.00    -0.284 N 
ATOM      9  C   UNL     1       0.363  -1.188   3.850  0.00  0.00    +0.207 A 
ATOM     10  N   UNL     1       0.264  -2.493   3.827  0.00  0.00    -0.214 NA
ATOM     11  C   UNL     1      -0.468  -2.916   4.892  0.00  0.00    +0.091 A 
ATOM     12  C   UNL     1      -0.870  -4.177   5.339  0.00  0.00    +0.030 A 
ATOM     13  C   UNL     1      -1.627  -4.288   6.484  0.00  0.00    +0.002 A 
ATOM     14  C   UNL     1      -1.994  -3.156   7.197  0.00  0.00    +0.002 A 
ATOM     15  C   UNL     1      -1.605  -1.903   6.768  0.00  0.00    +0.028 A 
ATOM     16  C   UNL     1      -0.842  -1.774   5.618  0.00  0.00    +0.077 A 
ATOM     17  N   UNL     1      -0.299  -0.691   4.941  0.00  0.00    -0.264 N 
ATOM     18  C   UNL     1      -0.408   0.650   5.303  0.00  0.00    +0.145 A 
ATOM     19  C   UNL     1      -0.490   1.639   4.329  0.00  0.00    +0.090 A 
ATOM     20  C   UNL     1      -0.598   2.964   4.741  0.00  0.00    +0.121 A 
ATOM     21  N   UNL     1      -0.619   3.235   6.044  0.00  0.00    -0.221 NA
ATOM     22  C   UNL     1      -0.539   2.269   6.937  0.00  0.00    +0.225 A 
ATOM     23  N   UNL     1      -0.441   1.003   6.585  0.00  0.00    -0.218 NA
ATOM     24  H   UNL     1       0.983   0.541   2.949  0.00  0.00    +0.155 HD
BRANCH  20  25
ATOM     25  N   UNL     1      -0.682   3.986   3.809  0.00  0.00    -0.343 N 
ATOM     26  H   UNL     1      -0.666   3.781   2.861  0.00  0.00    +0.144 HD
ATOM     27  H   UNL     1      -0.757   4.907   4.104  0.00  0.00    +0.144 HD
ENDBRANCH  20  25
ENDBRANCH   7   8
BRANCH   5  28
ATOM     28  C   UNL     1       3.037  -4.493   1.047  0.00  0.00    +0.248 C 
ATOM     29  O   UNL     1       2.570  -5.155   1.953  0.00  0.00    -0.270 OA
ATOM     30  N   UNL     1       3.779  -5.087   0.091  0.00  0.00    -0.281 N 
ATOM     31  H   UNL     1       4.098  -4.571  -0.666  0.00  0.00    +0.155 HD
BRANCH  30  32
ATOM     32  C   UNL     1       4.088  -6.444   0.191  0.00  0.00    +0.042 A 
ATOM     33  C   UNL     1       3.190  -7.324   0.759  0.00  0.00    +0.024 A 
ATOM     34  C   UNL     1       3.490  -8.680   0.862  0.00  0.00    +0.002 A 
ATOM     35  C   UNL     1       4.674  -9.177   0.407  0.00  0.00    +0.010 A 
ATOM     36  C   UNL     1       5.614  -8.315  -0.178  0.00  0.00    +0.002 A 
ATOM     37  C   UNL     1       5.317  -6.932  -0.293  0.00  0.00    +0.006 A 
ATOM     38  C   UNL     1       6.274  -6.093  -0.887  0.00  0.00    +0.030 A 
ATOM     39  C   UNL     1       7.440  -6.641  -1.331  0.00  0.00    +0.111 A 
ATOM     40  N   UNL     1       7.691  -7.938  -1.216  0.00  0.00    -0.263 NA
ATOM     41  C   UNL     1       6.849  -8.778  -0.662  0.00  0.00    +0.119 A 
ENDBRANCH  30  32
ENDBRANCH   5  28
TORSDOF 4
