REMARK  Name = CHEMBL1081436
REMARK  5 active torsions:
REMARK  status: ('A' for Active; 'I' for Inactive)
REMARK    1  A    between atoms: C_1  and  C_2
REMARK    2  A    between atoms: C_5  and  C_25
REMARK    3  A    between atoms: C_7  and  N_8
REMARK    4  A    between atoms: C_20  and  N_24
REMARK    5  A    between atoms: N_27  and  C_28
REMARK                            x       y       z     vdW  Elec       q    Type
REMARK                         _______ _______ _______ _____ _____    ______ ____
ROOT
ATOM      1  C   UNL     1      -0.859   1.607   0.148  0.00  0.00    +0.045 C 
ATOM      2  C   UNL     1      -1.904   0.642   0.645  0.00  0.00    -0.029 A 
ATOM      3  C   UNL     1      -3.095   0.502  -0.042  0.00  0.00    +0.006 A 
ATOM      4  C   UNL     1      -4.057  -0.380   0.408  0.00  0.00    +0.013 A 
ATOM      5  C   UNL     1      -3.828  -1.135   1.560  0.00  0.00    +0.039 A 
ATOM      6  C   UNL     1      -2.626  -0.995   2.252  0.00  0.00    +0.036 A 
ATOM      7  C   UNL     1      -1.664  -0.109   1.790  0.00  0.00    +0.037 A 
ENDROOT
BRANCH   7   8
ATOM      8  N   UNL     1      -0.455   0.032   2.478  0.00  0.00    -0.286 N 
ATOM      9  C   UNL     1      -0.260  -0.630   3.673  0.00  0.00    +0.184 A 
ATOM     10  N   UNL     1      -0.154  -1.928   3.806  0.00  0.00    -0.327 N 
ATOM     11  C   UNL     1       0.031  -2.241   5.116  0.00  0.00    +0.066 A 
ATOM     12  C   UNL     1       0.200  -3.448   5.799  0.00  0.00    +0.028 A 
ATOM     13  C   UNL     1       0.370  -3.443   7.165  0.00  0.00    +0.002 A 
ATOM     14  C   UNL     1       0.376  -2.248   7.869  0.00  0.00    +0.002 A 
ATOM     15  C   UNL     1       0.211  -1.047   7.209  0.00  0.00    +0.028 A 
ATOM     16  C   UNL     1       0.038  -1.034   5.834  0.00  0.00    +0.074 A 
ATOM     17  N   UNL     1      -0.142  -0.027   4.897  0.00  0.00    -0.266 N 
ATOM     18  C   UNL     1      -0.196   1.342   5.154  0.00  0.00    +0.145 A 
ATOM     19  C   UNL     1      -0.273   2.253   4.106  0.00  0.00    +0.090 A 
ATOM     20  C   UNL     1      -0.325   3.610   4.415  0.00  0.00    +0.121 A 
ATOM     21  N   UNL     1      -0.299   3.983   5.693  0.00  0.00    -0.221 NA
ATOM     22  C   UNL     1      -0.225   3.088   6.657  0.00  0.00    +0.225 A 
ATOM     23  N   UNL     1      -0.180   1.796   6.404  0.00  0.00    -0.218 NA
ATOM     24  H   UNL     1       0.247   0.594   2.115  0.00  0.00    +0.155 HD
ATOM     25  H   UNL     1      -0.201  -2.570   3.080  0.00  0.00    +0.169 HD
BRANCH  20  26
ATOM     26  N   UNL     1      -0.401   4.558   3.407  0.00  0.00    -0.343 N 
ATOM     27  H   UNL     1      -0.419   4.278   2.478  0.00  0.00    +0.144 HD
ATOM     28  H   UNL     1      -0.437   5.501   3.630  0.00  0.00    +0.144 HD
ENDBRANCH  20  26
ENDBRANCH   7   8
BRANCH   5  29
ATOM     29  C   UNL     1      -4.856  -2.080   2.043  0.00  0.00    +0.248 C 
ATOM     30  O   UNL     1      -4.655  -2.737   3.046  0.00  0.00    -0.270 OA
ATOM     31  N   UNL     1      -6.018  -2.214   1.372  0.00  0.00    -0.281 N 
ATOM     32  H   UNL     1      -6.207  -1.642   0.612  0.00  0.00    +0.155 HD
BRANCH  31  33
ATOM     33  C   UNL     1      -6.947  -3.175   1.771  0.00  0.00    +0.042 A 
ATOM     34  C   UNL     1      -7.091  -3.495   3.105  0.00  0.00    +0.024 A 
ATOM     35  C   UNL     1      -8.015  -4.452   3.512  0.00  0.00    +0.002 A 
ATOM     36  C   UNL     1      -8.805  -5.100   2.610  0.00  0.00    +0.010 A 
ATOM     37  C   UNL     1      -8.690  -4.802   1.243  0.00  0.00    +0.002 A 
ATOM     38  C   UNL     1      -7.755  -3.824   0.817  0.00  0.00    +0.006 A 
ATOM     39  C   UNL     1      -7.664  -3.543  -0.556  0.00  0.00    +0.030 A 
ATOM     40  C   UNL     1      -8.480  -4.214  -1.417  0.00  0.00    +0.111 A 
ATOM     41  N   UNL     1      -9.350  -5.120  -0.992  0.00  0.00    -0.263 NA
ATOM     42  C   UNL     1      -9.481  -5.441   0.274  0.00  0.00    +0.119 A 
ENDBRANCH  31  33
ENDBRANCH   5  29
TORSDOF 4
