REMARK  Name = CHEMBL566362
REMARK  5 active torsions:
REMARK  status: ('A' for Active; 'I' for Inactive)
REMARK    1  A    between atoms: C_1  and  C_2
REMARK    2  A    between atoms: C_2  and  C_3
REMARK    3  A    between atoms: C_2  and  N_18
REMARK    4  A    between atoms: N_11  and  C_12
REMARK    5  A    between atoms: C_23  and  N_25
REMARK                            x       y       z     vdW  Elec       q    Type
REMARK                         _______ _______ _______ _____ _____    ______ ____
ROOT
ATOM      1  C   UNL     1      -1.124  -0.168  -0.857  0.00  0.00    +0.028 C 
ATOM      2  C   UNL     1      -1.046  -1.564  -0.236  0.00  0.00    +0.075 C 
ENDROOT
BRANCH   2   3
ATOM      3  C   UNL     1       0.035  -1.582   0.846  0.00  0.00    +0.026 C 
ATOM      4  C   UNL     1      -0.314  -0.563   1.934  0.00  0.00    +0.008 C 
ATOM      5  C   UNL     1       0.784  -0.557   3.000  0.00  0.00    +0.019 C 
ATOM      6  C   UNL     1       0.871  -1.943   3.646  0.00  0.00    +0.109 C 
ATOM      7  N   UNL     1       1.062  -2.946   2.590  0.00  0.00    -0.285 N 
ATOM      8  C   UNL     1       0.114  -2.980   1.468  0.00  0.00    +0.114 C 
ATOM      9  C   UNL     1       2.088  -3.818   2.648  0.00  0.00    +0.306 C 
ATOM     10  O   UNL     1       2.188  -4.696   1.813  0.00  0.00    -0.252 OA
ATOM     11  N   UNL     1       3.003  -3.717   3.633  0.00  0.00    -0.269 N 
ATOM     12  H   UNL     1       2.869  -3.085   4.356  0.00  0.00    +0.156 HD
BRANCH  11  13
ATOM     13  C   UNL     1       4.146  -4.524   3.611  0.00  0.00    +0.035 A 
ATOM     14  C   UNL     1       4.724  -4.879   2.400  0.00  0.00    +0.023 A 
ATOM     15  C   UNL     1       5.853  -5.675   2.382  0.00  0.00    +0.002 A 
ATOM     16  C   UNL     1       6.407  -6.118   3.568  0.00  0.00    +0.000 A 
ATOM     17  C   UNL     1       5.834  -5.766   4.777  0.00  0.00    +0.002 A 
ATOM     18  C   UNL     1       4.708  -4.966   4.801  0.00  0.00    +0.023 A 
ENDBRANCH  11  13
ENDBRANCH   2   3
BRANCH   2  19
ATOM     19  N   UNL     1      -0.713  -2.542  -1.275  0.00  0.00    -0.311 N 
ATOM     20  C   UNL     1      -1.715  -3.090  -2.057  0.00  0.00    +0.217 A 
ATOM     21  N   UNL     1      -2.970  -2.715  -1.855  0.00  0.00    -0.223 NA
ATOM     22  C   UNL     1      -3.955  -3.216  -2.583  0.00  0.00    +0.118 A 
ATOM     23  C   UNL     1      -3.664  -4.145  -3.566  0.00  0.00    +0.066 A 
ATOM     24  C   UNL     1      -2.335  -4.520  -3.754  0.00  0.00    +0.144 A 
ATOM     25  N   UNL     1      -1.396  -3.973  -2.991  0.00  0.00    -0.197 NA
ATOM     26  H   UNL     1       0.210  -2.805  -1.415  0.00  0.00    +0.149 HD
BRANCH  24  27
ATOM     27  N   UNL     1      -1.996  -5.453  -4.732  0.00  0.00    -0.283 N 
ATOM     28  C   UNL     1      -2.856  -6.080  -5.586  0.00  0.00    +0.206 A 
ATOM     29  N   UNL     1      -2.200  -6.886  -6.367  0.00  0.00    -0.235 NA
ATOM     30  C   UNL     1      -0.875  -6.835  -6.072  0.00  0.00    +0.089 A 
ATOM     31  C   UNL     1      -0.723  -5.911  -5.023  0.00  0.00    +0.075 A 
ATOM     32  C   UNL     1       0.538  -5.646  -4.511  0.00  0.00    +0.028 A 
ATOM     33  C   UNL     1       1.641  -6.288  -5.035  0.00  0.00    +0.002 A 
ATOM     34  C   UNL     1       1.497  -7.198  -6.072  0.00  0.00    +0.002 A 
ATOM     35  C   UNL     1       0.252  -7.479  -6.588  0.00  0.00    +0.030 A 
ENDBRANCH  24  27
ENDBRANCH   2  19
TORSDOF 4
