REMARK  Name = CHEMBL247479
REMARK  10 active torsions:
REMARK  status: ('A' for Active; 'I' for Inactive)
REMARK    1  A    between atoms: C_1  and  N_2
REMARK    2  A    between atoms: N_2  and  C_3
REMARK    3  A    between atoms: N_2  and  C_4
REMARK    4  A    between atoms: C_4  and  C_5
REMARK    5  A    between atoms: C_5  and  O_6
REMARK    6  A    between atoms: O_6  and  C_7
REMARK    7  A    between atoms: C_10  and  C_13
REMARK    8  A    between atoms: C_14  and  C_30
REMARK    9  A    between atoms: N_22  and  C_23
REMARK   10  A    between atoms: C_23  and  C_24
REMARK                            x       y       z     vdW  Elec       q    Type
REMARK                         _______ _______ _______ _____ _____    ______ ____
ROOT
ATOM      1  C   UNL     1       8.263   0.355   0.668  0.00  0.00    +0.146 A 
ATOM      2  C   UNL     1       9.013  -0.070   1.731  0.00  0.00    +0.041 A 
ATOM      3  C   UNL     1      10.343   0.522   1.541  0.00  0.00    +0.088 A 
ATOM      4  C   UNL     1      11.555   0.494   2.244  0.00  0.00    +0.134 A 
ATOM      5  N   UNL     1      12.585   1.177   1.752  0.00  0.00    -0.220 NA
ATOM      6  C   UNL     1      12.469   1.864   0.631  0.00  0.00    +0.227 A 
ATOM      7  N   UNL     1      11.350   1.917  -0.059  0.00  0.00    -0.200 NA
ATOM      8  C   UNL     1      10.264   1.266   0.353  0.00  0.00    +0.233 A 
ATOM      9  O   UNL     1       9.017   1.135  -0.132  0.00  0.00    -0.436 OA
ATOM     10  N   UNL     1      11.676  -0.226   3.419  0.00  0.00    -0.326 N 
ATOM     11  H   UNL     1      10.917  -0.719   3.767  0.00  0.00    +0.148 HD
ENDROOT
BRANCH   1  15
ATOM     12  C   UNL     1       4.192  -0.641  -0.014  0.00  0.00    +0.120 A 
ATOM     13  C   UNL     1       4.599  -0.214   1.244  0.00  0.00    +0.046 A 
ATOM     14  C   UNL     1       5.919   0.110   1.470  0.00  0.00    +0.015 A 
ATOM     15  C   UNL     1       6.849   0.009   0.431  0.00  0.00    +0.018 A 
ATOM     16  C   UNL     1       6.434  -0.421  -0.832  0.00  0.00    +0.015 A 
ATOM     17  C   UNL     1       5.113  -0.748  -1.048  0.00  0.00    +0.046 A 
BRANCH  12  18
ATOM     18  O   UNL     1       2.889  -0.960  -0.232  0.00  0.00    -0.494 OA
BRANCH  18  19
ATOM     19  C   UNL     1       1.995  -0.827   0.874  0.00  0.00    +0.210 C 
BRANCH  19  20
ATOM     20  C   UNL     1       0.583  -1.228   0.440  0.00  0.00    -0.038 C 
BRANCH  20  22
ATOM     21  C   UNL     1       0.843  -3.454   1.295  0.00  0.00    -0.096 C 
ATOM     22  N   UNL     1       0.565  -2.655   0.094  0.00  0.00    +0.378 N 
ATOM     23  C   UNL     1      -0.758  -3.013  -0.436  0.00  0.00    -0.096 C 
ATOM     24  H   UNL     1       1.268  -2.841  -0.605  0.00  0.00    -0.082 HD
ENDBRANCH  20  22
ENDBRANCH  19  20
ENDBRANCH  18  19
ENDBRANCH  12  18
ENDBRANCH   1  15
BRANCH   2  25
ATOM     25  C   UNL     1       8.574  -0.946   2.841  0.00  0.00    -0.014 A 
ATOM     26  C   UNL     1       8.470  -0.436   4.136  0.00  0.00    +0.008 A 
ATOM     27  C   UNL     1       8.061  -1.256   5.167  0.00  0.00    +0.001 A 
ATOM     28  C   UNL     1       7.753  -2.582   4.918  0.00  0.00    +0.000 A 
ATOM     29  C   UNL     1       7.853  -3.094   3.637  0.00  0.00    +0.001 A 
ATOM     30  C   UNL     1       8.257  -2.282   2.597  0.00  0.00    +0.008 A 
ENDBRANCH   2  25
BRANCH  10  31
ATOM     31  C   UNL     1      12.952  -0.243   4.139  0.00  0.00    +0.134 C 
BRANCH  31  32
ATOM     32  C   UNL     1      12.818  -1.106   5.395  0.00  0.00    +0.135 C 
ATOM     33  C   UNL     1      14.119  -1.032   6.223  0.00  0.00    +0.035 C 
ATOM     34  C   UNL     1      14.276  -2.495   6.720  0.00  0.00    +0.031 C 
ATOM     35  C   UNL     1      13.702  -3.279   5.513  0.00  0.00    +0.160 C 
ATOM     36  O   UNL     1      12.614  -2.474   5.025  0.00  0.00    -0.375 OA
ENDBRANCH  31  32
ENDBRANCH  10  31
TORSDOF 8
