REMARK  Name = CHEMBL315279
REMARK  4 active torsions:
REMARK  status: ('A' for Active; 'I' for Inactive)
REMARK    1  A    between atoms: C_1  and  C_2
REMARK    2  A    between atoms: C_7  and  N_8
REMARK    3  A    between atoms: C_9  and  C_11
REMARK    4  A    between atoms: N_20  and  N_21
REMARK                            x       y       z     vdW  Elec       q    Type
REMARK                         _______ _______ _______ _____ _____    ______ ____
ROOT
ATOM      1  C   UNL     1      -0.458   0.115   4.810  0.00  0.00    +0.038 A 
ATOM      2  C   UNL     1      -0.169   1.486   4.844  0.00  0.00    +0.015 A 
ATOM      3  C   UNL     1      -0.257   2.200   5.993  0.00  0.00    +0.029 A 
ATOM      4  C   UNL     1      -0.647   1.583   7.208  0.00  0.00    +0.080 A 
ATOM      5  C   UNL     1      -0.934   0.198   7.148  0.00  0.00    +0.042 A 
ATOM      6  C   UNL     1      -0.851  -0.525   5.990  0.00  0.00    +0.030 A 
ATOM      7  S   UNL     1      -1.371  -0.172   8.831  0.00  0.00    -0.051 S 
ATOM      8  C   UNL     1      -1.153   1.476   9.486  0.00  0.00    +0.177 A 
ATOM      9  N   UNL     1      -0.781   2.154   8.421  0.00  0.00    -0.224 NA
ATOM     10  N   UNL     1      -1.330   1.924  10.777  0.00  0.00    -0.226 N 
ATOM     11  H   UNL     1      -1.611   1.306  11.470  0.00  0.00    +0.174 HD
ENDROOT
BRANCH  10  12
ATOM     12  N   UNL     1      -1.104   3.271  11.089  0.00  0.00    -0.177 N 
ATOM     13  C   UNL     1       0.156   3.725  11.488  0.00  0.00    +0.114 C 
ATOM     14  C   UNL     1       0.460   5.018  11.285  0.00  0.00    +0.020 C 
ATOM     15  C   UNL     1      -0.530   5.905  10.657  0.00  0.00    +0.018 C 
ATOM     16  C   UNL     1      -1.804   5.496  10.534  0.00  0.00    +0.089 C 
ATOM     17  N   UNL     1      -2.138   4.228  11.008  0.00  0.00    -0.255 N 
ATOM     18  H   UNL     1      -3.046   4.014  11.273  0.00  0.00    +0.171 HD
ENDBRANCH  10  12
BRANCH   1  20
ATOM     19  N   UNL     1       0.026  -0.015   2.417  0.00  0.00    -0.280 N 
ATOM     20  C   UNL     1      -0.354  -0.641   3.548  0.00  0.00    +0.248 C 
ATOM     21  O   UNL     1      -0.612  -1.829   3.528  0.00  0.00    -0.270 OA
ATOM     22  H   UNL     1       0.301   0.915   2.446  0.00  0.00    +0.155 HD
BRANCH  19  29
ATOM     23  C   UNL     1      -2.321   0.100   0.812  0.00  0.00    +0.046 C 
ATOM     24  C   UNL     1      -1.102  -0.676   0.386  0.00  0.00    -0.028 A 
ATOM     25  C   UNL     1      -1.099  -1.354  -0.818  0.00  0.00    +0.005 A 
ATOM     26  C   UNL     1       0.019  -2.066  -1.210  0.00  0.00    +0.002 A 
ATOM     27  C   UNL     1       1.139  -2.103  -0.400  0.00  0.00    +0.022 A 
ATOM     28  C   UNL     1       1.143  -1.427   0.806  0.00  0.00    +0.062 A 
ATOM     29  C   UNL     1       0.023  -0.705   1.200  0.00  0.00    +0.055 A 
ATOM     30 CL   UNL     1       2.550  -1.473   1.823  0.00  0.00    -0.082 Cl
ENDBRANCH  19  29
ENDBRANCH   1  20
TORSDOF 3
