REMARK  Name = CHEMBL584044
REMARK  5 active torsions:
REMARK  status: ('A' for Active; 'I' for Inactive)
REMARK    1  A    between atoms: C_1  and  C_2
REMARK    2  A    between atoms: C_2  and  C_3
REMARK    3  A    between atoms: C_2  and  N_13
REMARK    4  A    between atoms: N_11  and  C_12
REMARK    5  A    between atoms: C_18  and  N_20
REMARK                            x       y       z     vdW  Elec       q    Type
REMARK                         _______ _______ _______ _____ _____    ______ ____
ROOT
ATOM      1  N   UNL     1       0.711  -0.476   1.197  0.00  0.00    -0.311 N 
ATOM      2  C   UNL     1       2.091  -0.585   1.184  0.00  0.00    +0.217 A 
ATOM      3  N   UNL     1       2.756  -0.246   0.089  0.00  0.00    -0.223 NA
ATOM      4  C   UNL     1       4.076  -0.336   0.040  0.00  0.00    +0.118 A 
ATOM      5  C   UNL     1       4.764  -0.792   1.149  0.00  0.00    +0.066 A 
ATOM      6  C   UNL     1       4.037  -1.142   2.286  0.00  0.00    +0.144 A 
ATOM      7  N   UNL     1       2.714  -1.022   2.268  0.00  0.00    -0.197 NA
ATOM      8  H   UNL     1       0.213  -0.718   1.993  0.00  0.00    +0.149 HD
ENDROOT
BRANCH   6   9
ATOM      9  N   UNL     1       4.688  -1.607   3.427  0.00  0.00    -0.283 N 
ATOM     10  C   UNL     1       6.034  -1.768   3.581  0.00  0.00    +0.206 A 
ATOM     11  N   UNL     1       6.296  -2.220   4.772  0.00  0.00    -0.235 NA
ATOM     12  C   UNL     1       5.139  -2.382   5.465  0.00  0.00    +0.089 A 
ATOM     13  C   UNL     1       4.092  -1.987   4.616  0.00  0.00    +0.075 A 
ATOM     14  C   UNL     1       2.780  -2.040   5.063  0.00  0.00    +0.028 A 
ATOM     15  C   UNL     1       2.508  -2.479   6.342  0.00  0.00    +0.002 A 
ATOM     16  C   UNL     1       3.538  -2.867   7.186  0.00  0.00    +0.002 A 
ATOM     17  C   UNL     1       4.846  -2.828   6.756  0.00  0.00    +0.030 A 
ENDBRANCH   6   9
BRANCH   1  19
ATOM     18  C   UNL     1      -0.022   1.534   0.013  0.00  0.00    +0.028 C 
ATOM     19  C   UNL     1       0.003   0.004   0.008  0.00  0.00    +0.075 C 
BRANCH  19  20
ATOM     20  C   UNL     1      -1.431  -0.530   0.017  0.00  0.00    +0.026 C 
ATOM     21  C   UNL     1      -2.133  -0.129  -1.282  0.00  0.00    +0.008 C 
ATOM     22  C   UNL     1      -3.557  -0.690  -1.288  0.00  0.00    +0.019 C 
ATOM     23  C   UNL     1      -4.340  -0.098  -0.112  0.00  0.00    +0.109 C 
ATOM     24  N   UNL     1      -3.596  -0.354   1.129  0.00  0.00    -0.285 N 
ATOM     25  C   UNL     1      -2.190   0.064   1.208  0.00  0.00    +0.114 C 
ATOM     26  C   UNL     1      -4.192  -0.961   2.174  0.00  0.00    +0.302 C 
ATOM     27  O   UNL     1      -3.541  -1.253   3.159  0.00  0.00    -0.253 OA
ATOM     28  N   UNL     1      -5.509  -1.244   2.128  0.00  0.00    -0.302 N 
ATOM     29  C   UNL     1      -6.179  -1.803   3.304  0.00  0.00    +0.129 C 
ATOM     30  H   UNL     1      -6.012  -1.078   1.316  0.00  0.00    +0.150 HD
ENDBRANCH  19  20
ENDBRANCH   1  19
TORSDOF 3
