REMARK  Name = CHEMBL188666
REMARK  4 active torsions:
REMARK  status: ('A' for Active; 'I' for Inactive)
REMARK    1  A    between atoms: C_1  and  C_2
REMARK    2  A    between atoms: C_7  and  N_8
REMARK    3  A    between atoms: C_20  and  N_22
REMARK    4  A    between atoms: C_25  and  O_28
REMARK                            x       y       z     vdW  Elec       q    Type
REMARK                         _______ _______ _______ _____ _____    ______ ____
ROOT
ATOM      1  N   UNL     1       0.025  -0.015   2.416  0.00  0.00    -0.296 N 
ATOM      2  C   UNL     1      -0.365  -0.658   3.577  0.00  0.00    +0.149 A 
ATOM      3  C   UNL     1      -0.476   0.088   4.829  0.00  0.00    +0.107 A 
ATOM      4  C   UNL     1      -0.271   1.398   5.185  0.00  0.00    +0.142 A 
ATOM      5  N   UNL     1      -0.531   1.505   6.490  0.00  0.00    -0.243 NA
ATOM      6  C   UNL     1      -0.886   0.339   6.969  0.00  0.00    +0.205 A 
ATOM      7  N   UNL     1      -0.868  -0.572   5.979  0.00  0.00    -0.278 N 
ATOM      8  C   UNL     1      -1.147  -1.929   5.912  0.00  0.00    +0.167 A 
ATOM      9  C   UNL     1      -1.027  -2.600   4.686  0.00  0.00    +0.109 A 
ATOM     10  N   UNL     1      -0.644  -1.944   3.559  0.00  0.00    -0.227 NA
ATOM     11  C   UNL     1      -1.312  -3.973   4.632  0.00  0.00    +0.035 A 
ATOM     12  C   UNL     1      -1.701  -4.609   5.793  0.00  0.00    +0.046 A 
ATOM     13  C   UNL     1      -1.798  -3.877   6.975  0.00  0.00    +0.124 A 
ATOM     14  N   UNL     1      -1.525  -2.583   7.000  0.00  0.00    -0.212 NA
ATOM     15  H   UNL     1       0.230   0.933   2.433  0.00  0.00    +0.154 HD
ENDROOT
BRANCH   1  22
ATOM     16  C   UNL     1       2.522  -1.213   1.768  0.00  0.00    +0.046 C 
ATOM     17  C   UNL     1       1.323  -1.332   0.864  0.00  0.00    -0.028 A 
ATOM     18  C   UNL     1       1.415  -2.043  -0.317  0.00  0.00    +0.005 A 
ATOM     19  C   UNL     1       0.315  -2.153  -1.147  0.00  0.00    +0.002 A 
ATOM     20  C   UNL     1      -0.881  -1.552  -0.800  0.00  0.00    +0.022 A 
ATOM     21  C   UNL     1      -0.981  -0.839   0.380  0.00  0.00    +0.062 A 
ATOM     22  C   UNL     1       0.122  -0.731   1.219  0.00  0.00    +0.054 A 
ATOM     23 CL   UNL     1      -2.482  -0.085   0.816  0.00  0.00    -0.082 Cl
ENDBRANCH   1  22
BRANCH  13  24
ATOM     24  N   UNL     1      -2.191  -4.517   8.145  0.00  0.00    -0.313 N 
ATOM     25  C   UNL     1      -2.445  -3.859   9.440  0.00  0.00    +0.109 C 
ATOM     26  C   UNL     1      -3.407  -4.815  10.189  0.00  0.00    +0.052 C 
ATOM     27  C   UNL     1      -2.867  -6.203   9.755  0.00  0.00    +0.133 C 
ATOM     28  C   UNL     1      -2.427  -5.960   8.295  0.00  0.00    +0.137 C 
BRANCH  27  29
ATOM     29  O   UNL     1      -1.757  -6.591  10.567  0.00  0.00    -0.390 OA
ATOM     30  H   UNL     1      -1.970  -6.681  11.506  0.00  0.00    +0.210 HD
ENDBRANCH  27  29
ENDBRANCH  13  24
TORSDOF 3
