REMARK  Name = CHEMBL68774
REMARK  5 active torsions:
REMARK  status: ('A' for Active; 'I' for Inactive)
REMARK    1  A    between atoms: C_4  and  O_7
REMARK    2  A    between atoms: O_7  and  C_8
REMARK    3  A    between atoms: C_13  and  C_14
REMARK    4  A    between atoms: N_16  and  C_24
REMARK    5  A    between atoms: C_19  and  N_23
REMARK                            x       y       z     vdW  Elec       q    Type
REMARK                         _______ _______ _______ _____ _____    ______ ____
ROOT
ATOM      1  C   UNL     1       6.056  -1.993   0.148  0.00  0.00    +0.016 A 
ATOM      2  C   UNL     1       7.019  -2.070  -0.803  0.00  0.00    +0.097 A 
ATOM      3  N   UNL     1       8.073  -1.268  -0.458  0.00  0.00    -0.328 N 
ATOM      4  C   UNL     1       7.822  -0.643   0.734  0.00  0.00    +0.147 A 
ATOM      5  C   UNL     1       6.551  -1.059   1.167  0.00  0.00    +0.066 A 
ATOM      6  C   UNL     1       6.051  -0.552   2.374  0.00  0.00    +0.129 A 
ATOM      7  N   UNL     1       6.803   0.306   3.058  0.00  0.00    -0.220 NA
ATOM      8  C   UNL     1       7.991   0.673   2.614  0.00  0.00    +0.225 A 
ATOM      9  N   UNL     1       8.503   0.216   1.492  0.00  0.00    -0.218 NA
ENDROOT
BRANCH   1  15
ATOM     10  C   UNL     1       3.561  -1.987   0.061  0.00  0.00    +0.136 A 
ATOM     11  C   UNL     1       2.351  -2.661   0.062  0.00  0.00    +0.047 A 
ATOM     12  C   UNL     1       2.327  -4.040   0.161  0.00  0.00    +0.004 A 
ATOM     13  C   UNL     1       3.508  -4.754   0.260  0.00  0.00    +0.001 A 
ATOM     14  C   UNL     1       4.721  -4.094   0.260  0.00  0.00    +0.012 A 
ATOM     15  C   UNL     1       4.757  -2.705   0.154  0.00  0.00    +0.027 A 
BRANCH  10  16
ATOM     16  O   UNL     1       3.586  -0.632  -0.037  0.00  0.00    -0.455 OA
BRANCH  16  20
ATOM     17  C   UNL     1      -0.012   1.385   0.070  0.00  0.00    +0.000 A 
ATOM     18  C   UNL     1       0.447   0.732   1.199  0.00  0.00    +0.004 A 
ATOM     19  C   UNL     1       1.651   0.056   1.166  0.00  0.00    +0.046 A 
ATOM     20  C   UNL     1       2.400   0.032  -0.002  0.00  0.00    +0.128 A 
ATOM     21  C   UNL     1       1.937   0.688  -1.134  0.00  0.00    +0.046 A 
ATOM     22  C   UNL     1       0.733   1.363  -1.095  0.00  0.00    +0.004 A 
ENDBRANCH  16  20
ENDBRANCH  10  16
ENDBRANCH   1  15
BRANCH   3  23
ATOM     23  C   UNL     1       9.294  -1.102  -1.249  0.00  0.00    +0.089 C 
ATOM     24  C   UNL     1       8.942  -0.611  -2.668  0.00  0.00    +0.025 C 
ATOM     25  C   UNL     1       9.952  -1.343  -3.586  0.00  0.00    +0.002 C 
ATOM     26  C   UNL     1      10.055  -2.743  -2.932  0.00  0.00    +0.002 C 
ATOM     27  C   UNL     1      10.002  -2.458  -1.417  0.00  0.00    +0.025 C 
ENDBRANCH   3  23
BRANCH   6  28
ATOM     28  N   UNL     1       4.807  -0.934   2.842  0.00  0.00    -0.343 N 
ATOM     29  H   UNL     1       4.269  -1.561   2.334  0.00  0.00    +0.144 HD
ATOM     30  H   UNL     1       4.473  -0.576   3.680  0.00  0.00    +0.144 HD
ENDBRANCH   6  28
TORSDOF 5
