REMARK  Name = CHEMBL1085240
REMARK  8 active torsions:
REMARK  status: ('A' for Active; 'I' for Inactive)
REMARK    1  A    between atoms: C_1  and  N_2
REMARK    2  A    between atoms: N_5  and  C_8
REMARK    3  A    between atoms: C_12  and  C_14
REMARK    4  A    between atoms: C_21  and  C_24
REMARK    5  A    between atoms: C_22  and  N_23
REMARK    6  A    between atoms: C_27  and  N_30
REMARK    7  A    between atoms: C_31  and  C_33
REMARK    8  A    between atoms: C_36  and  C_39
REMARK                            x       y       z     vdW  Elec       q    Type
REMARK                         _______ _______ _______ _____ _____    ______ ____
ROOT
ATOM      1  C   UNL     1       0.264  -6.013   4.289  0.00  0.00    +0.046 A 
ATOM      2  C   UNL     1       1.577  -6.453   4.086  0.00  0.00    +0.145 A 
ATOM      3  N   UNL     1       2.037  -6.945   5.210  0.00  0.00    -0.171 NA
ATOM      4  N   UNL     1       1.047  -6.849   6.194  0.00  0.00    -0.200 N 
ATOM      5  C   UNL     1      -0.056  -6.265   5.629  0.00  0.00    +0.165 A 
ATOM      6  N   UNL     1      -1.162  -6.042   6.348  0.00  0.00    -0.235 NA
ATOM      7  C   UNL     1      -1.231  -6.371   7.618  0.00  0.00    +0.125 A 
ATOM      8  C   UNL     1      -0.130  -6.970   8.253  0.00  0.00    +0.040 A 
ATOM      9  C   UNL     1       1.023  -7.214   7.513  0.00  0.00    +0.129 A 
ENDROOT
BRANCH   1  14
ATOM     10  C   UNL     1      -0.991  -3.751   1.557  0.00  0.00    +0.030 A 
ATOM     11  C   UNL     1      -2.285  -4.231   1.385  0.00  0.00    +0.023 A 
ATOM     12  C   UNL     1      -2.743  -5.284   2.154  0.00  0.00    +0.002 A 
ATOM     13  C   UNL     1      -1.920  -5.865   3.097  0.00  0.00    +0.009 A 
ATOM     14  C   UNL     1      -0.621  -5.390   3.277  0.00  0.00    -0.011 A 
ATOM     15  C   UNL     1      -0.156  -4.332   2.498  0.00  0.00    +0.031 A 
BRANCH  10  20
ATOM     16  C   UNL     1      -0.106   1.409  -0.038  0.00  0.00    +0.105 C 
ATOM     17  N   UNL     1      -0.079  -0.060  -0.037  0.00  0.00    -0.302 NA
ATOM     18  C   UNL     1      -1.438  -0.611  -0.126  0.00  0.00    +0.103 C 
ATOM     19  C   UNL     1      -1.358  -2.131  -0.305  0.00  0.00    +0.120 C 
ATOM     20  N   UNL     1      -0.532  -2.686   0.778  0.00  0.00    -0.327 N 
ATOM     21  C   UNL     1       0.792  -2.091   1.017  0.00  0.00    +0.120 C 
ATOM     22  C   UNL     1       0.627  -0.573   1.144  0.00  0.00    +0.103 C 
ENDBRANCH  10  20
ENDBRANCH   1  14
BRANCH   8  23
ATOM     23  C   UNL     1      -0.198  -7.344   9.686  0.00  0.00    -0.013 A 
ATOM     24  C   UNL     1      -0.126  -8.685  10.062  0.00  0.00    +0.010 A 
ATOM     25  C   UNL     1      -0.190  -9.030  11.396  0.00  0.00    +0.024 A 
ATOM     26  C   UNL     1      -0.327  -8.043  12.364  0.00  0.00    +0.034 A 
ATOM     27  C   UNL     1      -0.400  -6.706  11.992  0.00  0.00    +0.024 A 
ATOM     28  C   UNL     1      -0.330  -6.355  10.661  0.00  0.00    +0.010 A 
BRANCH  26  29
ATOM     29  N   UNL     1      -0.392  -8.396  13.716  0.00  0.00    -0.282 N 
ATOM     30  C   UNL     1       0.323  -9.443  14.175  0.00  0.00    +0.248 C 
ATOM     31  O   UNL     1       1.098 -10.019  13.437  0.00  0.00    -0.270 OA
ATOM     32  H   UNL     1      -0.951  -7.887  14.324  0.00  0.00    +0.155 HD
BRANCH  30  33
ATOM     33  C   UNL     1       0.164  -9.890  15.574  0.00  0.00    +0.037 A 
ATOM     34  C   UNL     1      -0.730  -9.234  16.422  0.00  0.00    +0.013 A 
ATOM     35  C   UNL     1      -0.875  -9.657  17.728  0.00  0.00    +0.013 A 
ATOM     36  C   UNL     1      -0.135 -10.729  18.197  0.00  0.00    +0.055 A 
ATOM     37  C   UNL     1       0.752 -11.383  17.361  0.00  0.00    +0.013 A 
ATOM     38  C   UNL     1       0.902 -10.974  16.052  0.00  0.00    +0.013 A 
BRANCH  36  39
ATOM     39  C   UNL     1      -0.297 -11.185  19.624  0.00  0.00    +0.417 C 
ATOM     40  F   UNL     1      -1.307 -12.151  19.693  0.00  0.00    -0.166 F 
ATOM     41  F   UNL     1       0.906 -11.735  20.077  0.00  0.00    -0.166 F 
ATOM     42  F   UNL     1      -0.642 -10.092  20.426  0.00  0.00    -0.166 F 
ENDBRANCH  36  39
ENDBRANCH  30  33
ENDBRANCH  26  29
ENDBRANCH   8  23
BRANCH   9  43
ATOM     43  N   UNL     1       2.123  -7.797   8.100  0.00  0.00    -0.343 N 
ATOM     44  H   UNL     1       2.925  -7.953   7.578  0.00  0.00    +0.144 HD
ATOM     45  H   UNL     1       2.095  -8.051   9.035  0.00  0.00    +0.144 HD
ENDBRANCH   9  43
TORSDOF 7
