REMARK  Name = CHEMBL308432
REMARK  7 active torsions:
REMARK  status: ('A' for Active; 'I' for Inactive)
REMARK    1  A    between atoms: C_1  and  C_2
REMARK    2  A    between atoms: C_7  and  N_8
REMARK    3  A    between atoms: C_9  and  C_11
REMARK    4  A    between atoms: N_23  and  C_24
REMARK    5  A    between atoms: C_24  and  C_25
REMARK    6  A    between atoms: C_25  and  C_26
REMARK    7  A    between atoms: N_30  and  C_31
REMARK                            x       y       z     vdW  Elec       q    Type
REMARK                         _______ _______ _______ _____ _____    ______ ____
ROOT
ATOM      1  C   UNL     1       1.883  -0.292   5.595  0.00  0.00    +0.038 A 
ATOM      2  C   UNL     1       2.111   1.091   5.615  0.00  0.00    +0.015 A 
ATOM      3  C   UNL     1       1.768   1.850   6.684  0.00  0.00    +0.029 A 
ATOM      4  C   UNL     1       1.162   1.271   7.827  0.00  0.00    +0.080 A 
ATOM      5  C   UNL     1       0.941  -0.128   7.783  0.00  0.00    +0.041 A 
ATOM      6  C   UNL     1       1.282  -0.896   6.704  0.00  0.00    +0.030 A 
ATOM      7  S   UNL     1       0.189  -0.442   9.362  0.00  0.00    -0.052 S 
ATOM      8  C   UNL     1       0.212   1.242   9.960  0.00  0.00    +0.167 A 
ATOM      9  N   UNL     1       0.767   1.887   8.958  0.00  0.00    -0.225 NA
ATOM     10  N   UNL     1      -0.238   1.740  11.169  0.00  0.00    -0.248 N 
ATOM     11  C   UNL     1      -0.131   3.056  11.438  0.00  0.00    +0.305 C 
ATOM     12  O   UNL     1       0.361   3.806  10.618  0.00  0.00    -0.252 OA
ATOM     13  N   UNL     1      -0.571   3.541  12.617  0.00  0.00    -0.299 N 
ATOM     14  H   UNL     1      -0.631   1.141  11.824  0.00  0.00    +0.158 HD
ATOM     15  H   UNL     1      -0.964   2.943  13.271  0.00  0.00    +0.150 HD
ENDROOT
BRANCH   1  17
ATOM     16  N   UNL     1       2.844  -0.504   3.357  0.00  0.00    -0.280 N 
ATOM     17  C   UNL     1       2.266  -1.097   4.420  0.00  0.00    +0.248 C 
ATOM     18  O   UNL     1       2.059  -2.295   4.411  0.00  0.00    -0.270 OA
ATOM     19  H   UNL     1       3.080   0.436   3.394  0.00  0.00    +0.155 HD
BRANCH  16  26
ATOM     20  C   UNL     1       1.902   0.511   0.872  0.00  0.00    +0.046 C 
ATOM     21  C   UNL     1       2.663  -0.787   0.966  0.00  0.00    -0.028 A 
ATOM     22  C   UNL     1       2.926  -1.518  -0.177  0.00  0.00    +0.005 A 
ATOM     23  C   UNL     1       3.624  -2.708  -0.092  0.00  0.00    +0.002 A 
ATOM     24  C   UNL     1       4.061  -3.172   1.135  0.00  0.00    +0.022 A 
ATOM     25  C   UNL     1       3.802  -2.445   2.282  0.00  0.00    +0.062 A 
ATOM     26  C   UNL     1       3.105  -1.245   2.199  0.00  0.00    +0.055 A 
ATOM     27 CL   UNL     1       4.351  -3.027   3.822  0.00  0.00    -0.082 Cl
ENDBRANCH  16  26
ENDBRANCH   1  17
BRANCH  13  28
ATOM     28  C   UNL     1      -0.454   4.972  12.909  0.00  0.00    +0.104 C 
BRANCH  28  29
ATOM     29  C   UNL     1      -1.023   5.256  14.301  0.00  0.00    +0.003 C 
BRANCH  29  30
ATOM     30  C   UNL     1      -1.021   6.764  14.555  0.00  0.00    -0.068 C 
ATOM     31  C   UNL     1       0.431   7.277  14.659  0.00  0.00    -0.017 C 
ATOM     32  C   UNL     1       0.346   8.340  15.787  0.00  0.00    -0.020 C 
ATOM     33  C   UNL     1      -0.700   7.704  16.737  0.00  0.00    -0.079 C 
ATOM     34  N   UNL     1      -1.681   7.058  15.840  0.00  0.00    +0.380 N 
ATOM     35  C   UNL     1      -2.158   5.808  16.447  0.00  0.00    -0.096 C 
ATOM     36  H   UNL     1      -2.462   7.679  15.687  0.00  0.00    -0.082 HD
ENDBRANCH  29  30
ENDBRANCH  28  29
ENDBRANCH  13  28
TORSDOF 5
