REMARK  Name = CHEMBL395662
REMARK  11 active torsions:
REMARK  status: ('A' for Active; 'I' for Inactive)
REMARK    1  A    between atoms: C_1  and  N_2
REMARK    2  A    between atoms: C_10  and  C_11
REMARK    3  A    between atoms: N_13  and  C_14
REMARK    4  A    between atoms: C_17  and  C_22
REMARK    5  A    between atoms: C_19  and  O_20
REMARK    6  A    between atoms: O_20  and  C_21
REMARK    7  A    between atoms: C_27  and  N_41
REMARK    8  A    between atoms: C_30  and  C_31
REMARK    9  A    between atoms: C_32  and  C_33
REMARK   10  A    between atoms: C_33  and  N_34
REMARK   11  A    between atoms: N_37  and  C_40
REMARK                            x       y       z     vdW  Elec       q    Type
REMARK                         _______ _______ _______ _____ _____    ______ ____
ROOT
ATOM      1  C   UNL     1      -0.901   3.715   7.869  0.00  0.00    +0.000 A 
ATOM      2  C   UNL     1      -0.588   4.996   8.176  0.00  0.00    +0.055 A 
ATOM      3  S   UNL     1      -0.561   5.002   9.958  0.00  0.00    -0.095 S 
ATOM      4  C   UNL     1      -0.966   3.302  10.248  0.00  0.00    +0.032 A 
ATOM      5  C   UNL     1      -1.120   2.764   8.956  0.00  0.00    +0.037 A 
ATOM      6  C   UNL     1      -1.458   1.387   8.893  0.00  0.00    +0.125 A 
ATOM      7  N   UNL     1      -1.619   0.672   9.987  0.00  0.00    -0.239 NA
ATOM      8  C   UNL     1      -1.482   1.166  11.205  0.00  0.00    +0.122 A 
ATOM      9  C   UNL     1      -1.140   2.506  11.381  0.00  0.00    +0.007 A 
ENDROOT
BRANCH   1  13
ATOM     10  C   UNL     1      -1.265   2.484   3.811  0.00  0.00    +0.076 A 
ATOM     11  C   UNL     1      -2.330   2.318   4.685  0.00  0.00    +0.027 A 
ATOM     12  C   UNL     1      -2.214   2.716   6.001  0.00  0.00    +0.010 A 
ATOM     13  C   UNL     1      -1.026   3.287   6.455  0.00  0.00    -0.013 A 
ATOM     14  C   UNL     1       0.045   3.454   5.579  0.00  0.00    +0.056 A 
ATOM     15  C   UNL     1      -0.072   3.049   4.261  0.00  0.00    +0.142 A 
BRANCH  10  18
ATOM     16  C   UNL     1      -2.279   1.128   2.139  0.00  0.00    +0.265 C 
ATOM     17  O   UNL     1      -2.983   0.624   2.994  0.00  0.00    -0.268 OA
ATOM     18  N   UNL     1      -1.386   2.079   2.476  0.00  0.00    -0.277 N 
ATOM     19  H   UNL     1      -0.827   2.483   1.794  0.00  0.00    +0.155 HD
BRANCH  16  29
ATOM     20  C   UNL     1      -4.370  -0.865   1.050  0.00  0.00    +0.149 C 
ATOM     21  N   UNL     1      -3.340  -0.193   0.254  0.00  0.00    -0.339 N 
ATOM     22  C   UNL     1      -3.151  -0.342  -1.100  0.00  0.00    +0.049 A 
ATOM     23  C   UNL     1      -3.798  -1.096  -2.075  0.00  0.00    +0.026 A 
ATOM     24  C   UNL     1      -3.371  -1.037  -3.382  0.00  0.00    +0.002 A 
ATOM     25  C   UNL     1      -2.298  -0.230  -3.741  0.00  0.00    +0.001 A 
ATOM     26  C   UNL     1      -1.648   0.518  -2.803  0.00  0.00    +0.010 A 
ATOM     27  C   UNL     1      -2.064   0.475  -1.466  0.00  0.00    +0.001 A 
ATOM     28  C   UNL     1      -1.612   1.114  -0.286  0.00  0.00    +0.041 A 
ATOM     29  C   UNL     1      -2.403   0.699   0.738  0.00  0.00    +0.105 A 
ENDBRANCH  16  29
ENDBRANCH  10  18
BRANCH  15  30
ATOM     30  O   UNL     1       0.972   3.205   3.405  0.00  0.00    -0.493 OA
ATOM     31  C   UNL     1       2.163   3.791   3.936  0.00  0.00    +0.277 C 
ENDBRANCH  15  30
ENDBRANCH   1  13
BRANCH   6  32
ATOM     32  N   UNL     1      -1.624   0.783   7.655  0.00  0.00    -0.343 N 
ATOM     33  H   UNL     1      -1.100   1.082   6.896  0.00  0.00    +0.144 HD
ATOM     34  H   UNL     1      -2.263   0.061   7.549  0.00  0.00    +0.144 HD
ENDBRANCH   6  32
BRANCH   9  35
ATOM     35  C   UNL     1      -0.983   3.074  12.735  0.00  0.00    +0.007 C 
ATOM     36  C   UNL     1      -1.153   2.303  13.802  0.00  0.00    -0.011 C 
BRANCH  36  37
ATOM     37  C   UNL     1      -0.993   2.883  15.183  0.00  0.00    +0.111 C 
BRANCH  37  38
ATOM     38  N   UNL     1      -2.209   2.627  15.966  0.00  0.00    -0.302 NA
ATOM     39  C   UNL     1      -3.355   3.364  15.413  0.00  0.00    +0.066 C 
ATOM     40  C   UNL     1      -4.612   3.025  16.218  0.00  0.00    -0.064 C 
ATOM     41  N   UNL     1      -4.405   3.390  17.626  0.00  0.00    +0.379 N 
ATOM     42  C   UNL     1      -3.273   2.628  18.170  0.00  0.00    -0.064 C 
ATOM     43  C   UNL     1      -2.006   2.964  17.381  0.00  0.00    +0.066 C 
ATOM     44  C   UNL     1      -5.618   3.081  18.395  0.00  0.00    -0.096 C 
ATOM     45  H   UNL     1      -4.208   4.378  17.692  0.00  0.00    -0.082 HD
ENDBRANCH  37  38
ENDBRANCH  36  37
ENDBRANCH   9  35
TORSDOF 8
