REMARK  Name = CHEMBL306012
REMARK  6 active torsions:
REMARK  status: ('A' for Active; 'I' for Inactive)
REMARK    1  A    between atoms: C_1  and  C_2
REMARK    2  A    between atoms: C_2  and  C_3
REMARK    3  A    between atoms: C_2  and  C_4
REMARK    4  A    between atoms: C_2  and  N_5
REMARK    5  A    between atoms: C_7  and  C_15
REMARK    6  A    between atoms: C_13  and  N_14
REMARK                            x       y       z     vdW  Elec       q    Type
REMARK                         _______ _______ _______ _____ _____    ______ ____
ROOT
ATOM      1  N   UNL     1       0.688  -0.476  -1.203  0.00  0.00    -0.326 N 
ATOM      2  C   UNL     1       1.229   0.334  -2.164  0.00  0.00    +0.097 A 
ATOM      3  C   UNL     1       1.786  -0.425  -3.140  0.00  0.00    +0.012 A 
ATOM      4  C   UNL     1       1.572  -1.825  -2.752  0.00  0.00    +0.066 A 
ATOM      5  C   UNL     1       0.884  -1.792  -1.527  0.00  0.00    +0.147 A 
ATOM      6  N   UNL     1       0.567  -2.947  -0.944  0.00  0.00    -0.218 NA
ATOM      7  C   UNL     1       0.894  -4.093  -1.502  0.00  0.00    +0.225 A 
ATOM      8  N   UNL     1       1.543  -4.168  -2.649  0.00  0.00    -0.220 NA
ATOM      9  C   UNL     1       1.895  -3.069  -3.311  0.00  0.00    +0.129 A 
ENDROOT
BRANCH   3  10
ATOM     10  C   UNL     1       2.474   0.063  -4.358  0.00  0.00    -0.016 A 
ATOM     11  C   UNL     1       3.729  -0.439  -4.702  0.00  0.00    +0.010 A 
ATOM     12  C   UNL     1       4.365   0.018  -5.837  0.00  0.00    +0.020 A 
ATOM     13  C   UNL     1       3.760   0.975  -6.635  0.00  0.00    +0.041 A 
ATOM     14  C   UNL     1       2.515   1.477  -6.298  0.00  0.00    +0.020 A 
ATOM     15  C   UNL     1       1.867   1.022  -5.168  0.00  0.00    +0.010 A 
ATOM     16 CL   UNL     1       4.567   1.546  -8.062  0.00  0.00    -0.084 Cl
ENDBRANCH   3  10
BRANCH   1  18
ATOM     17  C   UNL     1      -0.019   1.526   0.010  0.00  0.00    +0.034 C 
ATOM     18  C   UNL     1       0.002  -0.004   0.002  0.00  0.00    +0.039 C 
ATOM     19  C   UNL     1       0.742  -0.511   1.242  0.00  0.00    +0.034 C 
ATOM     20  C   UNL     1      -1.433  -0.534   0.013  0.00  0.00    +0.034 C 
ENDBRANCH   1  18
BRANCH   9  21
ATOM     21  N   UNL     1       2.576  -3.152  -4.512  0.00  0.00    -0.343 N 
ATOM     22  H   UNL     1       2.837  -2.342  -4.978  0.00  0.00    +0.144 HD
ATOM     23  H   UNL     1       2.793  -4.019  -4.887  0.00  0.00    +0.144 HD
ENDBRANCH   9  21
TORSDOF 3
