REMARK  Name = CHEMBL86939
REMARK  7 active torsions:
REMARK  status: ('A' for Active; 'I' for Inactive)
REMARK    1  A    between atoms: C_1  and  C_2
REMARK    2  A    between atoms: C_7  and  N_8
REMARK    3  A    between atoms: C_9  and  C_11
REMARK    4  A    between atoms: C_23  and  C_27
REMARK    5  A    between atoms: C_27  and  N_28
REMARK    6  A    between atoms: N_31  and  N_34
REMARK    7  A    between atoms: N_34  and  C_35
REMARK                            x       y       z     vdW  Elec       q    Type
REMARK                         _______ _______ _______ _____ _____    ______ ____
ROOT
ATOM      1  C   UNL     1      -1.758  -2.246  15.668  0.00  0.00    +0.038 A 
ATOM      2  C   UNL     1      -1.560  -0.991  16.262  0.00  0.00    +0.015 A 
ATOM      3  C   UNL     1      -1.154   0.079  15.536  0.00  0.00    +0.029 A 
ATOM      4  C   UNL     1      -0.911  -0.030  14.144  0.00  0.00    +0.080 A 
ATOM      5  C   UNL     1      -1.117  -1.307  13.567  0.00  0.00    +0.041 A 
ATOM      6  C   UNL     1      -1.522  -2.391  14.296  0.00  0.00    +0.030 A 
ATOM      7  S   UNL     1      -0.716  -1.021  11.860  0.00  0.00    -0.052 S 
ATOM      8  C   UNL     1      -0.315   0.714  12.013  0.00  0.00    +0.165 A 
ATOM      9  N   UNL     1      -0.507   0.935  13.295  0.00  0.00    -0.225 NA
ATOM     10  N   UNL     1       0.095   1.598  11.035  0.00  0.00    -0.279 N 
ATOM     11  C   UNL     1       0.465   2.895  11.379  0.00  0.00    +0.125 A 
ATOM     12  C   UNL     1       0.984   3.744  10.407  0.00  0.00    +0.048 A 
ATOM     13  C   UNL     1       1.348   5.030  10.763  0.00  0.00    -0.029 A 
ATOM     14  C   UNL     1       1.181   5.425  12.084  0.00  0.00    +0.025 A 
ATOM     15  C   UNL     1       0.660   4.529  12.996  0.00  0.00    +0.113 A 
ATOM     16  N   UNL     1       0.316   3.310  12.627  0.00  0.00    -0.240 NA
ATOM     17  H   UNL     1       0.124   1.315  10.107  0.00  0.00    +0.155 HD
ENDROOT
BRANCH   1  19
ATOM     18  N   UNL     1      -2.425  -3.244  17.797  0.00  0.00    -0.280 N 
ATOM     19  C   UNL     1      -2.201  -3.396  16.477  0.00  0.00    +0.248 C 
ATOM     20  O   UNL     1      -2.364  -4.481  15.953  0.00  0.00    -0.270 OA
ATOM     21  H   UNL     1      -2.373  -2.363  18.200  0.00  0.00    +0.155 HD
BRANCH  18  28
ATOM     22  C   UNL     1      -0.889  -3.687  20.151  0.00  0.00    +0.046 C 
ATOM     23  C   UNL     1      -2.007  -4.611  19.744  0.00  0.00    -0.028 A 
ATOM     24  C   UNL     1      -2.317  -5.708  20.524  0.00  0.00    +0.005 A 
ATOM     25  C   UNL     1      -3.342  -6.557  20.152  0.00  0.00    +0.002 A 
ATOM     26  C   UNL     1      -4.063  -6.311  18.997  0.00  0.00    +0.022 A 
ATOM     27  C   UNL     1      -3.760  -5.215  18.212  0.00  0.00    +0.062 A 
ATOM     28  C   UNL     1      -2.732  -4.357  18.587  0.00  0.00    +0.055 A 
ATOM     29 CL   UNL     1      -4.664  -4.907  16.763  0.00  0.00    -0.082 Cl
ENDBRANCH  18  28
ENDBRANCH   1  19
BRANCH  13  30
ATOM     30  C   UNL     1       1.914   5.981   9.740  0.00  0.00    +0.119 C 
BRANCH  30  31
ATOM     31  N   UNL     1       0.820   6.734   9.113  0.00  0.00    -0.296 NA
ATOM     32  C   UNL     1      -0.043   5.847   8.320  0.00  0.00    +0.101 C 
ATOM     33  C   UNL     1      -1.213   6.653   7.750  0.00  0.00    +0.117 C 
ATOM     34  N   UNL     1      -0.691   7.751   6.924  0.00  0.00    -0.241 NA
ATOM     35  C   UNL     1       0.172   8.638   7.717  0.00  0.00    +0.117 C 
ATOM     36  C   UNL     1       1.341   7.832   8.287  0.00  0.00    +0.101 C 
BRANCH  34  37
ATOM     37  N   UNL     1      -1.774   8.496   6.303  0.00  0.00    -0.257 NA
ATOM     38  C   UNL     1      -1.670   8.454   4.839  0.00  0.00    +0.120 C 
ATOM     39  H   UNL     1      -1.796   9.448   6.637  0.00  0.00    +0.140 HD
ENDBRANCH  34  37
ENDBRANCH  30  31
ENDBRANCH  13  30
TORSDOF 5
