REMARK  Name = CHEMBL385698
REMARK  7 active torsions:
REMARK  status: ('A' for Active; 'I' for Inactive)
REMARK    1  A    between atoms: C_1  and  C_2
REMARK    2  A    between atoms: C_7  and  N_8
REMARK    3  A    between atoms: C_9  and  C_11
REMARK    4  A    between atoms: C_21  and  N_23
REMARK    5  A    between atoms: N_23  and  C_24
REMARK    6  A    between atoms: C_24  and  C_25
REMARK    7  A    between atoms: C_25  and  O_26
REMARK                            x       y       z     vdW  Elec       q    Type
REMARK                         _______ _______ _______ _____ _____    ______ ____
ROOT
ATOM      1  C   UNL     1      -0.433   0.105   4.803  0.00  0.00    +0.095 A 
ATOM      2  C   UNL     1      -0.797  -0.332   6.069  0.00  0.00    +0.133 A 
ATOM      3  N   UNL     1      -0.810   0.574   7.015  0.00  0.00    -0.232 NA
ATOM      4  C   UNL     1      -0.492   1.833   6.769  0.00  0.00    +0.164 A 
ATOM      5  S   UNL     1      -0.130   1.835   5.126  0.00  0.00    -0.047 S 
ATOM      6  N   UNL     1      -0.460   2.893   7.652  0.00  0.00    -0.279 N 
ATOM      7  C   UNL     1      -0.683   2.676   9.009  0.00  0.00    +0.126 A 
ATOM      8  C   UNL     1      -0.537   3.727   9.906  0.00  0.00    +0.044 A 
ATOM      9  C   UNL     1      -0.762   3.502  11.255  0.00  0.00    +0.007 A 
ATOM     10  C   UNL     1      -1.127   2.229  11.663  0.00  0.00    +0.043 A 
ATOM     11  C   UNL     1      -1.255   1.222  10.713  0.00  0.00    +0.121 A 
ATOM     12  N   UNL     1      -1.038   1.472   9.430  0.00  0.00    -0.217 NA
ATOM     13  H   UNL     1      -0.281   3.789   7.327  0.00  0.00    +0.155 HD
ENDROOT
BRANCH   1  15
ATOM     14  N   UNL     1       0.060  -0.019   2.422  0.00  0.00    -0.280 N 
ATOM     15  C   UNL     1      -0.322  -0.646   3.553  0.00  0.00    +0.256 C 
ATOM     16  O   UNL     1      -0.574  -1.837   3.533  0.00  0.00    -0.269 OA
ATOM     17  H   UNL     1       0.339   0.910   2.453  0.00  0.00    +0.155 HD
BRANCH  14  24
ATOM     18  C   UNL     1      -1.312   1.151   0.222  0.00  0.00    +0.046 C 
ATOM     19  C   UNL     1      -0.602  -0.173   0.105  0.00  0.00    -0.028 A 
ATOM     20  C   UNL     1      -0.600  -0.853  -1.097  0.00  0.00    +0.005 A 
ATOM     21  C   UNL     1       0.051  -2.068  -1.206  0.00  0.00    +0.002 A 
ATOM     22  C   UNL     1       0.702  -2.607  -0.111  0.00  0.00    +0.022 A 
ATOM     23  C   UNL     1       0.704  -1.933   1.095  0.00  0.00    +0.062 A 
ATOM     24  C   UNL     1       0.055  -0.708   1.205  0.00  0.00    +0.055 A 
ATOM     25 CL   UNL     1       1.521  -2.610   2.468  0.00  0.00    -0.082 Cl
ENDBRANCH  14  24
ENDBRANCH   1  15
BRANCH  11  26
ATOM     26  N   UNL     1      -1.620  -0.058  11.113  0.00  0.00    -0.327 N 
ATOM     27  H   UNL     1      -1.711  -0.764  10.455  0.00  0.00    +0.148 HD
BRANCH  26  28
ATOM     28  C   UNL     1      -1.867  -0.340  12.529  0.00  0.00    +0.130 C 
BRANCH  28  29
ATOM     29  C   UNL     1      -2.250  -1.812  12.697  0.00  0.00    +0.174 C 
BRANCH  29  30
ATOM     30  O   UNL     1      -1.141  -2.637  12.335  0.00  0.00    -0.393 OA
ATOM     31  H   UNL     1      -1.312  -3.585  12.417  0.00  0.00    +0.209 HD
ENDBRANCH  29  30
ENDBRANCH  28  29
ENDBRANCH  26  28
ENDBRANCH  11  26
TORSDOF 6
