REMARK  Name = CHEMBL483158
REMARK  7 active torsions:
REMARK  status: ('A' for Active; 'I' for Inactive)
REMARK    1  A    between atoms: C_1  and  O_2
REMARK    2  A    between atoms: O_2  and  C_3
REMARK    3  A    between atoms: C_8  and  C_9
REMARK    4  A    between atoms: N_25  and  C_26
REMARK    5  A    between atoms: C_29  and  C_34
REMARK    6  A    between atoms: C_30  and  O_32
REMARK    7  A    between atoms: O_32  and  C_33
REMARK                            x       y       z     vdW  Elec       q    Type
REMARK                         _______ _______ _______ _____ _____    ______ ____
ROOT
ATOM      1  C   UNL     1       0.105  -3.228  -0.313  0.00  0.00    +0.080 C 
ATOM      2  N   UNL     1       0.516  -3.373   0.895  0.00  0.00    -0.278 NA
ATOM      3  C   UNL     1       1.778  -4.027   1.222  0.00  0.00    +0.181 C 
ATOM      4  C   UNL     1       2.920  -3.206   0.694  0.00  0.00    +0.018 A 
ATOM      5  C   UNL     1       3.826  -2.646   1.581  0.00  0.00    +0.122 A 
ATOM      6  N   UNL     1       4.823  -1.915   1.109  0.00  0.00    -0.222 NA
ATOM      7  C   UNL     1       4.960  -1.714  -0.194  0.00  0.00    +0.220 A 
ATOM      8  N   UNL     1       4.119  -2.235  -1.071  0.00  0.00    -0.214 NA
ATOM      9  C   UNL     1       3.092  -2.990  -0.664  0.00  0.00    +0.082 A 
ATOM     10  C   UNL     1       2.195  -3.574  -1.685  0.00  0.00    +0.010 A 
ATOM     11  C   UNL     1       0.811  -3.693  -1.518  0.00  0.00    +0.011 A 
ATOM     12  C   UNL     1       0.041  -4.273  -2.535  0.00  0.00    +0.030 A 
ATOM     13  C   UNL     1       0.636  -4.725  -3.693  0.00  0.00    +0.042 A 
ATOM     14  C   UNL     1       2.006  -4.608  -3.863  0.00  0.00    +0.020 A 
ATOM     15  C   UNL     1       2.784  -4.032  -2.870  0.00  0.00    +0.012 A 
ATOM     16 CL   UNL     1      -0.333  -5.442  -4.942  0.00  0.00    -0.084 Cl
ATOM     17  N   UNL     1       6.013  -0.938  -0.649  0.00  0.00    -0.283 N 
ATOM     18  H   UNL     1       6.080  -0.715  -1.591  0.00  0.00    +0.155 HD
ENDROOT
BRANCH   1  24
ATOM     19  C   UNL     1      -1.232  -1.152  -0.676  0.00  0.00    +0.132 A 
ATOM     20  C   UNL     1      -2.450  -0.518  -0.866  0.00  0.00    +0.046 A 
ATOM     21  C   UNL     1      -3.619  -1.254  -0.884  0.00  0.00    +0.006 A 
ATOM     22  C   UNL     1      -3.585  -2.627  -0.714  0.00  0.00    +0.039 A 
ATOM     23  C   UNL     1      -2.380  -3.275  -0.525  0.00  0.00    +0.136 A 
ATOM     24  C   UNL     1      -1.190  -2.542  -0.510  0.00  0.00    +0.077 A 
ATOM     25  F   UNL     1      -2.350  -4.616  -0.359  0.00  0.00    -0.205 F 
BRANCH  19  27
ATOM     26  C   UNL     1      -0.204   0.985  -0.835  0.00  0.00    +0.277 C 
ATOM     27  O   UNL     1      -0.084  -0.428  -0.659  0.00  0.00    -0.494 OA
ENDBRANCH  19  27
ENDBRANCH   1  24
BRANCH  17  28
ATOM     28  C   UNL     1       6.975  -0.477   0.244  0.00  0.00    +0.037 A 
ATOM     29  C   UNL     1       7.340  -1.261   1.338  0.00  0.00    +0.024 A 
ATOM     30  C   UNL     1       8.281  -0.820   2.220  0.00  0.00    +0.020 A 
ATOM     31  C   UNL     1       8.889   0.428   2.033  0.00  0.00    +0.105 A 
ATOM     32  C   UNL     1       8.525   1.223   0.931  0.00  0.00    +0.136 A 
ATOM     33  C   UNL     1       7.572   0.761   0.040  0.00  0.00    +0.069 A 
BRANCH  31  34
ATOM     34  C   UNL     1       9.902   0.905   2.982  0.00  0.00    +0.390 C 
ATOM     35  O   UNL     1      10.217   0.212   3.940  0.00  0.00    -0.240 OA
ATOM     36  O   UNL     1      10.431   1.996   2.816  0.00  0.00    -0.240 OA
ENDBRANCH  31  34
BRANCH  32  37
ATOM     37  O   UNL     1       9.107   2.433   0.741  0.00  0.00    -0.494 OA
ATOM     38  C   UNL     1       8.686   3.183  -0.400  0.00  0.00    +0.277 C 
ENDBRANCH  32  37
ENDBRANCH  17  28
TORSDOF 5
