REMARK  Name = CHEMBL1079424
REMARK  6 active torsions:
REMARK  status: ('A' for Active; 'I' for Inactive)
REMARK    1  A    between atoms: C_1  and  C_2
REMARK    2  A    between atoms: C_5  and  C_25
REMARK    3  A    between atoms: C_7  and  N_8
REMARK    4  A    between atoms: C_20  and  N_24
REMARK    5  A    between atoms: N_27  and  C_28
REMARK    6  A    between atoms: C_32  and  C_34
REMARK                            x       y       z     vdW  Elec       q    Type
REMARK                         _______ _______ _______ _____ _____    ______ ____
ROOT
ATOM      1  N   UNL     1      -0.471  -0.043   2.455  0.00  0.00    -0.286 N 
ATOM      2  C   UNL     1      -0.291  -0.708   3.650  0.00  0.00    +0.184 A 
ATOM      3  N   UNL     1      -0.178  -2.006   3.780  0.00  0.00    -0.327 N 
ATOM      4  C   UNL     1      -0.012  -2.323   5.091  0.00  0.00    +0.066 A 
ATOM      5  C   UNL     1       0.154  -3.532   5.771  0.00  0.00    +0.028 A 
ATOM      6  C   UNL     1       0.301  -3.531   7.140  0.00  0.00    +0.002 A 
ATOM      7  C   UNL     1       0.286  -2.340   7.849  0.00  0.00    +0.002 A 
ATOM      8  C   UNL     1       0.123  -1.137   7.192  0.00  0.00    +0.028 A 
ATOM      9  C   UNL     1      -0.026  -1.119   5.814  0.00  0.00    +0.074 A 
ATOM     10  N   UNL     1      -0.199  -0.109   4.879  0.00  0.00    -0.266 N 
ATOM     11  C   UNL     1      -0.267   1.258   5.140  0.00  0.00    +0.145 A 
ATOM     12  C   UNL     1      -0.337   2.173   4.096  0.00  0.00    +0.090 A 
ATOM     13  C   UNL     1      -0.405   3.528   4.409  0.00  0.00    +0.121 A 
ATOM     14  N   UNL     1      -0.399   3.896   5.689  0.00  0.00    -0.221 NA
ATOM     15  C   UNL     1      -0.332   2.997   6.650  0.00  0.00    +0.225 A 
ATOM     16  N   UNL     1      -0.273   1.706   6.393  0.00  0.00    -0.218 NA
ATOM     17  H   UNL     1       0.246   0.496   2.087  0.00  0.00    +0.155 HD
ATOM     18  H   UNL     1      -0.208  -2.644   3.050  0.00  0.00    +0.169 HD
ENDROOT
BRANCH   1  25
ATOM     19  C   UNL     1      -0.738   1.326  -0.021  0.00  0.00    +0.045 C 
ATOM     20  C   UNL     1      -1.863   0.508   0.560  0.00  0.00    -0.029 A 
ATOM     21  C   UNL     1      -3.062   0.405  -0.120  0.00  0.00    +0.006 A 
ATOM     22  C   UNL     1      -4.097  -0.342   0.406  0.00  0.00    +0.013 A 
ATOM     23  C   UNL     1      -3.934  -0.997   1.628  0.00  0.00    +0.039 A 
ATOM     24  C   UNL     1      -2.724  -0.893   2.314  0.00  0.00    +0.036 A 
ATOM     25  C   UNL     1      -1.689  -0.145   1.774  0.00  0.00    +0.037 A 
BRANCH  23  26
ATOM     26  C   UNL     1      -5.041  -1.797   2.194  0.00  0.00    +0.248 C 
ATOM     27  O   UNL     1      -4.897  -2.366   3.258  0.00  0.00    -0.270 OA
ATOM     28  N   UNL     1      -6.210  -1.895   1.530  0.00  0.00    -0.281 N 
ATOM     29  H   UNL     1      -6.349  -1.386   0.715  0.00  0.00    +0.155 HD
BRANCH  28  30
ATOM     30  C   UNL     1      -7.219  -2.727   2.013  0.00  0.00    +0.037 A 
ATOM     31  C   UNL     1      -7.414  -2.893   3.383  0.00  0.00    +0.043 A 
ATOM     32  C   UNL     1      -8.424  -3.725   3.821  0.00  0.00    +0.113 A 
ATOM     33  N   UNL     1      -9.198  -4.359   2.961  0.00  0.00    -0.260 NA
ATOM     34  C   UNL     1      -9.044  -4.229   1.656  0.00  0.00    +0.040 A 
ATOM     35  C   UNL     1      -8.062  -3.411   1.138  0.00  0.00    +0.046 A 
ATOM     36  C   UNL     1      -9.958  -4.979   0.721  0.00  0.00    +0.065 C 
ENDBRANCH  28  30
ENDBRANCH  23  26
ENDBRANCH   1  25
BRANCH  13  37
ATOM     37  N   UNL     1      -0.475   4.480   3.404  0.00  0.00    -0.343 N 
ATOM     38  H   UNL     1      -0.478   4.204   2.474  0.00  0.00    +0.144 HD
ATOM     39  H   UNL     1      -0.522   5.422   3.631  0.00  0.00    +0.144 HD
ENDBRANCH  13  37
TORSDOF 4
