REMARK  Name = CHEMBL405630
REMARK  4 active torsions:
REMARK  status: ('A' for Active; 'I' for Inactive)
REMARK    1  A    between atoms: C_1  and  C_2
REMARK    2  A    between atoms: C_6  and  C_23
REMARK    3  A    between atoms: C_7  and  N_8
REMARK    4  A    between atoms: C_9  and  C_11
REMARK                            x       y       z     vdW  Elec       q    Type
REMARK                         _______ _______ _______ _____ _____    ______ ____
ROOT
ATOM      1  C   UNL     1      -0.418   0.165   4.775  0.00  0.00    +0.095 A 
ATOM      2  C   UNL     1      -0.594  -0.286   6.076  0.00  0.00    +0.133 A 
ATOM      3  N   UNL     1      -0.683   0.634   7.003  0.00  0.00    -0.232 NA
ATOM      4  C   UNL     1      -0.607   1.920   6.708  0.00  0.00    +0.164 A 
ATOM      5  S   UNL     1      -0.390   1.930   5.040  0.00  0.00    -0.047 S 
ATOM      6  N   UNL     1      -0.683   2.998   7.566  0.00  0.00    -0.277 N 
ATOM      7  C   UNL     1      -0.974   2.797   8.913  0.00  0.00    +0.147 A 
ATOM      8  C   UNL     1      -1.167   3.890   9.759  0.00  0.00    +0.047 A 
ATOM      9  C   UNL     1      -1.454   3.636  11.091  0.00  0.00    +0.025 A 
ATOM     10  C   UNL     1      -1.531   2.312  11.501  0.00  0.00    +0.135 A 
ATOM     11  N   UNL     1      -1.334   1.340  10.632  0.00  0.00    -0.156 NA
ATOM     12  N   UNL     1      -1.073   1.568   9.396  0.00  0.00    -0.134 NA
ATOM     13  H   UNL     1      -0.533   3.896   7.231  0.00  0.00    +0.156 HD
ENDROOT
BRANCH   1  15
ATOM     14  N   UNL     1      -0.113   0.050   2.363  0.00  0.00    -0.281 N 
ATOM     15  C   UNL     1      -0.285  -0.596   3.533  0.00  0.00    +0.256 C 
ATOM     16  O   UNL     1      -0.330  -1.812   3.557  0.00  0.00    -0.269 OA
ATOM     17  H   UNL     1      -0.028   1.016   2.350  0.00  0.00    +0.155 HD
BRANCH  14  24
ATOM     18  C   UNL     1       1.939   0.691   0.499  0.00  0.00    +0.045 C 
ATOM     19  C   UNL     1       0.927  -0.393   0.229  0.00  0.00    -0.029 A 
ATOM     20  C   UNL     1       0.983  -1.113  -0.948  0.00  0.00    +0.005 A 
ATOM     21  C   UNL     1       0.054  -2.107  -1.197  0.00  0.00    +0.001 A 
ATOM     22  C   UNL     1      -0.931  -2.385  -0.268  0.00  0.00    +0.005 A 
ATOM     23  C   UNL     1      -0.992  -1.669   0.912  0.00  0.00    -0.029 A 
ATOM     24  C   UNL     1      -0.058  -0.673   1.167  0.00  0.00    +0.040 A 
ATOM     25  C   UNL     1      -2.067  -1.972   1.924  0.00  0.00    +0.045 C 
ENDBRANCH  14  24
ENDBRANCH   1  15
TORSDOF 2
