REMARK  Name = CHEMBL595625
REMARK  12 active torsions:
REMARK  status: ('A' for Active; 'I' for Inactive)
REMARK    1  A    between atoms: C_1  and  N_2
REMARK    2  A    between atoms: N_2  and  C_3
REMARK    3  A    between atoms: N_2  and  C_4
REMARK    4  A    between atoms: C_4  and  C_5
REMARK    5  A    between atoms: C_5  and  O_6
REMARK    6  A    between atoms: O_6  and  C_7
REMARK    7  A    between atoms: C_17  and  C_37
REMARK    8  A    between atoms: C_18  and  C_20
REMARK    9  A    between atoms: C_23  and  N_26
REMARK   10  A    between atoms: C_27  and  O_29
REMARK   11  A    between atoms: O_29  and  C_30
REMARK   12  A    between atoms: C_30  and  C_31
REMARK                            x       y       z     vdW  Elec       q    Type
REMARK                         _______ _______ _______ _____ _____    ______ ____
ROOT
ATOM      1  C   UNL     1      -2.370  -0.929   3.231  0.00  0.00    +0.121 A 
ATOM      2  C   UNL     1      -1.797  -0.142   4.220  0.00  0.00    +0.047 A 
ATOM      3  C   UNL     1      -2.531   0.146   5.348  0.00  0.00    +0.027 A 
ATOM      4  C   UNL     1      -3.833  -0.337   5.503  0.00  0.00    +0.036 A 
ATOM      5  C   UNL     1      -4.419  -1.109   4.526  0.00  0.00    -0.021 A 
ATOM      6  C   UNL     1      -3.657  -1.397   3.384  0.00  0.00    +0.051 A 
ATOM      7  C   UNL     1      -5.807  -1.710   4.465  0.00  0.00    +0.060 C 
ATOM      8  C   UNL     1      -6.773  -1.162   5.494  0.00  0.00    +0.150 C 
ATOM      9  N   UNL     1      -6.311  -1.441   6.857  0.00  0.00    -0.249 N 
ATOM     10  C   UNL     1      -5.230  -0.904   7.392  0.00  0.00    +0.134 A 
ATOM     11  C   UNL     1      -5.067  -1.399   8.675  0.00  0.00    +0.104 A 
ATOM     12  C   UNL     1      -6.202  -2.312   8.886  0.00  0.00    +0.107 A 
ATOM     13  N   UNL     1      -6.916  -2.302   7.781  0.00  0.00    -0.169 NA
ATOM     14  N   UNL     1      -4.468   0.010   6.699  0.00  0.00    -0.299 N 
ATOM     15  H   UNL     1      -4.369   0.910   7.047  0.00  0.00    +0.154 HD
ENDROOT
BRANCH  12  16
ATOM     16  C   UNL     1      -6.487  -3.096  10.112  0.00  0.00    +0.003 A 
ATOM     17  C   UNL     1      -5.437  -3.609  10.873  0.00  0.00    +0.012 A 
ATOM     18  C   UNL     1      -5.705  -4.337  12.013  0.00  0.00    +0.024 A 
ATOM     19  C   UNL     1      -7.020  -4.559  12.404  0.00  0.00    +0.036 A 
ATOM     20  C   UNL     1      -8.068  -4.049  11.647  0.00  0.00    +0.024 A 
ATOM     21  C   UNL     1      -7.805  -3.316  10.510  0.00  0.00    +0.012 A 
BRANCH  19  22
ATOM     22  N   UNL     1      -7.288  -5.298  13.560  0.00  0.00    -0.251 N 
ATOM     23  C   UNL     1      -6.450  -5.231  14.613  0.00  0.00    +0.405 C 
ATOM     24  O   UNL     1      -5.514  -4.455  14.596  0.00  0.00    -0.226 OA
ATOM     25  H   UNL     1      -8.078  -5.859  13.604  0.00  0.00    +0.158 HD
BRANCH  23  26
ATOM     26  O   UNL     1      -6.649  -6.022  15.684  0.00  0.00    -0.445 OA
BRANCH  26  27
ATOM     27  C   UNL     1      -5.722  -5.897  16.764  0.00  0.00    +0.269 C 
BRANCH  27  28
ATOM     28  C   UNL     1      -6.101  -6.854  17.865  0.00  0.00    -0.010 A 
ATOM     29  C   UNL     1      -6.970  -6.450  18.862  0.00  0.00    +0.007 A 
ATOM     30  C   UNL     1      -7.318  -7.327  19.872  0.00  0.00    +0.000 A 
ATOM     31  C   UNL     1      -6.798  -8.608  19.885  0.00  0.00    +0.000 A 
ATOM     32  C   UNL     1      -5.931  -9.012  18.887  0.00  0.00    +0.000 A 
ATOM     33  C   UNL     1      -5.586  -8.136  17.875  0.00  0.00    +0.007 A 
ENDBRANCH  27  28
ENDBRANCH  26  27
ENDBRANCH  23  26
ENDBRANCH  19  22
ENDBRANCH  12  16
BRANCH  11  34
ATOM     34  C   UNL     1      -3.993  -1.083   9.621  0.00  0.00    +0.247 C 
ATOM     35  O   UNL     1      -4.118  -0.152  10.395  0.00  0.00    -0.270 OA
ATOM     36  N   UNL     1      -2.866  -1.822   9.634  0.00  0.00    -0.325 N 
ATOM     37  H   UNL     1      -2.766  -2.564   9.017  0.00  0.00    +0.145 HD
ATOM     38  H   UNL     1      -2.155  -1.613  10.260  0.00  0.00    +0.145 HD
ENDBRANCH  11  34
BRANCH   1  39
ATOM     39  O   UNL     1      -1.665  -1.234   2.109  0.00  0.00    -0.494 OA
BRANCH  39  40
ATOM     40  C   UNL     1      -0.336  -0.716   2.018  0.00  0.00    +0.210 C 
BRANCH  40  41
ATOM     41  C   UNL     1       0.295  -1.160   0.697  0.00  0.00    -0.038 C 
BRANCH  41  43
ATOM     42  C   UNL     1      -0.270   0.905  -0.385  0.00  0.00    -0.096 C 
ATOM     43  N   UNL     1      -0.436  -0.554  -0.424  0.00  0.00    +0.378 N 
ATOM     44  C   UNL     1       0.093  -1.074  -1.692  0.00  0.00    -0.096 C 
ATOM     45  H   UNL     1      -1.416  -0.784  -0.349  0.00  0.00    -0.082 HD
ENDBRANCH  41  43
ENDBRANCH  40  41
ENDBRANCH  39  40
ENDBRANCH   1  39
TORSDOF 10
