REMARK  Name = CHEMBL460472
REMARK  12 active torsions:
REMARK  status: ('A' for Active; 'I' for Inactive)
REMARK    1  A    between atoms: C_1  and  C_2
REMARK    2  A    between atoms: C_3  and  C_19
REMARK    3  A    between atoms: N_6  and  C_13
REMARK    4  A    between atoms: N_7  and  C_8
REMARK    5  A    between atoms: C_8  and  C_9
REMARK    6  A    between atoms: C_9  and  C_10
REMARK    7  A    between atoms: C_9  and  C_11
REMARK    8  A    between atoms: C_9  and  O_12
REMARK    9  A    between atoms: C_25  and  O_28
REMARK   10  A    between atoms: O_28  and  C_29
REMARK   11  A    between atoms: C_37  and  O_39
REMARK   12  A    between atoms: O_39  and  C_40
REMARK                            x       y       z     vdW  Elec       q    Type
REMARK                         _______ _______ _______ _____ _____    ______ ____
ROOT
ATOM      1  C   UNL     1      -0.318  -0.787  -3.179  0.00  0.00    +0.256 C 
ATOM      2  O   UNL     1      -0.257   0.374  -3.538  0.00  0.00    -0.270 OA
ATOM      3  N   UNL     1      -0.373  -1.774  -4.095  0.00  0.00    -0.266 N 
ATOM      4  C   UNL     1      -0.316  -1.468  -5.454  0.00  0.00    +0.125 A 
ATOM      5  C   UNL     1      -0.616  -0.180  -5.882  0.00  0.00    +0.047 A 
ATOM      6  C   UNL     1      -0.556   0.113  -7.233  0.00  0.00    +0.051 A 
ATOM      7  C   UNL     1      -0.194  -0.902  -8.116  0.00  0.00    +0.147 A 
ATOM      8  C   UNL     1       0.092  -2.162  -7.617  0.00  0.00    +0.159 A 
ATOM      9  N   UNL     1       0.030  -2.406  -6.322  0.00  0.00    -0.236 NA
ATOM     10  H   UNL     1      -0.454  -2.697  -3.808  0.00  0.00    +0.157 HD
ENDROOT
BRANCH   1  13
ATOM     11  C   UNL     1      -0.199   1.282  -0.820  0.00  0.00    +0.066 C 
ATOM     12  C   UNL     1      -0.280  -0.217  -0.696  0.00  0.00    +0.051 A 
ATOM     13  C   UNL     1      -0.331  -1.112  -1.748  0.00  0.00    +0.124 A 
ATOM     14  C   UNL     1      -0.401  -2.455  -1.150  0.00  0.00    +0.284 A 
ATOM     15  O   UNL     1      -0.460  -3.514  -1.746  0.00  0.00    -0.265 OA
ATOM     16  N   UNL     1      -0.388  -2.281   0.188  0.00  0.00    -0.216 N 
ATOM     17  N   UNL     1      -0.308  -0.911   0.457  0.00  0.00    -0.278 N 
BRANCH  16  18
ATOM     18  C   UNL     1      -0.440  -3.300   1.144  0.00  0.00    +0.067 A 
ATOM     19  C   UNL     1      -1.339  -3.218   2.200  0.00  0.00    +0.028 A 
ATOM     20  C   UNL     1      -1.388  -4.226   3.143  0.00  0.00    +0.002 A 
ATOM     21  C   UNL     1      -0.543  -5.316   3.037  0.00  0.00    +0.000 A 
ATOM     22  C   UNL     1       0.353  -5.400   1.987  0.00  0.00    +0.002 A 
ATOM     23  C   UNL     1       0.404  -4.398   1.038  0.00  0.00    +0.028 A 
ENDBRANCH  16  18
BRANCH  17  24
ATOM     24  C   UNL     1      -0.266  -0.319   1.797  0.00  0.00    +0.176 C 
BRANCH  24  25
ATOM     25  C   UNL     1       1.186  -0.242   2.275  0.00  0.00    +0.080 C 
ATOM     26  C   UNL     1       1.221   0.260   3.719  0.00  0.00    +0.043 C 
ATOM     27  C   UNL     1       1.821  -1.632   2.202  0.00  0.00    +0.043 C 
BRANCH  25  28
ATOM     28  O   UNL     1       1.915   0.659   1.439  0.00  0.00    -0.387 OA
ATOM     29  H   UNL     1       2.846   0.757   1.685  0.00  0.00    +0.210 HD
ENDBRANCH  25  28
ENDBRANCH  24  25
ENDBRANCH  17  24
ENDBRANCH   1  13
BRANCH   7  30
ATOM     30  O   UNL     1      -0.122  -0.658  -9.452  0.00  0.00    -0.454 OA
BRANCH  30  31
ATOM     31  C   UNL     1       0.956   0.017  -9.919  0.00  0.00    +0.139 A 
ATOM     32  C   UNL     1       2.010   0.343  -9.083  0.00  0.00    +0.066 A 
ATOM     33  C   UNL     1       3.102   1.036  -9.589  0.00  0.00    +0.115 A 
ATOM     34  N   UNL     1       3.170   1.395 -10.850  0.00  0.00    -0.255 NA
ATOM     35  C   UNL     1       2.187   1.113 -11.713  0.00  0.00    +0.078 A 
ATOM     36  C   UNL     1       1.042   0.404 -11.275  0.00  0.00    +0.043 A 
ATOM     37  C   UNL     1       0.016   0.105 -12.183  0.00  0.00    +0.017 A 
ATOM     38  C   UNL     1       0.128   0.492 -13.483  0.00  0.00    +0.046 A 
ATOM     39  C   UNL     1       1.256   1.187 -13.928  0.00  0.00    +0.122 A 
ATOM     40  C   UNL     1       2.275   1.506 -13.059  0.00  0.00    +0.074 A 
BRANCH  39  41
ATOM     41  O   UNL     1       1.344   1.562 -15.230  0.00  0.00    -0.495 OA
ATOM     42  C   UNL     1       0.250   1.212 -16.081  0.00  0.00    +0.277 C 
ENDBRANCH  39  41
ENDBRANCH  30  31
ENDBRANCH   7  30
TORSDOF 8
