REMARK  Name = CHEMBL443240
REMARK  4 active torsions:
REMARK  status: ('A' for Active; 'I' for Inactive)
REMARK    1  A    between atoms: C_3  and  C_25
REMARK    2  A    between atoms: C_5  and  N_7
REMARK    3  A    between atoms: C_12  and  N_14
REMARK    4  A    between atoms: N_14  and  C_15
REMARK                            x       y       z     vdW  Elec       q    Type
REMARK                         _______ _______ _______ _____ _____    ______ ____
ROOT
ATOM      1  N   UNL     1       1.209  -2.056   0.335  0.00  0.00    -0.284 N 
ATOM      2  C   UNL     1       0.024  -2.772   0.373  0.00  0.00    +0.221 A 
ATOM      3  N   UNL     1      -1.126  -2.116   0.414  0.00  0.00    -0.223 NA
ATOM      4  C   UNL     1      -2.280  -2.767   0.452  0.00  0.00    +0.118 A 
ATOM      5  C   UNL     1      -2.277  -4.148   0.448  0.00  0.00    +0.063 A 
ATOM      6  C   UNL     1      -1.050  -4.812   0.404  0.00  0.00    +0.128 A 
ATOM      7  N   UNL     1       0.070  -4.096   0.363  0.00  0.00    -0.199 NA
ATOM      8  H   UNL     1       2.054  -2.520   0.224  0.00  0.00    +0.155 HD
ENDROOT
BRANCH   1  13
ATOM      9  C   UNL     1       2.104   1.486  -0.111  0.00  0.00    +0.003 A 
ATOM     10  C   UNL     1       1.161   2.104   0.685  0.00  0.00    +0.013 A 
ATOM     11  C   UNL     1       0.220   1.339   1.375  0.00  0.00    +0.038 A 
ATOM     12  C   UNL     1       0.236  -0.051   1.258  0.00  0.00    +0.036 A 
ATOM     13  C   UNL     1       1.188  -0.663   0.456  0.00  0.00    +0.034 A 
ATOM     14  C   UNL     1       2.121   0.109  -0.227  0.00  0.00    +0.023 A 
BRANCH  11  15
ATOM     15  C   UNL     1      -0.791   1.999   2.228  0.00  0.00    +0.242 C 
ATOM     16  O   UNL     1      -1.610   1.330   2.829  0.00  0.00    -0.270 OA
ATOM     17  N   UNL     1      -0.805   3.342   2.341  0.00  0.00    -0.325 N 
ATOM     18  H   UNL     1      -0.152   3.876   1.862  0.00  0.00    +0.145 HD
ATOM     19  H   UNL     1      -1.469   3.775   2.900  0.00  0.00    +0.145 HD
ENDBRANCH  11  15
ENDBRANCH   1  13
BRANCH   6  20
ATOM     20  N   UNL     1      -0.999  -6.197   0.399  0.00  0.00    -0.298 N 
ATOM     21  H   UNL     1      -1.818  -6.713   0.330  0.00  0.00    +0.154 HD
BRANCH  20  22
ATOM     22  C   UNL     1       0.231  -6.851   0.492  0.00  0.00    +0.062 A 
ATOM     23  C   UNL     1       1.334  -6.186   0.992  0.00  0.00    +0.025 A 
ATOM     24  C   UNL     1       2.560  -6.829   1.088  0.00  0.00    +0.004 A 
ATOM     25  C   UNL     1       2.697  -8.139   0.687  0.00  0.00    +0.029 A 
ATOM     26  C   UNL     1       1.600  -8.829   0.181  0.00  0.00    +0.088 A 
ATOM     27  C   UNL     1       0.352  -8.192   0.083  0.00  0.00    +0.134 A 
ATOM     28  N   UNL     1      -0.523  -9.080  -0.427  0.00  0.00    -0.128 NA
ATOM     29  H   UNL     1       2.082 -10.806  -0.355  0.00  0.00    +0.191 HD
ATOM     30  N   UNL     1       0.060 -10.205  -0.649  0.00  0.00    -0.067 NA
ATOM     31  N   UNL     1       1.413 -10.107  -0.291  0.00  0.00    -0.257 N 
ENDBRANCH  20  22
ENDBRANCH   6  20
TORSDOF 4
