REMARK  Name = CHEMBL46785
REMARK  7 active torsions:
REMARK  status: ('A' for Active; 'I' for Inactive)
REMARK    1  A    between atoms: C_1  and  N_2
REMARK    2  A    between atoms: N_5  and  C_8
REMARK    3  A    between atoms: C_11  and  N_14
REMARK    4  A    between atoms: C_17  and  C_19
REMARK    5  A    between atoms: C_22  and  N_25
REMARK    6  A    between atoms: N_25  and  C_26
REMARK    7  A    between atoms: C_32  and  N_36
REMARK                            x       y       z     vdW  Elec       q    Type
REMARK                         _______ _______ _______ _____ _____    ______ ____
ROOT
ATOM      1  N   UNL     1      -1.121  -7.896   1.169  0.00  0.00    -0.243 N 
ATOM      2  C   UNL     1      -1.311  -8.686   2.263  0.00  0.00    +0.164 A 
ATOM      3  C   UNL     1      -1.115 -10.016   1.847  0.00  0.00    +0.086 A 
ATOM      4  C   UNL     1      -0.794  -9.960   0.420  0.00  0.00    +0.105 A 
ATOM      5  N   UNL     1      -0.815  -8.698   0.064  0.00  0.00    -0.168 NA
ATOM      6  C   UNL     1      -1.253 -11.044   2.794  0.00  0.00    +0.131 A 
ATOM      7  N   UNL     1      -1.563 -10.712   4.044  0.00  0.00    -0.220 NA
ATOM      8  C   UNL     1      -1.738  -9.450   4.391  0.00  0.00    +0.225 A 
ATOM      9  N   UNL     1      -1.619  -8.455   3.539  0.00  0.00    -0.216 NA
ENDROOT
BRANCH   1  13
ATOM     10  C   UNL     1      -1.100  -3.887  -0.289  0.00  0.00    -0.068 C 
ATOM     11  C   UNL     1      -2.436  -4.490   0.151  0.00  0.00    -0.013 C 
ATOM     12  C   UNL     1      -2.324  -6.016   0.169  0.00  0.00    +0.025 C 
ATOM     13  C   UNL     1      -1.228  -6.435   1.151  0.00  0.00    +0.109 C 
ATOM     14  C   UNL     1       0.108  -5.832   0.712  0.00  0.00    +0.025 C 
ATOM     15  C   UNL     1      -0.004  -4.306   0.693  0.00  0.00    -0.013 C 
BRANCH  10  20
ATOM     16  C   UNL     1      -1.193   1.562  -1.719  0.00  0.00    +0.104 C 
ATOM     17  N   UNL     1      -1.098   0.098  -1.647  0.00  0.00    -0.309 NA
ATOM     18  C   UNL     1      -2.385  -0.494  -1.254  0.00  0.00    +0.065 C 
ATOM     19  C   UNL     1      -2.260  -2.020  -1.249  0.00  0.00    -0.063 C 
ATOM     20  N   UNL     1      -1.207  -2.422  -0.307  0.00  0.00    +0.383 N 
ATOM     21  C   UNL     1       0.076  -1.843  -0.727  0.00  0.00    -0.063 C 
ATOM     22  C   UNL     1      -0.030  -0.316  -0.727  0.00  0.00    +0.065 C 
ATOM     23  H   UNL     1      -1.439  -2.091   0.618  0.00  0.00    -0.081 HD
ENDBRANCH  10  20
ENDBRANCH   1  13
BRANCH   4  24
ATOM     24  C   UNL     1      -0.505 -11.117  -0.460  0.00  0.00    +0.003 A 
ATOM     25  C   UNL     1      -1.303 -12.258  -0.399  0.00  0.00    +0.012 A 
ATOM     26  C   UNL     1      -1.032 -13.333  -1.219  0.00  0.00    +0.024 A 
ATOM     27  C   UNL     1       0.037 -13.279  -2.106  0.00  0.00    +0.031 A 
ATOM     28  C   UNL     1       0.835 -12.142  -2.169  0.00  0.00    +0.024 A 
ATOM     29  C   UNL     1       0.563 -11.063  -1.356  0.00  0.00    +0.012 A 
BRANCH  27  30
ATOM     30  N   UNL     1       0.309 -14.368  -2.936  0.00  0.00    -0.314 N 
ATOM     31  H   UNL     1       1.222 -14.553  -3.209  0.00  0.00    +0.152 HD
BRANCH  30  32
ATOM     32  C   UNL     1      -0.731 -15.192  -3.372  0.00  0.00    +0.031 A 
ATOM     33  C   UNL     1      -2.002 -14.665  -3.566  0.00  0.00    +0.023 A 
ATOM     34  C   UNL     1      -3.028 -15.482  -3.998  0.00  0.00    +0.002 A 
ATOM     35  C   UNL     1      -2.792 -16.824  -4.235  0.00  0.00    +0.000 A 
ATOM     36  C   UNL     1      -1.529 -17.352  -4.042  0.00  0.00    +0.002 A 
ATOM     37  C   UNL     1      -0.496 -16.540  -3.617  0.00  0.00    +0.023 A 
ENDBRANCH  30  32
ENDBRANCH  27  30
ENDBRANCH   4  24
BRANCH   6  38
ATOM     38  N   UNL     1      -1.072 -12.366   2.436  0.00  0.00    -0.342 N 
ATOM     39  H   UNL     1      -0.672 -12.586   1.581  0.00  0.00    +0.144 HD
ATOM     40  H   UNL     1      -1.345 -13.074   3.041  0.00  0.00    +0.144 HD
ENDBRANCH   6  38
TORSDOF 6
