REMARK  Name = CHEMBL432189
REMARK  6 active torsions:
REMARK  status: ('A' for Active; 'I' for Inactive)
REMARK    1  A    between atoms: C_1  and  C_2
REMARK    2  A    between atoms: C_7  and  N_8
REMARK    3  A    between atoms: C_9  and  C_11
REMARK    4  A    between atoms: C_23  and  C_34
REMARK    5  A    between atoms: N_27  and  C_28
REMARK    6  A    between atoms: C_28  and  C_29
REMARK                            x       y       z     vdW  Elec       q    Type
REMARK                         _______ _______ _______ _____ _____    ______ ____
ROOT
ATOM      1  C   UNL     1      -0.500   0.119   4.802  0.00  0.00    +0.038 A 
ATOM      2  C   UNL     1      -0.209   1.490   4.836  0.00  0.00    +0.015 A 
ATOM      3  C   UNL     1      -0.290   2.203   5.987  0.00  0.00    +0.029 A 
ATOM      4  C   UNL     1      -0.674   1.586   7.203  0.00  0.00    +0.080 A 
ATOM      5  C   UNL     1      -0.963   0.201   7.144  0.00  0.00    +0.041 A 
ATOM      6  C   UNL     1      -0.888  -0.521   5.984  0.00  0.00    +0.030 A 
ATOM      7  S   UNL     1      -1.389  -0.170   8.828  0.00  0.00    -0.052 S 
ATOM      8  C   UNL     1      -1.165   1.477   9.484  0.00  0.00    +0.165 A 
ATOM      9  N   UNL     1      -0.799   2.155   8.418  0.00  0.00    -0.225 NA
ATOM     10  N   UNL     1      -1.334   1.925  10.779  0.00  0.00    -0.279 N 
ATOM     11  C   UNL     1      -1.213   3.277  11.068  0.00  0.00    +0.130 A 
ATOM     12  C   UNL     1      -1.492   3.755  12.349  0.00  0.00    +0.064 A 
ATOM     13  C   UNL     1      -1.358   5.109  12.591  0.00  0.00    +0.019 A 
ATOM     14  N   UNL     1      -0.972   5.908  11.607  0.00  0.00    -0.332 N 
ATOM     15  C   UNL     1      -0.715   5.426  10.400  0.00  0.00    +0.195 A 
ATOM     16  N   UNL     1      -0.825   4.134  10.129  0.00  0.00    -0.201 NA
ATOM     17  N   UNL     1      -0.314   6.294   9.399  0.00  0.00    -0.312 N 
ATOM     18  C   UNL     1      -1.649   5.670  13.959  0.00  0.00    +0.063 C 
ATOM     19  H   UNL     1      -1.536   1.294  11.487  0.00  0.00    +0.155 HD
ATOM     20  H   UNL     1      -0.122   5.954   8.511  0.00  0.00    +0.149 HD
ATOM     21  H   UNL     1      -0.877   6.859  11.773  0.00  0.00    +0.168 HD
ENDROOT
BRANCH   1  23
ATOM     22  N   UNL     1      -0.031  -0.008   2.406  0.00  0.00    -0.280 N 
ATOM     23  C   UNL     1      -0.406  -0.635   3.539  0.00  0.00    +0.248 C 
ATOM     24  O   UNL     1      -0.665  -1.823   3.519  0.00  0.00    -0.270 OA
ATOM     25  H   UNL     1       0.254   0.919   2.436  0.00  0.00    +0.155 HD
BRANCH  22  32
ATOM     26  C   UNL     1      -1.417   1.177   0.223  0.00  0.00    +0.046 C 
ATOM     27  C   UNL     1      -0.718  -0.151   0.096  0.00  0.00    -0.028 A 
ATOM     28  C   UNL     1      -0.733  -0.829  -1.109  0.00  0.00    +0.005 A 
ATOM     29  C   UNL     1      -0.091  -2.047  -1.226  0.00  0.00    +0.002 A 
ATOM     30  C   UNL     1       0.568  -2.594  -0.140  0.00  0.00    +0.022 A 
ATOM     31  C   UNL     1       0.587  -1.922   1.067  0.00  0.00    +0.062 A 
ATOM     32  C   UNL     1      -0.053  -0.694   1.187  0.00  0.00    +0.055 A 
ATOM     33 CL   UNL     1       1.414  -2.608   2.430  0.00  0.00    -0.082 Cl
ENDBRANCH  22  32
ENDBRANCH   1  23
BRANCH  17  34
ATOM     34  C   UNL     1      -0.180   7.725   9.681  0.00  0.00    +0.135 C 
BRANCH  34  35
ATOM     35  C   UNL     1       0.272   8.454   8.414  0.00  0.00    +0.135 C 
ATOM     36  C   UNL     1       0.528   9.943   8.729  0.00  0.00    +0.035 C 
ATOM     37  C   UNL     1      -0.031  10.649   7.463  0.00  0.00    +0.031 C 
ATOM     38  C   UNL     1      -1.216   9.717   7.106  0.00  0.00    +0.160 C 
ATOM     39  O   UNL     1      -0.760   8.392   7.423  0.00  0.00    -0.375 OA
ENDBRANCH  34  35
ENDBRANCH  17  34
TORSDOF 4
