REMARK  Name = CHEMBL26214
REMARK  9 active torsions:
REMARK  status: ('A' for Active; 'I' for Inactive)
REMARK    1  A    between atoms: C_1  and  C_2
REMARK    2  A    between atoms: C_11  and  C_12
REMARK    3  A    between atoms: C_13  and  C_14
REMARK    4  A    between atoms: C_14  and  N_15
REMARK    5  A    between atoms: N_15  and  C_16
REMARK    6  A    between atoms: N_15  and  C_17
REMARK    7  A    between atoms: C_17  and  C_18
REMARK    8  A    between atoms: N_25  and  C_37
REMARK    9  A    between atoms: N_28  and  C_29
REMARK                            x       y       z     vdW  Elec       q    Type
REMARK                         _______ _______ _______ _____ _____    ______ ____
ROOT
ATOM      1  C   UNL     1       0.561   0.166   3.819  0.00  0.00    +0.046 C 
ATOM      2  C   UNL     1       0.463  -1.062   2.950  0.00  0.00    -0.019 A 
ATOM      3  C   UNL     1      -0.791  -1.690   2.755  0.00  0.00    -0.006 A 
ATOM      4  C   UNL     1      -1.957  -1.196   3.355  0.00  0.00    +0.011 A 
ATOM      5  C   UNL     1      -3.151  -1.817   3.152  0.00  0.00    +0.030 A 
ATOM      6  C   UNL     1      -3.238  -2.959   2.342  0.00  0.00    +0.092 A 
ATOM      7  C   UNL     1      -2.086  -3.475   1.730  0.00  0.00    +0.083 A 
ATOM      8  C   UNL     1      -0.855  -2.841   1.934  0.00  0.00    +0.072 A 
ATOM      9  C   UNL     1       0.379  -3.335   1.319  0.00  0.00    +0.259 A 
ATOM     10  N   UNL     1       1.535  -2.681   1.554  0.00  0.00    -0.322 N 
ATOM     11  C   UNL     1       1.575  -1.560   2.351  0.00  0.00    +0.045 A 
ATOM     12  O   UNL     1       0.361  -4.324   0.607  0.00  0.00    -0.267 OA
ATOM     13  N   UNL     1      -2.490  -4.581   1.012  0.00  0.00    -0.314 N 
ATOM     14  C   UNL     1      -3.837  -4.714   1.195  0.00  0.00    +0.201 A 
ATOM     15  N   UNL     1      -4.275  -3.760   1.977  0.00  0.00    -0.214 NA
ATOM     16  N   UNL     1      -4.620  -5.706   0.638  0.00  0.00    -0.283 N 
ATOM     17  C   UNL     1      -1.633  -5.451   0.203  0.00  0.00    +0.152 C 
ATOM     18  H   UNL     1      -4.234  -6.329   0.002  0.00  0.00    +0.155 HD
ATOM     19  H   UNL     1       2.354  -3.005   1.148  0.00  0.00    +0.169 HD
ENDROOT
BRANCH  16  20
ATOM     20  C   UNL     1      -5.970  -5.814   0.992  0.00  0.00    +0.071 A 
ATOM     21  C   UNL     1      -6.836  -4.751   0.766  0.00  0.00    +0.064 A 
ATOM     22  C   UNL     1      -8.168  -4.861   1.117  0.00  0.00    +0.022 A 
ATOM     23  C   UNL     1      -8.639  -6.027   1.693  0.00  0.00    +0.003 A 
ATOM     24  C   UNL     1      -7.780  -7.086   1.921  0.00  0.00    +0.022 A 
ATOM     25  C   UNL     1      -6.448  -6.986   1.566  0.00  0.00    +0.064 A 
ATOM     26 CL   UNL     1      -5.372  -8.319   1.844  0.00  0.00    -0.082 Cl
ATOM     27 CL   UNL     1      -6.245  -3.287   0.044  0.00  0.00    -0.082 Cl
ENDBRANCH  16  20
BRANCH  11  28
ATOM     28  C   UNL     1       2.864  -0.884   2.567  0.00  0.00    +0.020 C 
ATOM     29  C   UNL     1       3.954  -1.318   1.941  0.00  0.00    -0.043 C 
BRANCH  29  30
ATOM     30  C   UNL     1       5.275  -0.626   2.162  0.00  0.00    -0.051 C 
BRANCH  30  31
ATOM     31  N   UNL     1       6.275  -1.608   2.603  0.00  0.00    +0.383 N 
ATOM     32  C   UNL     1       5.891  -2.141   3.917  0.00  0.00    -0.095 C 
ATOM     33  H   UNL     1       6.323  -2.362   1.935  0.00  0.00    -0.081 HD
BRANCH  31  34
ATOM     34  C   UNL     1       7.588  -0.958   2.703  0.00  0.00    -0.043 C 
BRANCH  34  35
ATOM     35  C   UNL     1       8.635  -1.989   3.035  0.00  0.00    -0.064 A 
ATOM     36  C   UNL     1       8.928  -2.276   4.356  0.00  0.00    +0.002 A 
ATOM     37  C   UNL     1       9.889  -3.222   4.661  0.00  0.00    +0.000 A 
ATOM     38  C   UNL     1      10.556  -3.882   3.646  0.00  0.00    +0.000 A 
ATOM     39  C   UNL     1      10.262  -3.596   2.325  0.00  0.00    +0.000 A 
ATOM     40  C   UNL     1       9.299  -2.653   2.020  0.00  0.00    +0.002 A 
ENDBRANCH  34  35
ENDBRANCH  31  34
ENDBRANCH  30  31
ENDBRANCH  29  30
ENDBRANCH  11  28
TORSDOF 6
