REMARK  Name = CHEMBL473250
REMARK  6 active torsions:
REMARK  status: ('A' for Active; 'I' for Inactive)
REMARK    1  A    between atoms: C_1  and  C_2
REMARK    2  A    between atoms: C_7  and  N_8
REMARK    3  A    between atoms: C_20  and  N_24
REMARK    4  A    between atoms: C_28  and  C_31
REMARK    5  A    between atoms: C_31  and  C_32
REMARK    6  A    between atoms: C_32  and  N_33
REMARK                            x       y       z     vdW  Elec       q    Type
REMARK                         _______ _______ _______ _____ _____    ______ ____
ROOT
ATOM      1  N   UNL     1      -3.291   0.170   5.458  0.00  0.00    -0.283 N 
ATOM      2  C   UNL     1      -2.218  -0.376   4.784  0.00  0.00    +0.207 A 
ATOM      3  N   UNL     1      -2.195  -1.571   4.249  0.00  0.00    -0.214 NA
ATOM      4  C   UNL     1      -0.986  -1.788   3.665  0.00  0.00    +0.091 A 
ATOM      5  C   UNL     1      -0.438  -2.868   2.969  0.00  0.00    +0.030 A 
ATOM      6  C   UNL     1       0.849  -2.787   2.485  0.00  0.00    +0.002 A 
ATOM      7  C   UNL     1       1.605  -1.642   2.683  0.00  0.00    +0.002 A 
ATOM      8  C   UNL     1       1.078  -0.567   3.370  0.00  0.00    +0.028 A 
ATOM      9  C   UNL     1      -0.216  -0.630   3.863  0.00  0.00    +0.077 A 
ATOM     10  N   UNL     1      -1.020   0.252   4.570  0.00  0.00    -0.264 N 
ATOM     11  C   UNL     1      -0.673   1.536   4.986  0.00  0.00    +0.145 A 
ATOM     12  C   UNL     1      -0.073   2.426   4.102  0.00  0.00    +0.090 A 
ATOM     13  C   UNL     1       0.255   3.697   4.567  0.00  0.00    +0.129 A 
ATOM     14  N   UNL     1      -0.017   4.012   5.831  0.00  0.00    -0.220 NA
ATOM     15  C   UNL     1      -0.587   3.140   6.638  0.00  0.00    +0.225 A 
ATOM     16  N   UNL     1      -0.917   1.930   6.234  0.00  0.00    -0.218 NA
ATOM     17  H   UNL     1      -3.243   1.081   5.789  0.00  0.00    +0.155 HD
ENDROOT
BRANCH   1  24
ATOM     18  C   UNL     1      -4.168  -0.246   8.132  0.00  0.00    +0.046 C 
ATOM     19  C   UNL     1      -4.911  -0.817   6.952  0.00  0.00    -0.028 A 
ATOM     20  C   UNL     1      -6.057  -1.562   7.151  0.00  0.00    +0.005 A 
ATOM     21  C   UNL     1      -6.740  -2.086   6.069  0.00  0.00    +0.002 A 
ATOM     22  C   UNL     1      -6.279  -1.865   4.784  0.00  0.00    +0.022 A 
ATOM     23  C   UNL     1      -5.134  -1.121   4.577  0.00  0.00    +0.062 A 
ATOM     24  C   UNL     1      -4.448  -0.589   5.663  0.00  0.00    +0.055 A 
ATOM     25 CL   UNL     1      -4.556  -0.845   2.964  0.00  0.00    -0.082 Cl
ENDBRANCH   1  24
BRANCH  13  26
ATOM     26  N   UNL     1       0.856   4.621   3.724  0.00  0.00    -0.284 N 
ATOM     27  C   UNL     1       1.301   5.839   4.231  0.00  0.00    +0.124 A 
ATOM     28  C   UNL     1       1.485   5.989   5.602  0.00  0.00    +0.044 A 
ATOM     29  C   UNL     1       1.928   7.204   6.092  0.00  0.00    +0.008 A 
ATOM     30  C   UNL     1       2.173   8.232   5.191  0.00  0.00    -0.028 A 
ATOM     31  C   UNL     1       1.968   8.014   3.844  0.00  0.00    +0.116 A 
ATOM     32  N   UNL     1       1.550   6.842   3.404  0.00  0.00    -0.240 NA
ATOM     33  H   UNL     1       0.966   4.419   2.782  0.00  0.00    +0.155 HD
BRANCH  30  34
ATOM     34  C   UNL     1       2.656   9.573   5.680  0.00  0.00    +0.052 C 
BRANCH  34  35
ATOM     35  C   UNL     1       4.183   9.626   5.598  0.00  0.00    +0.089 C 
BRANCH  35  36
ATOM     36  N   UNL     1       4.662  10.885   6.185  0.00  0.00    -0.298 NA
ATOM     37  C   UNL     1       4.234  12.038   5.380  0.00  0.00    +0.112 C 
ATOM     38  C   UNL     1       4.702  13.329   6.058  0.00  0.00    +0.175 C 
ATOM     39  O   UNL     1       6.121  13.284   6.230  0.00  0.00    -0.377 OA
ATOM     40  C   UNL     1       6.572  12.173   7.010  0.00  0.00    +0.175 C 
ATOM     41  C   UNL     1       6.123  10.871   6.341  0.00  0.00    +0.112 C 
ENDBRANCH  35  36
ENDBRANCH  34  35
ENDBRANCH  30  34
ENDBRANCH  13  26
TORSDOF 5
