REMARK  Name = CHEMBL427226
REMARK  8 active torsions:
REMARK  status: ('A' for Active; 'I' for Inactive)
REMARK    1  A    between atoms: C_1  and  C_2
REMARK    2  A    between atoms: C_5  and  C_20
REMARK    3  A    between atoms: C_7  and  C_8
REMARK    4  A    between atoms: N_18  and  C_19
REMARK    5  A    between atoms: N_22  and  C_23
REMARK    6  A    between atoms: C_26  and  O_29
REMARK    7  A    between atoms: O_29  and  C_30
REMARK    8  A    between atoms: N_33  and  C_36
REMARK                            x       y       z     vdW  Elec       q    Type
REMARK                         _______ _______ _______ _____ _____    ______ ____
ROOT
ATOM      1  C   UNL     1      -1.463   1.415  -1.133  0.00  0.00    +0.044 C 
ATOM      2  C   UNL     1      -1.244  -0.069  -0.993  0.00  0.00    -0.043 A 
ATOM      3  C   UNL     1      -1.254  -0.875  -2.115  0.00  0.00    +0.005 A 
ATOM      4  C   UNL     1      -1.053  -2.236  -1.996  0.00  0.00    +0.013 A 
ATOM      5  C   UNL     1      -0.839  -2.805  -0.739  0.00  0.00    +0.038 A 
ATOM      6  C   UNL     1      -0.829  -1.996   0.396  0.00  0.00    +0.021 A 
ATOM      7  C   UNL     1      -1.026  -0.624   0.267  0.00  0.00    -0.014 A 
ENDROOT
BRANCH   7   8
ATOM      8  C   UNL     1      -1.010   0.245   1.470  0.00  0.00    -0.017 A 
ATOM      9  C   UNL     1      -0.224   1.408   1.478  0.00  0.00    +0.010 A 
ATOM     10  C   UNL     1      -0.192   2.222   2.566  0.00  0.00    +0.029 A 
ATOM     11  C   UNL     1      -0.952   1.903   3.702  0.00  0.00    +0.076 A 
ATOM     12  C   UNL     1      -1.750   0.729   3.704  0.00  0.00    +0.019 A 
ATOM     13  C   UNL     1      -1.775  -0.095   2.572  0.00  0.00    +0.020 A 
ATOM     14  C   UNL     1      -2.502   0.434   4.856  0.00  0.00    +0.124 A 
ATOM     15  N   UNL     1      -2.433   1.258   5.880  0.00  0.00    -0.222 NA
ATOM     16  C   UNL     1      -1.673   2.351   5.844  0.00  0.00    +0.215 A 
ATOM     17  N   UNL     1      -0.947   2.679   4.793  0.00  0.00    -0.215 NA
ATOM     18  N   UNL     1      -1.644   3.176   6.954  0.00  0.00    -0.317 N 
ATOM     19  C   UNL     1      -2.439   2.840   8.138  0.00  0.00    +0.128 C 
ATOM     20  H   UNL     1      -1.097   3.978   6.948  0.00  0.00    +0.149 HD
ENDBRANCH   7   8
BRANCH   5  21
ATOM     21  C   UNL     1      -0.625  -4.262  -0.612  0.00  0.00    +0.248 C 
ATOM     22  O   UNL     1      -0.439  -4.756   0.483  0.00  0.00    -0.270 OA
ATOM     23  N   UNL     1      -0.636  -5.043  -1.710  0.00  0.00    -0.281 N 
ATOM     24  H   UNL     1      -0.853  -4.661  -2.575  0.00  0.00    +0.155 HD
BRANCH  23  25
ATOM     25  C   UNL     1      -0.334  -6.406  -1.603  0.00  0.00    +0.034 A 
ATOM     26  C   UNL     1       0.374  -7.042  -2.614  0.00  0.00    +0.027 A 
ATOM     27  C   UNL     1       0.672  -8.387  -2.507  0.00  0.00    +0.047 A 
ATOM     28  C   UNL     1       0.263  -9.101  -1.391  0.00  0.00    +0.121 A 
ATOM     29  C   UNL     1      -0.445  -8.467  -0.381  0.00  0.00    +0.047 A 
ATOM     30  C   UNL     1      -0.738  -7.121  -0.483  0.00  0.00    +0.027 A 
BRANCH  28  31
ATOM     31  O   UNL     1       0.556 -10.425  -1.287  0.00  0.00    -0.489 OA
BRANCH  31  32
ATOM     32  C   UNL     1       1.385 -10.988  -2.305  0.00  0.00    +0.170 C 
ATOM     33  C   UNL     1       0.520 -11.403  -3.499  0.00  0.00    +0.026 C 
ATOM     34  C   UNL     1       1.402 -12.077  -4.552  0.00  0.00    -0.076 C 
ATOM     35  N   UNL     1       2.042 -13.264  -3.972  0.00  0.00    +0.378 N 
ATOM     36  C   UNL     1       2.929 -12.866  -2.873  0.00  0.00    -0.076 C 
ATOM     37  C   UNL     1       2.105 -12.223  -1.755  0.00  0.00    +0.026 C 
ATOM     38  C   UNL     1       2.826 -13.951  -5.008  0.00  0.00    -0.096 C 
ATOM     39  H   UNL     1       1.332 -13.890  -3.621  0.00  0.00    -0.082 HD
ENDBRANCH  31  32
ENDBRANCH  28  31
ENDBRANCH  23  25
ENDBRANCH   5  21
TORSDOF 5
