REMARK  Name = CHEMBL516276
REMARK  3 active torsions:
REMARK  status: ('A' for Active; 'I' for Inactive)
REMARK    1  A    between atoms: C_1  and  C_2
REMARK    2  A    between atoms: C_7  and  N_8
REMARK    3  A    between atoms: C_20  and  N_24
REMARK                            x       y       z     vdW  Elec       q    Type
REMARK                         _______ _______ _______ _____ _____    ______ ____
ROOT
ATOM      1  N   UNL     1       1.423  -0.461   3.346  0.00  0.00    -0.283 N 
ATOM      2  C   UNL     1       0.275  -0.860   3.999  0.00  0.00    +0.207 A 
ATOM      3  N   UNL     1      -0.238  -2.064   3.952  0.00  0.00    -0.214 NA
ATOM      4  C   UNL     1      -1.367  -2.111   4.708  0.00  0.00    +0.091 A 
ATOM      5  C   UNL     1      -2.284  -3.124   5.000  0.00  0.00    +0.030 A 
ATOM      6  C   UNL     1      -3.356  -2.859   5.823  0.00  0.00    +0.002 A 
ATOM      7  C   UNL     1      -3.533  -1.595   6.364  0.00  0.00    +0.002 A 
ATOM      8  C   UNL     1      -2.636  -0.583   6.084  0.00  0.00    +0.028 A 
ATOM      9  C   UNL     1      -1.551  -0.832   5.259  0.00  0.00    +0.077 A 
ATOM     10  N   UNL     1      -0.495  -0.058   4.800  0.00  0.00    -0.264 N 
ATOM     11  C   UNL     1      -0.262   1.284   5.095  0.00  0.00    +0.145 A 
ATOM     12  C   UNL     1       0.038   2.187   4.081  0.00  0.00    +0.090 A 
ATOM     13  C   UNL     1       0.262   3.517   4.428  0.00  0.00    +0.121 A 
ATOM     14  N   UNL     1       0.181   3.873   5.708  0.00  0.00    -0.221 NA
ATOM     15  C   UNL     1      -0.106   2.986   6.639  0.00  0.00    +0.225 A 
ATOM     16  N   UNL     1      -0.330   1.720   6.350  0.00  0.00    -0.218 NA
ATOM     17  H   UNL     1       1.785   0.425   3.500  0.00  0.00    +0.155 HD
ENDROOT
BRANCH   1  24
ATOM     18  C   UNL     1       3.069  -2.509   4.436  0.00  0.00    +0.046 C 
ATOM     19  C   UNL     1       2.876  -2.348   2.950  0.00  0.00    -0.028 A 
ATOM     20  C   UNL     1       3.503  -3.213   2.074  0.00  0.00    +0.005 A 
ATOM     21  C   UNL     1       3.326  -3.067   0.711  0.00  0.00    +0.002 A 
ATOM     22  C   UNL     1       2.522  -2.055   0.219  0.00  0.00    +0.022 A 
ATOM     23  C   UNL     1       1.892  -1.187   1.089  0.00  0.00    +0.062 A 
ATOM     24  C   UNL     1       2.063  -1.335   2.461  0.00  0.00    +0.055 A 
ATOM     25 CL   UNL     1       0.882   0.083   0.471  0.00  0.00    -0.082 Cl
ENDBRANCH   1  24
BRANCH  13  26
ATOM     26  N   UNL     1       0.564   4.456   3.454  0.00  0.00    -0.343 N 
ATOM     27  H   UNL     1       0.622   4.188   2.524  0.00  0.00    +0.144 HD
ATOM     28  H   UNL     1       0.719   5.380   3.704  0.00  0.00    +0.144 HD
ENDBRANCH  13  26
TORSDOF 2
