REMARK  Name = CHEMBL497343
REMARK  4 active torsions:
REMARK  status: ('A' for Active; 'I' for Inactive)
REMARK    1  A    between atoms: C_1  and  C_2
REMARK    2  A    between atoms: N_5  and  C_20
REMARK    3  A    between atoms: C_8  and  C_9
REMARK    4  A    between atoms: C_23  and  N_26
REMARK                            x       y       z     vdW  Elec       q    Type
REMARK                         _______ _______ _______ _____ _____    ______ ____
ROOT
ATOM      1  C   UNL     1      -0.052   1.502   0.022  0.00  0.00    +0.044 C 
ATOM      2  C   UNL     1      -0.014  -0.004   0.008  0.00  0.00    -0.036 A 
ATOM      3  C   UNL     1      -0.690  -0.722  -0.985  0.00  0.00    +0.022 A 
ATOM      4  C   UNL     1      -0.650  -2.076  -0.990  0.00  0.00    +0.095 A 
ATOM      5  N   UNL     1       0.040  -2.761  -0.041  0.00  0.00    -0.284 N 
ATOM      6  C   UNL     1       0.706  -2.114   0.934  0.00  0.00    +0.264 A 
ATOM      7  O   UNL     1       1.321  -2.746   1.778  0.00  0.00    -0.267 OA
ATOM      8  C   UNL     1       0.696  -0.699   0.975  0.00  0.00    +0.050 A 
ENDROOT
BRANCH   8   9
ATOM      9  C   UNL     1       1.428   0.028   2.038  0.00  0.00    -0.012 A 
ATOM     10  C   UNL     1       2.513   0.853   1.698  0.00  0.00    +0.011 A 
ATOM     11  C   UNL     1       3.202   1.531   2.653  0.00  0.00    +0.029 A 
ATOM     12  C   UNL     1       2.831   1.412   4.002  0.00  0.00    +0.076 A 
ATOM     13  C   UNL     1       1.736   0.582   4.357  0.00  0.00    +0.019 A 
ATOM     14  C   UNL     1       1.033  -0.106   3.359  0.00  0.00    +0.020 A 
ATOM     15  C   UNL     1       1.385   0.481   5.717  0.00  0.00    +0.124 A 
ATOM     16  N   UNL     1       2.088   1.161   6.598  0.00  0.00    -0.222 NA
ATOM     17  C   UNL     1       3.110   1.931   6.230  0.00  0.00    +0.213 A 
ATOM     18  N   UNL     1       3.484   2.063   4.972  0.00  0.00    -0.215 NA
ATOM     19  N   UNL     1       3.808   2.619   7.206  0.00  0.00    -0.327 N 
ATOM     20  H   UNL     1       3.549   2.536   8.137  0.00  0.00    +0.145 HD
ATOM     21  H   UNL     1       4.556   3.186   6.959  0.00  0.00    +0.145 HD
ENDBRANCH   8   9
BRANCH   5  22
ATOM     22  C   UNL     1       0.059  -4.161  -0.077  0.00  0.00    +0.050 A 
ATOM     23  C   UNL     1       1.053  -4.824  -0.785  0.00  0.00    +0.028 A 
ATOM     24  C   UNL     1       1.072  -6.204  -0.822  0.00  0.00    +0.030 A 
ATOM     25  C   UNL     1       0.096  -6.929  -0.150  0.00  0.00    +0.065 A 
ATOM     26  C   UNL     1      -0.898  -6.266   0.558  0.00  0.00    +0.030 A 
ATOM     27  C   UNL     1      -0.913  -4.887   0.599  0.00  0.00    +0.028 A 
BRANCH  25  28
ATOM     28  N   UNL     1       0.115  -8.331  -0.187  0.00  0.00    -0.240 N 
ATOM     29  C   UNL     1      -0.772  -9.154   0.415  0.00  0.00    +0.114 A 
ATOM     30  C   UNL     1      -0.406 -10.427   0.138  0.00  0.00    +0.041 A 
ATOM     31  C   UNL     1       0.743 -10.381  -0.659  0.00  0.00    +0.135 A 
ATOM     32  N   UNL     1       1.053  -9.125  -0.859  0.00  0.00    -0.175 NA
ENDBRANCH  25  28
ENDBRANCH   5  22
TORSDOF 3
