REMARK  Name = CHEMBL426805
REMARK  3 active torsions:
REMARK  status: ('A' for Active; 'I' for Inactive)
REMARK    1  A    between atoms: C_1  and  C_2
REMARK    2  A    between atoms: C_7  and  N_8
REMARK    3  A    between atoms: C_20  and  N_22
REMARK                            x       y       z     vdW  Elec       q    Type
REMARK                         _______ _______ _______ _____ _____    ______ ____
ROOT
ATOM      1  N   UNL     1       0.029  -0.016   2.417  0.00  0.00    -0.296 N 
ATOM      2  C   UNL     1      -0.361  -0.659   3.578  0.00  0.00    +0.149 A 
ATOM      3  C   UNL     1      -0.467   0.086   4.830  0.00  0.00    +0.107 A 
ATOM      4  C   UNL     1      -0.257   1.395   5.188  0.00  0.00    +0.142 A 
ATOM      5  N   UNL     1      -0.514   1.501   6.494  0.00  0.00    -0.243 NA
ATOM      6  C   UNL     1      -0.872   0.336   6.972  0.00  0.00    +0.205 A 
ATOM      7  N   UNL     1      -0.859  -0.574   5.981  0.00  0.00    -0.278 N 
ATOM      8  C   UNL     1      -1.142  -1.929   5.913  0.00  0.00    +0.167 A 
ATOM      9  C   UNL     1      -1.026  -2.600   4.686  0.00  0.00    +0.109 A 
ATOM     10  N   UNL     1      -0.644  -1.944   3.559  0.00  0.00    -0.227 NA
ATOM     11  C   UNL     1      -1.317  -3.972   4.631  0.00  0.00    +0.035 A 
ATOM     12  C   UNL     1      -1.706  -4.608   5.792  0.00  0.00    +0.046 A 
ATOM     13  C   UNL     1      -1.798  -3.877   6.975  0.00  0.00    +0.124 A 
ATOM     14  N   UNL     1      -1.520  -2.584   7.001  0.00  0.00    -0.212 NA
ATOM     15  H   UNL     1       0.160   0.945   2.416  0.00  0.00    +0.154 HD
ENDROOT
BRANCH   1  22
ATOM     16  C   UNL     1       2.682  -0.223   1.410  0.00  0.00    +0.046 C 
ATOM     17  C   UNL     1       1.513  -0.878   0.719  0.00  0.00    -0.028 A 
ATOM     18  C   UNL     1       1.714  -1.610  -0.435  0.00  0.00    +0.005 A 
ATOM     19  C   UNL     1       0.643  -2.211  -1.070  0.00  0.00    +0.002 A 
ATOM     20  C   UNL     1      -0.633  -2.083  -0.552  0.00  0.00    +0.022 A 
ATOM     21  C   UNL     1      -0.841  -1.353   0.603  0.00  0.00    +0.062 A 
ATOM     22  C   UNL     1       0.235  -0.751   1.246  0.00  0.00    +0.054 A 
ATOM     23 CL   UNL     1      -2.443  -1.193   1.253  0.00  0.00    -0.082 Cl
ENDBRANCH   1  22
BRANCH  13  24
ATOM     24  N   UNL     1      -2.191  -4.517   8.145  0.00  0.00    -0.311 N 
ATOM     25  C   UNL     1      -2.522  -3.747   9.355  0.00  0.00    +0.134 C 
ATOM     26  C   UNL     1      -3.882  -4.224   9.875  0.00  0.00    +0.178 C 
ATOM     27  O   UNL     1      -3.861  -5.647  10.014  0.00  0.00    -0.377 OA
ATOM     28  C   UNL     1      -3.660  -6.352   8.787  0.00  0.00    +0.178 C 
ATOM     29  C   UNL     1      -2.294  -5.983   8.210  0.00  0.00    +0.134 C 
ENDBRANCH  13  24
TORSDOF 2
