REMARK  Name = CHEMBL45683
REMARK  8 active torsions:
REMARK  status: ('A' for Active; 'I' for Inactive)
REMARK    1  A    between atoms: C_1  and  N_2
REMARK    2  A    between atoms: N_5  and  C_8
REMARK    3  A    between atoms: C_11  and  N_14
REMARK    4  A    between atoms: C_17  and  C_19
REMARK    5  A    between atoms: C_22  and  N_25
REMARK    6  A    between atoms: N_25  and  C_26
REMARK    7  A    between atoms: C_26  and  C_27
REMARK    8  A    between atoms: C_37  and  N_41
REMARK                            x       y       z     vdW  Elec       q    Type
REMARK                         _______ _______ _______ _____ _____    ______ ____
ROOT
ATOM      1  N   UNL     1      -1.696  -8.187   1.857  0.00  0.00    -0.243 N 
ATOM      2  C   UNL     1      -1.815  -8.984   2.957  0.00  0.00    +0.164 A 
ATOM      3  C   UNL     1      -1.472 -10.289   2.555  0.00  0.00    +0.086 A 
ATOM      4  C   UNL     1      -1.139 -10.210   1.133  0.00  0.00    +0.105 A 
ATOM      5  N   UNL     1      -1.291  -8.959   0.764  0.00  0.00    -0.168 NA
ATOM      6  C   UNL     1      -1.513 -11.318   3.510  0.00  0.00    +0.131 A 
ATOM      7  N   UNL     1      -1.874 -11.012   4.752  0.00  0.00    -0.220 NA
ATOM      8  C   UNL     1      -2.188  -9.773   5.086  0.00  0.00    +0.225 A 
ATOM      9  N   UNL     1      -2.164  -8.778   4.226  0.00  0.00    -0.216 NA
ENDROOT
BRANCH   1  13
ATOM     10  C   UNL     1      -2.086  -4.210   0.364  0.00  0.00    -0.068 C 
ATOM     11  C   UNL     1      -3.355  -4.950   0.791  0.00  0.00    -0.013 C 
ATOM     12  C   UNL     1      -3.081  -6.455   0.826  0.00  0.00    +0.025 C 
ATOM     13  C   UNL     1      -1.959  -6.746   1.825  0.00  0.00    +0.109 C 
ATOM     14  C   UNL     1      -0.690  -6.006   1.397  0.00  0.00    +0.025 C 
ATOM     15  C   UNL     1      -0.964  -4.501   1.363  0.00  0.00    -0.013 C 
BRANCH  10  20
ATOM     16  C   UNL     1      -2.744   1.186  -1.118  0.00  0.00    +0.104 C 
ATOM     17  N   UNL     1      -2.493  -0.259  -1.032  0.00  0.00    -0.309 NA
ATOM     18  C   UNL     1      -3.713  -0.983  -0.649  0.00  0.00    +0.065 C 
ATOM     19  C   UNL     1      -3.426  -2.485  -0.628  0.00  0.00    -0.063 C 
ATOM     20  N   UNL     1      -2.349  -2.765   0.331  0.00  0.00    +0.383 N 
ATOM     21  C   UNL     1      -1.130  -2.055  -0.078  0.00  0.00    -0.063 C 
ATOM     22  C   UNL     1      -1.399  -0.548  -0.094  0.00  0.00    +0.065 C 
ATOM     23  H   UNL     1      -2.628  -2.453   1.249  0.00  0.00    -0.081 HD
ENDBRANCH  10  20
ENDBRANCH   1  13
BRANCH   4  24
ATOM     24  C   UNL     1      -0.717 -11.335   0.266  0.00  0.00    +0.003 A 
ATOM     25  C   UNL     1      -1.395 -12.552   0.321  0.00  0.00    +0.012 A 
ATOM     26  C   UNL     1      -1.000 -13.598  -0.486  0.00  0.00    +0.023 A 
ATOM     27  C   UNL     1       0.074 -13.439  -1.354  0.00  0.00    +0.027 A 
ATOM     28  C   UNL     1       0.752 -12.227  -1.411  0.00  0.00    +0.023 A 
ATOM     29  C   UNL     1       0.357 -11.177  -0.610  0.00  0.00    +0.012 A 
BRANCH  27  30
ATOM     30  N   UNL     1       0.472 -14.499  -2.170  0.00  0.00    -0.338 N 
ATOM     31  H   UNL     1      -0.000 -15.346  -2.131  0.00  0.00    +0.146 HD
BRANCH  30  32
ATOM     32  C   UNL     1       1.604 -14.334  -3.086  0.00  0.00    +0.154 C 
BRANCH  32  33
ATOM     33  C   UNL     1       1.827 -15.616  -3.846  0.00  0.00    +0.034 A 
ATOM     34  C   UNL     1       2.693 -16.579  -3.496  0.00  0.00    +0.032 A 
ATOM     35  C   UNL     1       2.588 -17.637  -4.503  0.00  0.00    -0.000 A 
ATOM     36  C   UNL     1       3.218 -18.870  -4.686  0.00  0.00    +0.010 A 
ATOM     37  C   UNL     1       2.888 -19.648  -5.759  0.00  0.00    +0.001 A 
ATOM     38  C   UNL     1       1.930 -19.223  -6.670  0.00  0.00    +0.002 A 
ATOM     39  C   UNL     1       1.296 -18.011  -6.510  0.00  0.00    +0.026 A 
ATOM     40  C   UNL     1       1.617 -17.202  -5.424  0.00  0.00    +0.047 A 
ATOM     41  N   UNL     1       1.171 -15.973  -4.993  0.00  0.00    -0.357 N 
ATOM     42  H   UNL     1       0.494 -15.439  -5.437  0.00  0.00    +0.166 HD
ENDBRANCH  32  33
ENDBRANCH  30  32
ENDBRANCH  27  30
ENDBRANCH   4  24
BRANCH   6  43
ATOM     43  N   UNL     1      -1.186 -12.615   3.166  0.00  0.00    -0.342 N 
ATOM     44  H   UNL     1      -0.710 -12.793   2.340  0.00  0.00    +0.144 HD
ATOM     45  H   UNL     1      -1.432 -13.349   3.752  0.00  0.00    +0.144 HD
ENDBRANCH   6  43
TORSDOF 7
