REMARK  Name = CHEMBL220847
REMARK  8 active torsions:
REMARK  status: ('A' for Active; 'I' for Inactive)
REMARK    1  A    between atoms: C_1  and  C_2
REMARK    2  A    between atoms: C_5  and  O_34
REMARK    3  A    between atoms: C_7  and  N_8
REMARK    4  A    between atoms: C_11  and  O_24
REMARK    5  A    between atoms: O_24  and  C_25
REMARK    6  A    between atoms: C_25  and  C_26
REMARK    7  A    between atoms: C_26  and  N_27
REMARK    8  A    between atoms: N_30  and  C_33
REMARK                            x       y       z     vdW  Elec       q    Type
REMARK                         _______ _______ _______ _____ _____    ______ ____
ROOT
ATOM      1  N   UNL     1      -0.117  -0.736   1.411  0.00  0.00    -0.299 N 
ATOM      2  C   UNL     1      -0.039  -1.227   2.706  0.00  0.00    +0.132 A 
ATOM      3  C   UNL     1       0.188  -2.582   2.936  0.00  0.00    +0.111 A 
ATOM      4  C   UNL     1       0.258  -3.027   4.250  0.00  0.00    +0.221 A 
ATOM      5  N   UNL     1       0.107  -2.151   5.239  0.00  0.00    -0.177 NA
ATOM      6  C   UNL     1      -0.108  -0.870   4.985  0.00  0.00    +0.241 A 
ATOM      7  N   UNL     1      -0.175  -0.408   3.747  0.00  0.00    -0.196 NA
ATOM      8  N   UNL     1      -0.261   0.015   6.048  0.00  0.00    -0.267 N 
ATOM      9  C   UNL     1      -0.493   1.357   5.957  0.00  0.00    +0.207 A 
ATOM     10  N   UNL     1      -0.584   1.875   7.146  0.00  0.00    -0.235 NA
ATOM     11  C   UNL     1      -0.417   0.906   8.084  0.00  0.00    +0.089 A 
ATOM     12  C   UNL     1      -0.214  -0.301   7.394  0.00  0.00    +0.076 A 
ATOM     13  C   UNL     1      -0.018  -1.478   8.102  0.00  0.00    +0.028 A 
ATOM     14  C   UNL     1      -0.027  -1.460   9.481  0.00  0.00    +0.002 A 
ATOM     15  C   UNL     1      -0.231  -0.271  10.166  0.00  0.00    +0.002 A 
ATOM     16  C   UNL     1      -0.418   0.908   9.481  0.00  0.00    +0.030 A 
ATOM     17  H   UNL     1       0.088  -1.316   0.660  0.00  0.00    +0.154 HD
ENDROOT
BRANCH   1  24
ATOM     18  C   UNL     1       0.760   0.517  -0.987  0.00  0.00    +0.045 C 
ATOM     19  C   UNL     1      -0.083   1.243   0.030  0.00  0.00    -0.029 A 
ATOM     20  C   UNL     1      -0.455   2.555  -0.193  0.00  0.00    +0.009 A 
ATOM     21  C   UNL     1      -1.228   3.224   0.737  0.00  0.00    +0.046 A 
ATOM     22  C   UNL     1      -1.631   2.581   1.899  0.00  0.00    +0.119 A 
ATOM     23  C   UNL     1      -1.260   1.265   2.126  0.00  0.00    +0.069 A 
ATOM     24  C   UNL     1      -0.489   0.592   1.188  0.00  0.00    +0.039 A 
BRANCH  22  25
ATOM     25  O   UNL     1      -2.391   3.240   2.813  0.00  0.00    -0.507 OA
ATOM     26  H   UNL     1      -3.343   3.154   2.669  0.00  0.00    +0.292 HD
ENDBRANCH  22  25
ENDBRANCH   1  24
BRANCH   4  27
ATOM     27  O   UNL     1       0.477  -4.337   4.521  0.00  0.00    -0.475 OA
BRANCH  27  28
ATOM     28  C   UNL     1       0.535  -4.714   5.898  0.00  0.00    +0.246 C 
BRANCH  28  29
ATOM     29  C   UNL     1       0.787  -6.219   6.004  0.00  0.00    +0.125 C 
BRANCH  29  30
ATOM     30  N   UNL     1       2.097  -6.539   5.419  0.00  0.00    -0.303 NA
ATOM     31  C   UNL     1       2.183  -7.963   5.067  0.00  0.00    +0.066 C 
ATOM     32  C   UNL     1       3.536  -8.242   4.409  0.00  0.00    -0.064 C 
ATOM     33  N   UNL     1       4.616  -7.883   5.337  0.00  0.00    +0.379 N 
ATOM     34  C   UNL     1       4.531  -6.452   5.660  0.00  0.00    -0.064 C 
ATOM     35  C   UNL     1       3.187  -6.159   6.329  0.00  0.00    +0.066 C 
ATOM     36  C   UNL     1       5.914  -8.167   4.712  0.00  0.00    -0.096 C 
ATOM     37  H   UNL     1       4.525  -8.425   6.184  0.00  0.00    -0.082 HD
ENDBRANCH  29  30
ENDBRANCH  28  29
ENDBRANCH  27  28
ENDBRANCH   4  27
TORSDOF 6
