REMARK  Name = CHEMBL374517
REMARK  5 active torsions:
REMARK  status: ('A' for Active; 'I' for Inactive)
REMARK    1  A    between atoms: C_1  and  C_2
REMARK    2  A    between atoms: C_5  and  O_31
REMARK    3  A    between atoms: C_7  and  N_8
REMARK    4  A    between atoms: C_11  and  N_24
REMARK    5  A    between atoms: N_24  and  N_25
REMARK                            x       y       z     vdW  Elec       q    Type
REMARK                         _______ _______ _______ _____ _____    ______ ____
ROOT
ATOM      1  N   UNL     1       0.025  -0.013   2.416  0.00  0.00    -0.299 N 
ATOM      2  C   UNL     1      -0.059  -0.712   3.612  0.00  0.00    +0.130 A 
ATOM      3  C   UNL     1      -0.035  -2.103   3.619  0.00  0.00    +0.088 A 
ATOM      4  C   UNL     1      -0.121  -2.760   4.843  0.00  0.00    +0.140 A 
ATOM      5  N   UNL     1      -0.224  -2.041   5.958  0.00  0.00    -0.196 NA
ATOM      6  C   UNL     1      -0.243  -0.719   5.913  0.00  0.00    +0.240 A 
ATOM      7  N   UNL     1      -0.158  -0.060   4.768  0.00  0.00    -0.197 NA
ATOM      8  N   UNL     1      -0.352  -0.001   7.101  0.00  0.00    -0.267 N 
ATOM      9  C   UNL     1      -0.438  -0.525   8.358  0.00  0.00    +0.207 A 
ATOM     10  N   UNL     1      -0.527   0.431   9.235  0.00  0.00    -0.235 NA
ATOM     11  C   UNL     1      -0.505   1.635   8.605  0.00  0.00    +0.089 A 
ATOM     12  C   UNL     1      -0.387   1.376   7.229  0.00  0.00    +0.076 A 
ATOM     13  C   UNL     1      -0.333   2.430   6.328  0.00  0.00    +0.028 A 
ATOM     14  C   UNL     1      -0.393   3.729   6.787  0.00  0.00    +0.002 A 
ATOM     15  C   UNL     1      -0.507   3.989   8.145  0.00  0.00    +0.002 A 
ATOM     16  C   UNL     1      -0.570   2.956   9.053  0.00  0.00    +0.030 A 
ATOM     17  H   UNL     1       0.084   0.955   2.423  0.00  0.00    +0.154 HD
ENDROOT
BRANCH   1  24
ATOM     18  C   UNL     1      -2.436  -1.104   1.498  0.00  0.00    +0.045 C 
ATOM     19  C   UNL     1      -1.157  -1.254   0.715  0.00  0.00    -0.029 A 
ATOM     20  C   UNL     1      -1.159  -1.932  -0.488  0.00  0.00    +0.009 A 
ATOM     21  C   UNL     1       0.012  -2.071  -1.209  0.00  0.00    +0.046 A 
ATOM     22  C   UNL     1       1.195  -1.529  -0.725  0.00  0.00    +0.119 A 
ATOM     23  C   UNL     1       1.202  -0.847   0.481  0.00  0.00    +0.069 A 
ATOM     24  C   UNL     1       0.023  -0.704   1.201  0.00  0.00    +0.039 A 
BRANCH  22  25
ATOM     25  O   UNL     1       2.346  -1.667  -1.435  0.00  0.00    -0.507 OA
ATOM     26  H   UNL     1       2.507  -0.952  -2.066  0.00  0.00    +0.292 HD
ENDBRANCH  22  25
ENDBRANCH   1  24
BRANCH   4  27
ATOM     27  N   UNL     1      -0.102  -4.145   4.899  0.00  0.00    -0.262 N 
ATOM     28  H   UNL     1      -0.028  -4.663   4.082  0.00  0.00    +0.168 HD
BRANCH  27  29
ATOM     29  N   UNL     1      -0.187  -4.781   6.105  0.00  0.00    -0.224 NA
ATOM     30  C   UNL     1       1.037  -5.544   6.387  0.00  0.00    +0.133 C 
ATOM     31  C   UNL     1       0.923  -6.190   7.770  0.00  0.00    +0.177 C 
ATOM     32  O   UNL     1      -0.247  -7.010   7.813  0.00  0.00    -0.377 OA
ATOM     33  C   UNL     1      -1.459  -6.298   7.544  0.00  0.00    +0.177 C 
ATOM     34  C   UNL     1      -1.369  -5.654   6.158  0.00  0.00    +0.133 C 
ENDBRANCH  27  29
ENDBRANCH   4  27
TORSDOF 4
