REMARK  Name = CHEMBL405630
REMARK  5 active torsions:
REMARK  status: ('A' for Active; 'I' for Inactive)
REMARK    1  A    between atoms: C_1  and  C_2
REMARK    2  A    between atoms: C_6  and  C_23
REMARK    3  A    between atoms: C_7  and  N_8
REMARK    4  A    between atoms: C_9  and  C_11
REMARK    5  A    between atoms: N_16  and  C_17
REMARK                            x       y       z     vdW  Elec       q    Type
REMARK                         _______ _______ _______ _____ _____    ______ ____
ROOT
ATOM      1  C   UNL     1       0.307   0.293   4.969  0.00  0.00    +0.095 A 
ATOM      2  C   UNL     1       0.224  -0.108   6.295  0.00  0.00    +0.133 A 
ATOM      3  N   UNL     1      -0.116   0.813   7.161  0.00  0.00    -0.232 NA
ATOM      4  C   UNL     1      -0.365   2.055   6.785  0.00  0.00    +0.164 A 
ATOM      5  S   UNL     1      -0.123   2.020   5.120  0.00  0.00    -0.047 S 
ATOM      6  N   UNL     1      -0.732   3.128   7.572  0.00  0.00    -0.279 N 
ATOM      7  H   UNL     1      -0.798   4.014   7.184  0.00  0.00    +0.155 HD
ENDROOT
BRANCH   6   8
ATOM      8  C   UNL     1      -1.006   2.938   8.924  0.00  0.00    +0.118 A 
ATOM      9  C   UNL     1      -1.076   1.649   9.450  0.00  0.00    +0.045 A 
ATOM     10  C   UNL     1      -1.351   1.514  10.802  0.00  0.00    +0.025 A 
ATOM     11  C   UNL     1      -1.540   2.669  11.548  0.00  0.00    +0.133 A 
ATOM     12  N   UNL     1      -1.456   3.850  10.968  0.00  0.00    -0.181 NA
ATOM     13  N   UNL     1      -1.196   3.982   9.718  0.00  0.00    -0.264 N 
ATOM     14  H   UNL     1      -1.141   4.874   9.341  0.00  0.00    +0.190 HD
ENDBRANCH   6   8
BRANCH   1  16
ATOM     15  N   UNL     1       0.682   0.114   2.570  0.00  0.00    -0.281 N 
ATOM     16  C   UNL     1       0.656  -0.482   3.779  0.00  0.00    +0.256 C 
ATOM     17  O   UNL     1       0.922  -1.666   3.880  0.00  0.00    -0.269 OA
ATOM     18  H   UNL     1       0.518   1.068   2.496  0.00  0.00    +0.155 HD
BRANCH  15  25
ATOM     19  C   UNL     1       2.545   1.144   0.682  0.00  0.00    +0.045 C 
ATOM     20  C   UNL     1       1.848  -0.176   0.476  0.00  0.00    -0.029 A 
ATOM     21  C   UNL     1       2.110  -0.927  -0.653  0.00  0.00    +0.005 A 
ATOM     22  C   UNL     1       1.470  -2.139  -0.843  0.00  0.00    +0.001 A 
ATOM     23  C   UNL     1       0.567  -2.602   0.096  0.00  0.00    +0.005 A 
ATOM     24  C   UNL     1       0.301  -1.856   1.227  0.00  0.00    -0.029 A 
ATOM     25  C   UNL     1       0.945  -0.641   1.423  0.00  0.00    +0.040 A 
ATOM     26  C   UNL     1      -0.684  -2.361   2.249  0.00  0.00    +0.045 C 
ENDBRANCH  15  25
ENDBRANCH   1  16
TORSDOF 3
