REMARK  Name = CHEMBL431609
REMARK  9 active torsions:
REMARK  status: ('A' for Active; 'I' for Inactive)
REMARK    1  A    between atoms: C_1  and  N_2
REMARK    2  A    between atoms: N_5  and  C_8
REMARK    3  A    between atoms: C_11  and  N_14
REMARK    4  A    between atoms: C_17  and  C_19
REMARK    5  A    between atoms: C_22  and  N_27
REMARK    6  A    between atoms: C_23  and  O_25
REMARK    7  A    between atoms: O_25  and  C_26
REMARK    8  A    between atoms: C_28  and  C_30
REMARK    9  A    between atoms: C_40  and  N_44
REMARK                            x       y       z     vdW  Elec       q    Type
REMARK                         _______ _______ _______ _____ _____    ______ ____
ROOT
ATOM      1  N   UNL     1      -2.096  -8.052   1.605  0.00  0.00    -0.243 N 
ATOM      2  C   UNL     1      -2.360  -8.965   2.582  0.00  0.00    +0.164 A 
ATOM      3  C   UNL     1      -2.062 -10.233   2.049  0.00  0.00    +0.086 A 
ATOM      4  C   UNL     1      -1.599 -10.008   0.679  0.00  0.00    +0.105 A 
ATOM      5  N   UNL     1      -1.641  -8.715   0.460  0.00  0.00    -0.168 NA
ATOM      6  C   UNL     1      -2.250 -11.363   2.861  0.00  0.00    +0.131 A 
ATOM      7  N   UNL     1      -2.701 -11.183   4.098  0.00  0.00    -0.220 NA
ATOM      8  C   UNL     1      -2.969  -9.974   4.558  0.00  0.00    +0.225 A 
ATOM      9  N   UNL     1      -2.808  -8.888   3.835  0.00  0.00    -0.216 NA
ENDROOT
BRANCH   1  13
ATOM     10  C   UNL     1      -2.109  -3.907   0.594  0.00  0.00    -0.068 C 
ATOM     11  C   UNL     1      -3.454  -4.601   0.821  0.00  0.00    -0.013 C 
ATOM     12  C   UNL     1      -3.275  -6.115   0.689  0.00  0.00    +0.025 C 
ATOM     13  C   UNL     1      -2.267  -6.603   1.731  0.00  0.00    +0.109 C 
ATOM     14  C   UNL     1      -0.922  -5.909   1.504  0.00  0.00    +0.025 C 
ATOM     15  C   UNL     1      -1.101  -4.395   1.637  0.00  0.00    -0.013 C 
BRANCH  10  20
ATOM     16  C   UNL     1      -2.304   1.661  -0.248  0.00  0.00    +0.104 C 
ATOM     17  N   UNL     1      -2.150   0.202  -0.323  0.00  0.00    -0.309 NA
ATOM     18  C   UNL     1      -3.441  -0.475  -0.135  0.00  0.00    +0.065 C 
ATOM     19  C   UNL     1      -3.248  -1.986  -0.279  0.00  0.00    -0.063 C 
ATOM     20  N   UNL     1      -2.280  -2.454   0.722  0.00  0.00    +0.383 N 
ATOM     21  C   UNL     1      -0.989  -1.788   0.505  0.00  0.00    -0.063 C 
ATOM     22  C   UNL     1      -1.163  -0.275   0.656  0.00  0.00    +0.065 C 
ATOM     23  H   UNL     1      -2.621  -2.235   1.646  0.00  0.00    -0.081 HD
ENDBRANCH  10  20
ENDBRANCH   1  13
BRANCH   4  24
ATOM     24  C   UNL     1      -1.170 -11.049  -0.284  0.00  0.00    +0.006 A 
ATOM     25  C   UNL     1      -1.905 -12.226  -0.414  0.00  0.00    +0.012 A 
ATOM     26  C   UNL     1      -1.505 -13.195  -1.310  0.00  0.00    +0.027 A 
ATOM     27  C   UNL     1      -0.370 -13.001  -2.086  0.00  0.00    +0.076 A 
ATOM     28  C   UNL     1       0.369 -11.825  -1.960  0.00  0.00    +0.142 A 
ATOM     29  C   UNL     1      -0.032 -10.849  -1.066  0.00  0.00    +0.057 A 
BRANCH  27  30
ATOM     30  N   UNL     1       0.033 -13.986  -2.994  0.00  0.00    -0.277 N 
ATOM     31  C   UNL     1      -0.850 -14.910  -3.422  0.00  0.00    +0.265 C 
ATOM     32  O   UNL     1      -2.019 -14.831  -3.096  0.00  0.00    -0.268 OA
ATOM     33  H   UNL     1       0.948 -14.003  -3.316  0.00  0.00    +0.155 HD
BRANCH  31  34
ATOM     34  C   UNL     1      -0.399 -16.014  -4.281  0.00  0.00    +0.103 A 
ATOM     35  C   UNL     1      -1.192 -17.000  -4.779  0.00  0.00    +0.040 A 
ATOM     36  C   UNL     1      -0.377 -17.859  -5.554  0.00  0.00    +0.000 A 
ATOM     37  C   UNL     1      -0.634 -19.021  -6.293  0.00  0.00    +0.010 A 
ATOM     38  C   UNL     1       0.385 -19.646  -6.951  0.00  0.00    +0.001 A 
ATOM     39  C   UNL     1       1.678 -19.141  -6.896  0.00  0.00    +0.002 A 
ATOM     40  C   UNL     1       1.956 -18.001  -6.176  0.00  0.00    +0.026 A 
ATOM     41  C   UNL     1       0.933 -17.345  -5.497  0.00  0.00    +0.047 A 
ATOM     42  N   UNL     1       0.897 -16.212  -4.718  0.00  0.00    -0.351 N 
ATOM     43  H   UNL     1       1.656 -15.647  -4.507  0.00  0.00    +0.166 HD
ENDBRANCH  31  34
ENDBRANCH  27  30
BRANCH  28  44
ATOM     44  O   UNL     1       1.481 -11.636  -2.720  0.00  0.00    -0.493 OA
ATOM     45  C   UNL     1       2.189 -10.408  -2.539  0.00  0.00    +0.277 C 
ENDBRANCH  28  44
ENDBRANCH   4  24
BRANCH   6  46
ATOM     46  N   UNL     1      -1.972 -12.630   2.385  0.00  0.00    -0.342 N 
ATOM     47  H   UNL     1      -1.464 -12.741   1.567  0.00  0.00    +0.144 HD
ATOM     48  H   UNL     1      -2.286 -13.410   2.870  0.00  0.00    +0.144 HD
ENDBRANCH   6  46
TORSDOF 7
