REMARK  Name = CHEMBL186526
REMARK  9 active torsions:
REMARK  status: ('A' for Active; 'I' for Inactive)
REMARK    1  A    between atoms: C_1  and  C_2
REMARK    2  A    between atoms: C_5  and  N_18
REMARK    3  A    between atoms: C_7  and  N_8
REMARK    4  A    between atoms: C_9  and  C_11
REMARK    5  A    between atoms: C_14  and  O_17
REMARK    6  A    between atoms: C_19  and  C_21
REMARK    7  A    between atoms: C_25  and  N_27
REMARK    8  A    between atoms: N_27  and  C_28
REMARK    9  A    between atoms: N_27  and  C_29
REMARK                            x       y       z     vdW  Elec       q    Type
REMARK                         _______ _______ _______ _____ _____    ______ ____
ROOT
ATOM      1  C   UNL     1      -0.392   1.320   0.283  0.00  0.00    +0.045 C 
ATOM      2  C   UNL     1      -0.187  -0.162   0.097  0.00  0.00    -0.029 A 
ATOM      3  C   UNL     1      -0.326  -0.726  -1.157  0.00  0.00    +0.007 A 
ATOM      4  C   UNL     1      -0.139  -2.083  -1.332  0.00  0.00    +0.024 A 
ATOM      5  C   UNL     1       0.190  -2.886  -0.247  0.00  0.00    +0.035 A 
ATOM      6  C   UNL     1       0.332  -2.323   1.013  0.00  0.00    +0.047 A 
ATOM      7  C   UNL     1       0.148  -0.958   1.185  0.00  0.00    +0.038 A 
ENDROOT
BRANCH   7   8
ATOM      8  N   UNL     1       0.295  -0.386   2.452  0.00  0.00    -0.281 N 
ATOM      9  C   UNL     1       0.053  -1.120   3.556  0.00  0.00    +0.248 C 
ATOM     10  O   UNL     1      -0.216  -2.302   3.453  0.00  0.00    -0.270 OA
ATOM     11  H   UNL     1       0.572   0.540   2.537  0.00  0.00    +0.155 HD
BRANCH   9  12
ATOM     12  C   UNL     1       0.115  -0.491   4.889  0.00  0.00    +0.037 A 
ATOM     13  C   UNL     1       0.419   0.867   5.010  0.00  0.00    +0.016 A 
ATOM     14  C   UNL     1       0.476   1.450   6.256  0.00  0.00    +0.046 A 
ATOM     15  C   UNL     1       0.232   0.689   7.393  0.00  0.00    +0.117 A 
ATOM     16  C   UNL     1      -0.070  -0.662   7.278  0.00  0.00    +0.046 A 
ATOM     17  C   UNL     1      -0.135  -1.252   6.035  0.00  0.00    +0.016 A 
BRANCH  15  18
ATOM     18  O   UNL     1       0.290   1.268   8.620  0.00  0.00    -0.507 OA
ATOM     19  H   UNL     1      -0.553   1.632   8.922  0.00  0.00    +0.292 HD
ENDBRANCH  15  18
ENDBRANCH   9  12
ENDBRANCH   7   8
BRANCH   5  20
ATOM     20  N   UNL     1       0.379  -4.260  -0.424  0.00  0.00    -0.281 N 
ATOM     21  C   UNL     1       0.950  -4.721  -1.555  0.00  0.00    +0.248 C 
ATOM     22  O   UNL     1       1.225  -3.952  -2.454  0.00  0.00    -0.270 OA
ATOM     23  H   UNL     1       0.099  -4.881   0.266  0.00  0.00    +0.155 HD
BRANCH  21  24
ATOM     24  C   UNL     1       1.241  -6.163  -1.701  0.00  0.00    +0.039 A 
ATOM     25  C   UNL     1       0.920  -7.051  -0.671  0.00  0.00    +0.013 A 
ATOM     26  C   UNL     1       1.193  -8.396  -0.810  0.00  0.00    +0.003 A 
ATOM     27  C   UNL     1       1.784  -8.871  -1.966  0.00  0.00    +0.023 A 
ATOM     28  C   UNL     1       2.107  -7.996  -2.997  0.00  0.00    +0.030 A 
ATOM     29  C   UNL     1       1.832  -6.643  -2.870  0.00  0.00    +0.036 A 
BRANCH  28  30
ATOM     30  N   UNL     1       2.704  -8.481  -4.163  0.00  0.00    -0.336 N 
ATOM     31  C   UNL     1       2.990  -9.912  -4.299  0.00  0.00    +0.129 C 
ATOM     32  C   UNL     1       3.045  -7.559  -5.249  0.00  0.00    +0.129 C 
ENDBRANCH  28  30
ENDBRANCH  21  24
ENDBRANCH   5  20
TORSDOF 6
