REMARK  Name = CHEMBL189675
REMARK  4 active torsions:
REMARK  status: ('A' for Active; 'I' for Inactive)
REMARK    1  A    between atoms: C_1  and  C_2
REMARK    2  A    between atoms: C_7  and  N_8
REMARK    3  A    between atoms: C_9  and  C_11
REMARK    4  A    between atoms: N_16  and  C_17
REMARK                            x       y       z     vdW  Elec       q    Type
REMARK                         _______ _______ _______ _____ _____    ______ ____
ROOT
ATOM      1  C   UNL     1      -0.449   0.106   4.801  0.00  0.00    +0.095 A 
ATOM      2  C   UNL     1      -0.828  -0.326   6.064  0.00  0.00    +0.133 A 
ATOM      3  N   UNL     1      -0.837   0.579   7.010  0.00  0.00    -0.232 NA
ATOM      4  C   UNL     1      -0.500   1.834   6.768  0.00  0.00    +0.163 A 
ATOM      5  S   UNL     1      -0.126   1.832   5.127  0.00  0.00    -0.048 S 
ATOM      6  N   UNL     1      -0.460   2.893   7.651  0.00  0.00    -0.293 N 
ATOM      7  H   UNL     1      -0.277   3.788   7.327  0.00  0.00    +0.154 HD
ENDROOT
BRANCH   6   8
ATOM      8  C   UNL     1      -0.684   2.675   9.014  0.00  0.00    +0.051 A 
ATOM      9  C   UNL     1      -0.433   1.427   9.581  0.00  0.00    +0.026 A 
ATOM     10  C   UNL     1      -0.670   1.260  10.935  0.00  0.00    +0.021 A 
ATOM     11  C   UNL     1      -1.143   2.329  11.675  0.00  0.00    +0.111 A 
ATOM     12  N   UNL     1      -1.371   3.497  11.108  0.00  0.00    -0.261 NA
ATOM     13  C   UNL     1      -1.154   3.700   9.824  0.00  0.00    +0.134 A 
ENDBRANCH   6   8
BRANCH   1  15
ATOM     14  N   UNL     1       0.060  -0.022   2.424  0.00  0.00    -0.280 N 
ATOM     15  C   UNL     1      -0.338  -0.644   3.551  0.00  0.00    +0.256 C 
ATOM     16  O   UNL     1      -0.605  -1.832   3.529  0.00  0.00    -0.269 OA
ATOM     17  H   UNL     1       0.351   0.903   2.458  0.00  0.00    +0.155 HD
BRANCH  14  24
ATOM     18  C   UNL     1      -1.279   1.168   0.214  0.00  0.00    +0.046 C 
ATOM     19  C   UNL     1      -0.586  -0.165   0.102  0.00  0.00    -0.028 A 
ATOM     20  C   UNL     1      -0.585  -0.845  -1.101  0.00  0.00    +0.005 A 
ATOM     21  C   UNL     1       0.051  -2.068  -1.206  0.00  0.00    +0.002 A 
ATOM     22  C   UNL     1       0.686  -2.617  -0.107  0.00  0.00    +0.022 A 
ATOM     23  C   UNL     1       0.689  -1.943   1.100  0.00  0.00    +0.062 A 
ATOM     24  C   UNL     1       0.056  -0.710   1.206  0.00  0.00    +0.055 A 
ATOM     25 CL   UNL     1       1.487  -2.632   2.479  0.00  0.00    -0.082 Cl
ENDBRANCH  14  24
ENDBRANCH   1  15
TORSDOF 3
