REMARK  Name = CHEMBL1085733
REMARK  8 active torsions:
REMARK  status: ('A' for Active; 'I' for Inactive)
REMARK    1  A    between atoms: C_1  and  N_2
REMARK    2  A    between atoms: N_5  and  C_8
REMARK    3  A    between atoms: C_11  and  C_14
REMARK    4  A    between atoms: C_21  and  C_24
REMARK    5  A    between atoms: C_22  and  N_23
REMARK    6  A    between atoms: C_27  and  N_30
REMARK    7  A    between atoms: C_31  and  C_33
REMARK    8  A    between atoms: C_36  and  C_39
REMARK                            x       y       z     vdW  Elec       q    Type
REMARK                         _______ _______ _______ _____ _____    ______ ____
ROOT
ATOM      1  C   UNL     1      -2.292  -6.924   3.953  0.00  0.00    +0.046 A 
ATOM      2  C   UNL     1      -3.499  -6.968   4.661  0.00  0.00    +0.145 A 
ATOM      3  N   UNL     1      -3.596  -8.129   5.261  0.00  0.00    -0.171 NA
ATOM      4  N   UNL     1      -2.460  -8.893   4.973  0.00  0.00    -0.200 N 
ATOM      5  C   UNL     1      -1.648  -8.151   4.155  0.00  0.00    +0.165 A 
ATOM      6  N   UNL     1      -0.484  -8.639   3.712  0.00  0.00    -0.235 NA
ATOM      7  C   UNL     1      -0.079  -9.845   4.040  0.00  0.00    +0.125 A 
ATOM      8  C   UNL     1      -0.870 -10.654   4.874  0.00  0.00    +0.040 A 
ATOM      9  C   UNL     1      -2.079 -10.153   5.347  0.00  0.00    +0.129 A 
ENDROOT
BRANCH   1  13
ATOM     10  C   UNL     1      -0.858  -3.676   1.613  0.00  0.00    +0.030 A 
ATOM     11  C   UNL     1      -2.153  -4.144   1.429  0.00  0.00    +0.024 A 
ATOM     12  C   UNL     1      -2.620  -5.197   2.186  0.00  0.00    +0.010 A 
ATOM     13  C   UNL     1      -1.792  -5.792   3.138  0.00  0.00    -0.013 A 
ATOM     14  C   UNL     1      -0.492  -5.320   3.320  0.00  0.00    +0.010 A 
ATOM     15  C   UNL     1      -0.028  -4.270   2.556  0.00  0.00    +0.024 A 
BRANCH  10  20
ATOM     16  C   UNL     1       0.072   1.490   0.060  0.00  0.00    +0.105 C 
ATOM     17  N   UNL     1       0.089   0.021   0.050  0.00  0.00    -0.302 NA
ATOM     18  C   UNL     1      -1.273  -0.520  -0.050  0.00  0.00    +0.103 C 
ATOM     19  C   UNL     1      -1.202  -2.039  -0.240  0.00  0.00    +0.120 C 
ATOM     20  N   UNL     1      -0.386  -2.608   0.843  0.00  0.00    -0.327 N 
ATOM     21  C   UNL     1       0.941  -2.024   1.095  0.00  0.00    +0.120 C 
ATOM     22  C   UNL     1       0.786  -0.506   1.232  0.00  0.00    +0.103 C 
ENDBRANCH  10  20
ENDBRANCH   1  13
BRANCH   8  23
ATOM     23  C   UNL     1      -0.420 -12.016   5.250  0.00  0.00    -0.013 A 
ATOM     24  C   UNL     1      -0.132 -12.314   6.581  0.00  0.00    +0.010 A 
ATOM     25  C   UNL     1       0.286 -13.581   6.928  0.00  0.00    +0.024 A 
ATOM     26  C   UNL     1       0.420 -14.561   5.952  0.00  0.00    +0.034 A 
ATOM     27  C   UNL     1       0.135 -14.267   4.624  0.00  0.00    +0.024 A 
ATOM     28  C   UNL     1      -0.290 -13.003   4.273  0.00  0.00    +0.010 A 
BRANCH  26  29
ATOM     29  N   UNL     1       0.845 -15.846   6.307  0.00  0.00    -0.282 N 
ATOM     30  C   UNL     1       0.477 -16.374   7.491  0.00  0.00    +0.248 C 
ATOM     31  O   UNL     1      -0.303 -15.777   8.207  0.00  0.00    -0.270 OA
ATOM     32  H   UNL     1       1.404 -16.356   5.700  0.00  0.00    +0.155 HD
BRANCH  30  33
ATOM     33  C   UNL     1       1.022 -17.680   7.918  0.00  0.00    +0.037 A 
ATOM     34  C   UNL     1       1.921 -18.366   7.101  0.00  0.00    +0.013 A 
ATOM     35  C   UNL     1       2.426 -19.584   7.506  0.00  0.00    +0.013 A 
ATOM     36  C   UNL     1       2.041 -20.127   8.719  0.00  0.00    +0.055 A 
ATOM     37  C   UNL     1       1.149 -19.453   9.534  0.00  0.00    +0.013 A 
ATOM     38  C   UNL     1       0.642 -18.230   9.144  0.00  0.00    +0.013 A 
BRANCH  36  39
ATOM     39  C   UNL     1       2.596 -21.459   9.155  0.00  0.00    +0.417 C 
ATOM     40  F   UNL     1       3.774 -21.258   9.883  0.00  0.00    -0.166 F 
ATOM     41  F   UNL     1       1.657 -22.115   9.958  0.00  0.00    -0.166 F 
ATOM     42  F   UNL     1       2.872 -22.240   8.028  0.00  0.00    -0.166 F 
ENDBRANCH  36  39
ENDBRANCH  30  33
ENDBRANCH  26  29
ENDBRANCH   8  23
BRANCH   9  43
ATOM     43  N   UNL     1      -2.882 -10.916   6.163  0.00  0.00    -0.343 N 
ATOM     44  H   UNL     1      -3.728 -10.561   6.478  0.00  0.00    +0.144 HD
ATOM     45  H   UNL     1      -2.603 -11.808   6.423  0.00  0.00    +0.144 HD
ENDBRANCH   9  43
TORSDOF 7
