REMARK  Name = CHEMBL68887
REMARK  5 active torsions:
REMARK  status: ('A' for Active; 'I' for Inactive)
REMARK    1  A    between atoms: C_1  and  C_2
REMARK    2  A    between atoms: C_7  and  N_8
REMARK    3  A    between atoms: C_9  and  C_11
REMARK    4  A    between atoms: C_21  and  C_23
REMARK    5  A    between atoms: C_25  and  C_26
REMARK                            x       y       z     vdW  Elec       q    Type
REMARK                         _______ _______ _______ _____ _____    ______ ____
ROOT
ATOM      1  C   UNL     1      -0.459   0.115   4.810  0.00  0.00    +0.038 A 
ATOM      2  C   UNL     1      -0.170   1.486   4.844  0.00  0.00    +0.015 A 
ATOM      3  C   UNL     1      -0.259   2.200   5.993  0.00  0.00    +0.029 A 
ATOM      4  C   UNL     1      -0.649   1.584   7.208  0.00  0.00    +0.080 A 
ATOM      5  C   UNL     1      -0.935   0.198   7.149  0.00  0.00    +0.041 A 
ATOM      6  C   UNL     1      -0.852  -0.525   5.990  0.00  0.00    +0.030 A 
ATOM      7  S   UNL     1      -1.369  -0.172   8.831  0.00  0.00    -0.052 S 
ATOM      8  C   UNL     1      -1.152   1.477   9.486  0.00  0.00    +0.165 A 
ATOM      9  N   UNL     1      -0.782   2.154   8.421  0.00  0.00    -0.225 NA
ATOM     10  N   UNL     1      -1.329   1.927  10.782  0.00  0.00    -0.264 N 
ATOM     11  C   UNL     1      -1.112   3.223  11.081  0.00  0.00    +0.222 C 
ATOM     12  O   UNL     1      -0.763   3.995  10.214  0.00  0.00    -0.275 OA
ATOM     13  H   UNL     1      -1.608   1.309  11.476  0.00  0.00    +0.157 HD
ENDROOT
BRANCH   1  15
ATOM     14  N   UNL     1       0.025  -0.015   2.417  0.00  0.00    -0.280 N 
ATOM     15  C   UNL     1      -0.355  -0.641   3.548  0.00  0.00    +0.248 C 
ATOM     16  O   UNL     1      -0.612  -1.829   3.528  0.00  0.00    -0.270 OA
ATOM     17  H   UNL     1       0.300   0.915   2.446  0.00  0.00    +0.155 HD
BRANCH  14  24
ATOM     18  C   UNL     1      -2.321   0.099   0.812  0.00  0.00    +0.046 C 
ATOM     19  C   UNL     1      -1.102  -0.676   0.386  0.00  0.00    -0.028 A 
ATOM     20  C   UNL     1      -1.099  -1.355  -0.818  0.00  0.00    +0.005 A 
ATOM     21  C   UNL     1       0.019  -2.067  -1.210  0.00  0.00    +0.002 A 
ATOM     22  C   UNL     1       1.139  -2.103  -0.399  0.00  0.00    +0.022 A 
ATOM     23  C   UNL     1       1.144  -1.426   0.806  0.00  0.00    +0.062 A 
ATOM     24  C   UNL     1       0.023  -0.705   1.200  0.00  0.00    +0.055 A 
ATOM     25 CL   UNL     1       2.550  -1.472   1.823  0.00  0.00    -0.082 Cl
ENDBRANCH  14  24
ENDBRANCH   1  15
BRANCH  11  26
ATOM     26  C   UNL     1      -1.304   3.713  12.494  0.00  0.00    +0.083 C 
ATOM     27  C   UNL     1      -0.057   4.138  13.270  0.00  0.00    +0.022 C 
ATOM     28  C   UNL     1      -1.043   5.195  12.769  0.00  0.00    +0.032 C 
BRANCH  28  29
ATOM     29  C   UNL     1      -1.913   5.876  13.794  0.00  0.00    -0.044 A 
ATOM     30  C   UNL     1      -1.927   5.422  15.100  0.00  0.00    +0.004 A 
ATOM     31  C   UNL     1      -2.725   6.047  16.040  0.00  0.00    +0.000 A 
ATOM     32  C   UNL     1      -3.508   7.126  15.675  0.00  0.00    +0.000 A 
ATOM     33  C   UNL     1      -3.493   7.581  14.369  0.00  0.00    +0.000 A 
ATOM     34  C   UNL     1      -2.691   6.959  13.430  0.00  0.00    +0.004 A 
ENDBRANCH  28  29
ENDBRANCH  11  26
TORSDOF 4
