REMARK  Name = CHEMBL162
REMARK  5 active torsions:
REMARK  status: ('A' for Active; 'I' for Inactive)
REMARK    1  A    between atoms: C_1  and  C_2
REMARK    2  A    between atoms: C_3  and  O_36
REMARK    3  A    between atoms: C_5  and  N_34
REMARK    4  A    between atoms: N_34  and  C_35
REMARK    5  A    between atoms: O_36  and  C_37
REMARK                            x       y       z     vdW  Elec       q    Type
REMARK                         _______ _______ _______ _____ _____    ______ ____
ROOT
ATOM      1  C   UNL     1      -0.057   1.551  -0.089  0.00  0.00    +0.069 C 
ATOM      2  C   UNL     1      -0.028   0.022  -0.060  0.00  0.00    +0.174 C 
ATOM      3  C   UNL     1       0.581  -0.440  -1.378  0.00  0.00    +0.187 C 
ATOM      4  C   UNL     1       0.916  -1.933  -1.288  0.00  0.00    +0.091 C 
ATOM      5  C   UNL     1       1.915  -2.128  -0.142  0.00  0.00    +0.076 C 
ATOM      6  C   UNL     1       1.289  -1.646   1.161  0.00  0.00    +0.224 C 
ATOM      7  O   UNL     1       0.746  -0.357   1.055  0.00  0.00    -0.328 OA
ATOM      8  N   UNL     1       0.308  -2.616   1.650  0.00  0.00    -0.311 N 
ATOM      9  C   UNL     1       0.573  -3.735   2.399  0.00  0.00    +0.052 A 
ATOM     10  C   UNL     1       1.778  -4.242   2.884  0.00  0.00    +0.026 A 
ATOM     11  C   UNL     1       1.718  -5.412   3.623  0.00  0.00    +0.002 A 
ATOM     12  C   UNL     1       0.524  -6.064   3.878  0.00  0.00    +0.001 A 
ATOM     13  C   UNL     1      -0.686  -5.583   3.408  0.00  0.00    +0.010 A 
ATOM     14  C   UNL     1      -0.646  -4.403   2.662  0.00  0.00    +0.008 A 
ATOM     15  C   UNL     1      -1.700  -3.620   2.023  0.00  0.00    +0.022 A 
ATOM     16  C   UNL     1      -1.062  -2.533   1.421  0.00  0.00    +0.077 A 
ATOM     17  C   UNL     1      -1.813  -1.578   0.725  0.00  0.00    +0.077 A 
ATOM     18  N   UNL     1      -1.416  -0.432   0.041  0.00  0.00    -0.307 N 
ATOM     19  C   UNL     1      -2.517   0.193  -0.494  0.00  0.00    +0.053 A 
ATOM     20  C   UNL     1      -2.623   1.368  -1.237  0.00  0.00    +0.026 A 
ATOM     21  C   UNL     1      -3.893   1.747  -1.640  0.00  0.00    +0.002 A 
ATOM     22  C   UNL     1      -5.018   1.005  -1.328  0.00  0.00    +0.001 A 
ATOM     23  C   UNL     1      -4.939  -0.166  -0.592  0.00  0.00    +0.010 A 
ATOM     24  C   UNL     1      -3.668  -0.562  -0.176  0.00  0.00    +0.008 A 
ATOM     25  C   UNL     1      -3.207  -1.714   0.631  0.00  0.00    +0.015 A 
ATOM     26  C   UNL     1      -3.838  -2.801   1.225  0.00  0.00    -0.008 A 
ATOM     27  C   UNL     1      -3.104  -3.757   1.919  0.00  0.00    +0.052 A 
ATOM     28  C   UNL     1      -4.033  -4.777   2.429  0.00  0.00    +0.245 C 
ATOM     29  O   UNL     1      -3.705  -5.752   3.078  0.00  0.00    -0.270 OA
ATOM     30  N   UNL     1      -5.295  -4.480   2.075  0.00  0.00    -0.307 N 
ATOM     31  C   UNL     1      -5.282  -3.233   1.302  0.00  0.00    +0.141 C 
ATOM     32  H   UNL     1      -6.082  -5.003   2.293  0.00  0.00    +0.149 HD
ENDROOT
BRANCH   4  33
ATOM     33  N   UNL     1      -0.306  -2.701  -1.019  0.00  0.00    -0.314 NA
ATOM     34  C   UNL     1      -0.982  -3.071  -2.270  0.00  0.00    +0.101 C 
ATOM     35  H   UNL     1      -0.105  -3.517  -0.462  0.00  0.00    +0.122 HD
ENDBRANCH   4  33
BRANCH   3  36
ATOM     36  O   UNL     1      -0.354  -0.224  -2.437  0.00  0.00    -0.373 OA
ATOM     37  C   UNL     1       0.253   0.038  -3.704  0.00  0.00    +0.194 C 
ENDBRANCH   3  36
TORSDOF 2
