REMARK  Name = CHEMBL567669
REMARK  6 active torsions:
REMARK  status: ('A' for Active; 'I' for Inactive)
REMARK    1  A    between atoms: C_1  and  C_2
REMARK    2  A    between atoms: C_2  and  C_3
REMARK    3  A    between atoms: C_2  and  N_18
REMARK    4  A    between atoms: C_9  and  C_11
REMARK    5  A    between atoms: C_11  and  C_12
REMARK    6  A    between atoms: C_23  and  N_25
REMARK                            x       y       z     vdW  Elec       q    Type
REMARK                         _______ _______ _______ _____ _____    ______ ____
ROOT
ATOM      1  C   UNL     1      -0.019   1.526   0.010  0.00  0.00    +0.028 C 
ATOM      2  C   UNL     1       0.002  -0.004   0.002  0.00  0.00    +0.075 C 
ENDROOT
BRANCH   2   3
ATOM      3  C   UNL     1      -1.433  -0.534   0.013  0.00  0.00    +0.026 C 
ATOM      4  C   UNL     1      -2.137  -0.128  -1.284  0.00  0.00    +0.008 C 
ATOM      5  C   UNL     1      -3.563  -0.685  -1.289  0.00  0.00    +0.019 C 
ATOM      6  C   UNL     1      -4.342  -0.093  -0.110  0.00  0.00    +0.108 C 
ATOM      7  N   UNL     1      -3.596  -0.354   1.129  0.00  0.00    -0.301 N 
ATOM      8  C   UNL     1      -2.188   0.060   1.206  0.00  0.00    +0.113 C 
ATOM      9  C   UNL     1      -4.192  -0.961   2.174  0.00  0.00    +0.220 C 
ATOM     10  O   UNL     1      -3.565  -1.171   3.191  0.00  0.00    -0.275 OA
BRANCH   9  11
ATOM     11  C   UNL     1      -5.636  -1.379   2.079  0.00  0.00    +0.131 C 
BRANCH  11  12
ATOM     12  C   UNL     1      -6.057  -2.030   3.372  0.00  0.00    -0.039 A 
ATOM     13  C   UNL     1      -5.908  -3.394   3.540  0.00  0.00    +0.004 A 
ATOM     14  C   UNL     1      -6.293  -3.991   4.725  0.00  0.00    +0.000 A 
ATOM     15  C   UNL     1      -6.828  -3.224   5.744  0.00  0.00    +0.000 A 
ATOM     16  C   UNL     1      -6.976  -1.859   5.576  0.00  0.00    +0.000 A 
ATOM     17  C   UNL     1      -6.587  -1.262   4.392  0.00  0.00    +0.004 A 
ENDBRANCH  11  12
ENDBRANCH   9  11
ENDBRANCH   2   3
BRANCH   2  18
ATOM     18  N   UNL     1       0.711  -0.489   1.189  0.00  0.00    -0.311 N 
ATOM     19  C   UNL     1       2.090  -0.603   1.173  0.00  0.00    +0.217 A 
ATOM     20  N   UNL     1       2.754  -0.263   0.078  0.00  0.00    -0.223 NA
ATOM     21  C   UNL     1       4.074  -0.357   0.026  0.00  0.00    +0.118 A 
ATOM     22  C   UNL     1       4.763  -0.818   1.133  0.00  0.00    +0.066 A 
ATOM     23  C   UNL     1       4.036  -1.168   2.270  0.00  0.00    +0.144 A 
ATOM     24  N   UNL     1       2.714  -1.043   2.255  0.00  0.00    -0.197 NA
ATOM     25  H   UNL     1       0.213  -0.731   1.986  0.00  0.00    +0.149 HD
BRANCH  23  26
ATOM     26  N   UNL     1       4.689  -1.637   3.409  0.00  0.00    -0.283 N 
ATOM     27  C   UNL     1       6.035  -1.802   3.560  0.00  0.00    +0.206 A 
ATOM     28  N   UNL     1       6.297  -2.258   4.750  0.00  0.00    -0.235 NA
ATOM     29  C   UNL     1       5.141  -2.418   5.445  0.00  0.00    +0.089 A 
ATOM     30  C   UNL     1       4.093  -2.017   4.598  0.00  0.00    +0.075 A 
ATOM     31  C   UNL     1       2.782  -2.068   5.048  0.00  0.00    +0.028 A 
ATOM     32  C   UNL     1       2.511  -2.508   6.326  0.00  0.00    +0.002 A 
ATOM     33  C   UNL     1       3.542  -2.901   7.167  0.00  0.00    +0.002 A 
ATOM     34  C   UNL     1       4.849  -2.865   6.736  0.00  0.00    +0.030 A 
ENDBRANCH  23  26
ENDBRANCH   2  18
TORSDOF 5
