REMARK  Name = CHEMBL186498
REMARK  7 active torsions:
REMARK  status: ('A' for Active; 'I' for Inactive)
REMARK    1  A    between atoms: C_1  and  C_2
REMARK    2  A    between atoms: C_7  and  N_8
REMARK    3  A    between atoms: C_9  and  C_11
REMARK    4  A    between atoms: C_21  and  N_23
REMARK    5  A    between atoms: N_23  and  C_24
REMARK    6  A    between atoms: C_24  and  C_25
REMARK    7  A    between atoms: C_25  and  N_26
REMARK                            x       y       z     vdW  Elec       q    Type
REMARK                         _______ _______ _______ _____ _____    ______ ____
ROOT
ATOM      1  C   UNL     1       1.094   6.228   6.068  0.00  0.00    +0.095 A 
ATOM      2  C   UNL     1       1.045   6.220   7.455  0.00  0.00    +0.133 A 
ATOM      3  N   UNL     1       0.828   5.060   8.022  0.00  0.00    -0.232 NA
ATOM      4  C   UNL     1       0.665   3.962   7.306  0.00  0.00    +0.164 A 
ATOM      5  S   UNL     1       0.804   4.501   5.718  0.00  0.00    -0.047 S 
ATOM      6  N   UNL     1       0.431   2.677   7.754  0.00  0.00    -0.279 N 
ATOM      7  C   UNL     1       0.233   2.438   9.111  0.00  0.00    +0.126 A 
ATOM      8  C   UNL     1      -0.113   1.163   9.542  0.00  0.00    +0.044 A 
ATOM      9  C   UNL     1      -0.308   0.935  10.894  0.00  0.00    +0.007 A 
ATOM     10  C   UNL     1      -0.150   1.993  11.775  0.00  0.00    +0.043 A 
ATOM     11  C   UNL     1       0.198   3.244  11.278  0.00  0.00    +0.121 A 
ATOM     12  N   UNL     1       0.382   3.428   9.979  0.00  0.00    -0.217 NA
ATOM     13  H   UNL     1       0.406   1.940   7.124  0.00  0.00    +0.155 HD
ENDROOT
BRANCH   1  15
ATOM     14  N   UNL     1       1.318   7.128   3.817  0.00  0.00    -0.280 N 
ATOM     15  C   UNL     1       1.315   7.343   5.148  0.00  0.00    +0.256 C 
ATOM     16  O   UNL     1       1.497   8.465   5.584  0.00  0.00    -0.269 OA
ATOM     17  H   UNL     1       1.094   6.252   3.467  0.00  0.00    +0.155 HD
BRANCH  14  24
ATOM     18  C   UNL     1       3.339   6.663   1.870  0.00  0.00    +0.046 C 
ATOM     19  C   UNL     1       2.624   7.985   1.976  0.00  0.00    -0.028 A 
ATOM     20  C   UNL     1       2.940   9.013   1.109  0.00  0.00    +0.005 A 
ATOM     21  C   UNL     1       2.285  10.227   1.205  0.00  0.00    +0.002 A 
ATOM     22  C   UNL     1       1.312  10.417   2.169  0.00  0.00    +0.022 A 
ATOM     23  C   UNL     1       0.992   9.393   3.040  0.00  0.00    +0.062 A 
ATOM     24  C   UNL     1       1.644   8.169   2.942  0.00  0.00    +0.055 A 
ATOM     25 CL   UNL     1      -0.230   9.632   4.251  0.00  0.00    -0.082 Cl
ENDBRANCH  14  24
ENDBRANCH   1  15
BRANCH  11  26
ATOM     26  N   UNL     1       0.359   4.311  12.154  0.00  0.00    -0.328 N 
ATOM     27  H   UNL     1       0.601   5.186  11.813  0.00  0.00    +0.147 HD
BRANCH  26  28
ATOM     28  C   UNL     1       0.162   4.114  13.592  0.00  0.00    +0.118 C 
BRANCH  28  29
ATOM     29  C   UNL     1       0.398   5.437  14.325  0.00  0.00    +0.103 C 
BRANCH  29  30
ATOM     30  N   UNL     1       0.201   5.240  15.767  0.00  0.00    -0.297 NA
ATOM     31  C   UNL     1      -1.203   4.926  16.069  0.00  0.00    +0.112 C 
ATOM     32  C   UNL     1      -1.351   4.670  17.571  0.00  0.00    +0.175 C 
ATOM     33  O   UNL     1      -0.884   5.813  18.293  0.00  0.00    -0.377 OA
ATOM     34  C   UNL     1       0.480   6.147  18.023  0.00  0.00    +0.175 C 
ATOM     35  C   UNL     1       0.647   6.418  16.526  0.00  0.00    +0.112 C 
ENDBRANCH  29  30
ENDBRANCH  28  29
ENDBRANCH  26  28
ENDBRANCH  11  26
TORSDOF 6
