REMARK  Name = CHEMBL1090360
REMARK  7 active torsions:
REMARK  status: ('A' for Active; 'I' for Inactive)
REMARK    1  A    between atoms: C_4  and  C_7
REMARK    2  A    between atoms: C_7  and  C_8
REMARK    3  A    between atoms: N_10  and  C_11
REMARK    4  A    between atoms: C_15  and  C_17
REMARK    5  A    between atoms: C_18  and  C_25
REMARK    6  A    between atoms: N_31  and  C_32
REMARK    7  A    between atoms: C_36  and  N_38
REMARK                            x       y       z     vdW  Elec       q    Type
REMARK                         _______ _______ _______ _____ _____    ______ ____
ROOT
ATOM      1  C   UNL     1       8.320  -3.543   4.864  0.00  0.00    +0.100 A 
ATOM      2  C   UNL     1       8.997  -3.438   6.066  0.00  0.00    +0.100 A 
ATOM      3  N   UNL     1      10.009  -4.407   6.052  0.00  0.00    -0.291 N 
ATOM      4  C   UNL     1      11.015  -4.846   6.881  0.00  0.00    +0.101 A 
ATOM      5  C   UNL     1      11.821  -5.840   6.510  0.00  0.00    +0.067 A 
ATOM      6  S   UNL     1      11.185  -6.244   4.891  0.00  0.00    -0.058 S 
ATOM      7  C   UNL     1       9.880  -5.036   4.843  0.00  0.00    +0.178 A 
ATOM      8  N   UNL     1       8.891  -4.532   4.158  0.00  0.00    -0.221 NA
ENDROOT
BRANCH   2   9
ATOM      9  C   UNL     1       8.709  -2.490   7.152  0.00  0.00    +0.095 A 
ATOM     10  C   UNL     1       9.080  -2.784   8.473  0.00  0.00    +0.050 A 
ATOM     11  C   UNL     1       8.788  -1.862   9.458  0.00  0.00    +0.116 A 
ATOM     12  N   UNL     1       8.172  -0.735   9.130  0.00  0.00    -0.223 NA
ATOM     13  C   UNL     1       7.832  -0.480   7.875  0.00  0.00    +0.220 A 
ATOM     14  N   UNL     1       8.096  -1.331   6.896  0.00  0.00    -0.213 NA
ATOM     15  N   UNL     1       7.189   0.711   7.578  0.00  0.00    -0.284 N 
ATOM     16  H   UNL     1       6.868   0.877   6.678  0.00  0.00    +0.155 HD
BRANCH  15  17
ATOM     17  C   UNL     1       7.005   1.673   8.576  0.00  0.00    +0.035 A 
ATOM     18  C   UNL     1       7.955   1.827   9.578  0.00  0.00    +0.023 A 
ATOM     19  C   UNL     1       7.773   2.777  10.564  0.00  0.00    +0.004 A 
ATOM     20  C   UNL     1       6.646   3.577  10.558  0.00  0.00    +0.023 A 
ATOM     21  C   UNL     1       5.692   3.428   9.559  0.00  0.00    +0.032 A 
ATOM     22  C   UNL     1       5.875   2.478   8.563  0.00  0.00    +0.046 A 
BRANCH  21  23
ATOM     23  N   UNL     1       4.553   4.236   9.553  0.00  0.00    -0.325 N 
ATOM     24  C   UNL     1       3.469   4.011   8.585  0.00  0.00    +0.133 C 
ATOM     25  C   UNL     1       2.142   3.946   9.350  0.00  0.00    +0.178 C 
ATOM     26  O   UNL     1       2.021   5.103  10.181  0.00  0.00    -0.377 OA
ATOM     27  C   UNL     1       3.030   5.208  11.188  0.00  0.00    +0.178 C 
ATOM     28  C   UNL     1       4.399   5.334  10.521  0.00  0.00    +0.133 C 
ENDBRANCH  21  23
ENDBRANCH  15  17
ENDBRANCH   2   9
BRANCH   1  33
ATOM     29  C   UNL     1       5.937  -1.596   2.699  0.00  0.00    +0.034 A 
ATOM     30  C   UNL     1       5.008  -1.169   3.640  0.00  0.00    +0.023 A 
ATOM     31  C   UNL     1       5.157  -1.513   4.970  0.00  0.00    +0.002 A 
ATOM     32  C   UNL     1       6.230  -2.284   5.372  0.00  0.00    +0.010 A 
ATOM     33  C   UNL     1       7.168  -2.717   4.435  0.00  0.00    +0.004 A 
ATOM     34  C   UNL     1       7.015  -2.374   3.092  0.00  0.00    +0.033 A 
BRANCH  29  37
ATOM     35  C   UNL     1       6.131  -2.114   0.385  0.00  0.00    +0.222 C 
ATOM     36  O   UNL     1       6.659  -3.167   0.677  0.00  0.00    -0.275 OA
ATOM     37  N   UNL     1       5.782  -1.244   1.353  0.00  0.00    -0.285 N 
ATOM     38  H   UNL     1       5.424  -0.374   1.117  0.00  0.00    +0.155 HD
BRANCH  35  39
ATOM     39  C   UNL     1       5.867  -1.779  -1.060  0.00  0.00    +0.131 C 
BRANCH  39  43
ATOM     40  C   UNL     1       7.229  -4.981  -3.539  0.00  0.00    +0.000 A 
ATOM     41  C   UNL     1       5.933  -4.981  -3.060  0.00  0.00    +0.000 A 
ATOM     42  C   UNL     1       5.492  -3.945  -2.257  0.00  0.00    +0.004 A 
ATOM     43  C   UNL     1       6.348  -2.909  -1.934  0.00  0.00    -0.039 A 
ATOM     44  C   UNL     1       7.645  -2.909  -2.412  0.00  0.00    +0.004 A 
ATOM     45  C   UNL     1       8.085  -3.944  -3.215  0.00  0.00    +0.000 A 
ENDBRANCH  39  43
ENDBRANCH  35  39
ENDBRANCH  29  37
ENDBRANCH   1  33
TORSDOF 7
