REMARK  Name = CHEMBL568101
REMARK  6 active torsions:
REMARK  status: ('A' for Active; 'I' for Inactive)
REMARK    1  A    between atoms: C_1  and  C_2
REMARK    2  A    between atoms: C_2  and  C_3
REMARK    3  A    between atoms: C_2  and  N_23
REMARK    4  A    between atoms: N_8  and  C_9
REMARK    5  A    between atoms: N_12  and  C_13
REMARK    6  A    between atoms: C_28  and  N_30
REMARK                            x       y       z     vdW  Elec       q    Type
REMARK                         _______ _______ _______ _____ _____    ______ ____
ROOT
ATOM      1  C   UNL     1       1.601   0.440  -1.824  0.00  0.00    -0.031 C 
ATOM      2  C   UNL     1       1.736  -1.041  -1.455  0.00  0.00    +0.096 C 
ATOM      3  N   UNL     1       1.883  -1.819  -2.695  0.00  0.00    -0.289 N 
ATOM      4  C   UNL     1       0.909  -1.593  -3.774  0.00  0.00    +0.091 C 
ATOM      5  C   UNL     1       0.813  -0.086  -4.034  0.00  0.00    -0.059 C 
ATOM      6  N   UNL     1       0.498   0.607  -2.778  0.00  0.00    +0.383 N 
ATOM      7  C   UNL     1       0.297   2.037  -3.047  0.00  0.00    -0.096 C 
ATOM      8  C   UNL     1       2.881  -2.713  -2.838  0.00  0.00    +0.306 C 
ATOM      9  O   UNL     1       3.620  -2.955  -1.903  0.00  0.00    -0.252 OA
ATOM     10  N   UNL     1       3.060  -3.340  -4.017  0.00  0.00    -0.269 N 
ATOM     11  H   UNL     1       2.514  -3.100  -4.782  0.00  0.00    +0.156 HD
ATOM     12  H   UNL     1      -0.347   0.219  -2.385  0.00  0.00    -0.082 HD
ENDROOT
BRANCH  10  13
ATOM     13  C   UNL     1       4.035  -4.337  -4.139  0.00  0.00    +0.035 A 
ATOM     14  C   UNL     1       4.300  -5.182  -3.055  0.00  0.00    +0.024 A 
ATOM     15  C   UNL     1       5.241  -6.159  -3.144  0.00  0.00    +0.010 A 
ATOM     16  C   UNL     1       5.962  -6.330  -4.339  0.00  0.00    -0.018 A 
ATOM     17  C   UNL     1       6.940  -7.331  -4.461  0.00  0.00    +0.008 A 
ATOM     18  C   UNL     1       7.620  -7.471  -5.632  0.00  0.00    +0.001 A 
ATOM     19  C   UNL     1       7.362  -6.634  -6.716  0.00  0.00    +0.001 A 
ATOM     20  C   UNL     1       6.422  -5.653  -6.635  0.00  0.00    +0.008 A 
ATOM     21  C   UNL     1       5.699  -5.479  -5.442  0.00  0.00    -0.016 A 
ATOM     22  C   UNL     1       4.718  -4.481  -5.325  0.00  0.00    +0.031 A 
ENDBRANCH  10  13
BRANCH   1  24
ATOM     23  C   UNL     1       2.452   1.064   0.441  0.00  0.00    +0.026 C 
ATOM     24  C   UNL     1       1.312   1.256  -0.562  0.00  0.00    +0.058 C 
BRANCH  24  25
ATOM     25  N   UNL     1       0.054   0.802   0.036  0.00  0.00    -0.312 N 
ATOM     26  C   UNL     1      -0.682   1.660   0.834  0.00  0.00    +0.217 A 
ATOM     27  N   UNL     1      -0.236   2.891   1.042  0.00  0.00    -0.223 NA
ATOM     28  C   UNL     1      -0.913   3.740   1.800  0.00  0.00    +0.118 A 
ATOM     29  C   UNL     1      -2.100   3.332   2.378  0.00  0.00    +0.066 A 
ATOM     30  C   UNL     1      -2.544   2.031   2.140  0.00  0.00    +0.144 A 
ATOM     31  N   UNL     1      -1.817   1.233   1.366  0.00  0.00    -0.197 NA
ATOM     32  H   UNL     1      -0.263  -0.100  -0.128  0.00  0.00    +0.149 HD
BRANCH  30  33
ATOM     33  N   UNL     1      -3.735   1.576   2.703  0.00  0.00    -0.283 N 
ATOM     34  C   UNL     1      -4.577   2.291   3.503  0.00  0.00    +0.206 A 
ATOM     35  N   UNL     1      -5.593   1.558   3.849  0.00  0.00    -0.235 NA
ATOM     36  C   UNL     1      -5.477   0.322   3.297  0.00  0.00    +0.089 A 
ATOM     37  C   UNL     1      -4.287   0.317   2.550  0.00  0.00    +0.075 A 
ATOM     38  C   UNL     1      -3.907  -0.826   1.861  0.00  0.00    +0.028 A 
ATOM     39  C   UNL     1      -4.700  -1.952   1.911  0.00  0.00    +0.002 A 
ATOM     40  C   UNL     1      -5.878  -1.951   2.644  0.00  0.00    +0.002 A 
ATOM     41  C   UNL     1      -6.267  -0.829   3.340  0.00  0.00    +0.030 A 
ENDBRANCH  30  33
ENDBRANCH  24  25
ENDBRANCH   1  24
TORSDOF 4
