REMARK  Name = CHEMBL264406
REMARK  6 active torsions:
REMARK  status: ('A' for Active; 'I' for Inactive)
REMARK    1  A    between atoms: C_1  and  C_2
REMARK    2  A    between atoms: C_2  and  C_3
REMARK    3  A    between atoms: C_2  and  C_4
REMARK    4  A    between atoms: C_2  and  N_5
REMARK    5  A    between atoms: C_8  and  C_10
REMARK    6  A    between atoms: C_20  and  N_24
REMARK                            x       y       z     vdW  Elec       q    Type
REMARK                         _______ _______ _______ _____ _____    ______ ____
ROOT
ATOM      1  N   UNL     1       0.447  -0.514  -1.350  0.00  0.00    -0.240 N 
ATOM      2  C   UNL     1       0.985  -1.761  -1.472  0.00  0.00    +0.164 A 
ATOM      3  C   UNL     1       1.778  -1.752  -2.635  0.00  0.00    +0.086 A 
ATOM      4  C   UNL     1       1.673  -0.406  -3.199  0.00  0.00    +0.106 A 
ATOM      5  N   UNL     1       0.877   0.285  -2.415  0.00  0.00    -0.168 NA
ATOM      6  C   UNL     1       2.454  -2.930  -2.995  0.00  0.00    +0.131 A 
ATOM      7  N   UNL     1       2.313  -4.000  -2.219  0.00  0.00    -0.220 NA
ATOM      8  C   UNL     1       1.558  -3.964  -1.136  0.00  0.00    +0.225 A 
ATOM      9  N   UNL     1       0.907  -2.884  -0.760  0.00  0.00    -0.216 NA
ENDROOT
BRANCH   4  10
ATOM     10  C   UNL     1       2.335   0.084  -4.427  0.00  0.00    +0.011 A 
ATOM     11  C   UNL     1       2.166  -0.584  -5.628  0.00  0.00    +0.011 A 
ATOM     12  C   UNL     1       2.785  -0.130  -6.786  0.00  0.00    +0.001 A 
ATOM     13  C   UNL     1       3.573   0.981  -6.774  0.00  0.00    +0.008 A 
ATOM     14  C   UNL     1       3.773   1.690  -5.578  0.00  0.00    -0.017 A 
ATOM     15  C   UNL     1       3.145   1.244  -4.389  0.00  0.00    -0.009 A 
ATOM     16  C   UNL     1       3.342   1.956  -3.197  0.00  0.00    +0.009 A 
ATOM     17  C   UNL     1       4.128   3.068  -3.196  0.00  0.00    +0.001 A 
ATOM     18  C   UNL     1       4.742   3.511  -4.366  0.00  0.00    +0.001 A 
ATOM     19  C   UNL     1       4.582   2.839  -5.539  0.00  0.00    +0.008 A 
ENDBRANCH   4  10
BRANCH   1  21
ATOM     20  C   UNL     1      -0.840   1.383  -0.496  0.00  0.00    +0.036 C 
ATOM     21  C   UNL     1      -0.449  -0.080  -0.275  0.00  0.00    +0.058 C 
ATOM     22  C   UNL     1       0.266  -0.219   1.071  0.00  0.00    +0.036 C 
ATOM     23  C   UNL     1      -1.707  -0.950  -0.277  0.00  0.00    +0.036 C 
ENDBRANCH   1  21
BRANCH   6  24
ATOM     24  N   UNL     1       3.244  -2.974  -4.127  0.00  0.00    -0.342 N 
ATOM     25  H   UNL     1       3.430  -2.160  -4.621  0.00  0.00    +0.144 HD
ATOM     26  H   UNL     1       3.614  -3.819  -4.427  0.00  0.00    +0.144 HD
ENDBRANCH   6  24
TORSDOF 3
