REMARK  Name = CHEMBL164585
REMARK  1 active torsions:
REMARK  status: ('A' for Active; 'I' for Inactive)
REMARK    1  A    between atoms: C_5  and  C_6
REMARK                            x       y       z     vdW  Elec       q    Type
REMARK                         _______ _______ _______ _____ _____    ______ ____
ROOT
ATOM      1  C   UNL     1      -0.018   1.440   0.010  0.00  0.00    +0.022 A 
ATOM      2  C   UNL     1       1.188   2.042   0.002  0.00  0.00    +0.046 A 
ATOM      3  S   UNL     1       2.325   0.673  -0.017  0.00  0.00    -0.104 S 
ATOM      4  C   UNL     1       1.242  -0.609  -0.013  0.00  0.00    +0.060 A 
ATOM      5  C   UNL     1       0.002  -0.004   0.002  0.00  0.00    +0.070 A 
ENDROOT
BRANCH   5   6
ATOM      6  C   UNL     1      -1.237  -0.790   0.010  0.00  0.00    +0.387 C 
ATOM      7  O   UNL     1      -2.321  -0.223   0.023  0.00  0.00    -0.241 OA
ATOM      8  O   UNL     1      -1.186  -2.013   0.003  0.00  0.00    -0.241 OA
ENDBRANCH   5   6
TORSDOF 1
