REMARK  Name = CHEMBL1076193
REMARK  8 active torsions:
REMARK  status: ('A' for Active; 'I' for Inactive)
REMARK    1  A    between atoms: C_1  and  C_2
REMARK    2  A    between atoms: C_5  and  C_25
REMARK    3  A    between atoms: C_7  and  N_8
REMARK    4  A    between atoms: C_20  and  N_24
REMARK    5  A    between atoms: N_27  and  C_28
REMARK    6  A    between atoms: C_30  and  C_40
REMARK    7  A    between atoms: C_32  and  N_34
REMARK    8  A    between atoms: C_36  and  C_39
REMARK                            x       y       z     vdW  Elec       q    Type
REMARK                         _______ _______ _______ _____ _____    ______ ____
ROOT
ATOM      1  C   UNL     1       2.237   1.292   0.624  0.00  0.00    +0.045 C 
ATOM      2  C   UNL     1       2.408  -0.195   0.794  0.00  0.00    -0.029 A 
ATOM      3  C   UNL     1       3.119  -0.919  -0.145  0.00  0.00    +0.006 A 
ATOM      4  C   UNL     1       3.280  -2.281   0.004  0.00  0.00    +0.013 A 
ATOM      5  C   UNL     1       2.724  -2.933   1.107  0.00  0.00    +0.039 A 
ATOM      6  C   UNL     1       2.007  -2.203   2.054  0.00  0.00    +0.036 A 
ATOM      7  C   UNL     1       1.855  -0.834   1.898  0.00  0.00    +0.037 A 
ENDROOT
BRANCH   7   8
ATOM      8  N   UNL     1       1.142  -0.097   2.848  0.00  0.00    -0.284 N 
ATOM      9  C   UNL     1       0.446  -0.747   3.846  0.00  0.00    +0.207 A 
ATOM     10  N   UNL     1       0.280  -2.043   3.925  0.00  0.00    -0.214 NA
ATOM     11  C   UNL     1      -0.453  -2.345   5.030  0.00  0.00    +0.091 A 
ATOM     12  C   UNL     1      -0.911  -3.545   5.578  0.00  0.00    +0.030 A 
ATOM     13  C   UNL     1      -1.652  -3.528   6.739  0.00  0.00    +0.002 A 
ATOM     14  C   UNL     1      -1.948  -2.328   7.367  0.00  0.00    +0.002 A 
ATOM     15  C   UNL     1      -1.504  -1.133   6.838  0.00  0.00    +0.028 A 
ATOM     16  C   UNL     1      -0.755  -1.132   5.671  0.00  0.00    +0.077 A 
ATOM     17  N   UNL     1      -0.170  -0.134   4.905  0.00  0.00    -0.264 N 
ATOM     18  C   UNL     1      -0.205   1.235   5.162  0.00  0.00    +0.145 A 
ATOM     19  C   UNL     1      -0.254   2.148   4.116  0.00  0.00    +0.090 A 
ATOM     20  C   UNL     1      -0.288   3.505   4.426  0.00  0.00    +0.121 A 
ATOM     21  N   UNL     1      -0.272   3.876   5.704  0.00  0.00    -0.221 NA
ATOM     22  C   UNL     1      -0.225   2.979   6.668  0.00  0.00    +0.225 A 
ATOM     23  N   UNL     1      -0.197   1.686   6.414  0.00  0.00    -0.218 NA
ATOM     24  H   UNL     1       1.136   0.873   2.805  0.00  0.00    +0.155 HD
BRANCH  20  25
ATOM     25  N   UNL     1      -0.337   4.456   3.418  0.00  0.00    -0.343 N 
ATOM     26  H   UNL     1      -0.348   4.177   2.489  0.00  0.00    +0.144 HD
ATOM     27  H   UNL     1      -0.360   5.399   3.642  0.00  0.00    +0.144 HD
ENDBRANCH  20  25
ENDBRANCH   7   8
BRANCH   5  28
ATOM     28  C   UNL     1       2.894  -4.393   1.268  0.00  0.00    +0.248 C 
ATOM     29  O   UNL     1       2.409  -4.959   2.228  0.00  0.00    -0.270 OA
ATOM     30  N   UNL     1       3.587  -5.096   0.351  0.00  0.00    -0.281 N 
ATOM     31  H   UNL     1       3.917  -4.657  -0.449  0.00  0.00    +0.155 HD
BRANCH  30  32
ATOM     32  C   UNL     1       3.829  -6.459   0.551  0.00  0.00    +0.036 A 
ATOM     33  C   UNL     1       5.030  -7.020   0.135  0.00  0.00    +0.035 A 
ATOM     34  C   UNL     1       5.271  -8.366   0.333  0.00  0.00    +0.059 A 
ATOM     35  C   UNL     1       4.318  -9.158   0.945  0.00  0.00    +0.038 A 
ATOM     36  C   UNL     1       3.115  -8.603   1.363  0.00  0.00    +0.050 A 
ATOM     37  C   UNL     1       2.874  -7.251   1.172  0.00  0.00    +0.049 A 
BRANCH  36  38
ATOM     38  N   UNL     1       2.149  -9.408   1.983  0.00  0.00    -0.307 N 
ATOM     39  C   UNL     1       0.922  -9.002   2.440  0.00  0.00    +0.113 A 
ATOM     40  C   UNL     1       0.321 -10.089   2.961  0.00  0.00    +0.031 A 
ATOM     41  N   UNL     1       1.153 -11.132   2.828  0.00  0.00    -0.350 N 
ATOM     42  C   UNL     1       2.250 -10.738   2.239  0.00  0.00    +0.178 A 
ATOM     43  C   UNL     1      -1.050 -10.127   3.585  0.00  0.00    +0.065 C 
ATOM     44  H   UNL     1       0.968 -12.038   3.120  0.00  0.00    +0.166 HD
ENDBRANCH  36  38
BRANCH  34  45
ATOM     45  C   UNL     1       6.574  -8.972  -0.120  0.00  0.00    +0.418 C 
ATOM     46  F   UNL     1       7.370  -7.982  -0.706  0.00  0.00    -0.166 F 
ATOM     47  F   UNL     1       7.243  -9.516   0.982  0.00  0.00    -0.166 F 
ATOM     48  F   UNL     1       6.319  -9.980  -1.055  0.00  0.00    -0.166 F 
ENDBRANCH  34  45
ENDBRANCH  30  32
ENDBRANCH   5  28
TORSDOF 6
