REMARK  Name = CHEMBL568543
REMARK  7 active torsions:
REMARK  status: ('A' for Active; 'I' for Inactive)
REMARK    1  A    between atoms: C_1  and  C_2
REMARK    2  A    between atoms: C_2  and  C_3
REMARK    3  A    between atoms: C_2  and  N_17
REMARK    4  A    between atoms: N_5  and  C_10
REMARK    5  A    between atoms: N_8  and  C_9
REMARK    6  A    between atoms: C_10  and  C_11
REMARK    7  A    between atoms: C_22  and  N_24
REMARK                            x       y       z     vdW  Elec       q    Type
REMARK                         _______ _______ _______ _____ _____    ______ ____
ROOT
ATOM      1  C   UNL     1       0.261  -0.579  -1.702  0.00  0.00    +0.029 C 
ATOM      2  C   UNL     1      -0.243   0.018  -0.386  0.00  0.00    +0.085 C 
ENDROOT
BRANCH   2   3
ATOM      3  C   UNL     1      -1.696  -0.405  -0.158  0.00  0.00    +0.060 C 
ATOM      4  C   UNL     1      -1.780  -1.932  -0.103  0.00  0.00    -0.057 C 
ATOM      5  N   UNL     1      -3.172  -2.337   0.136  0.00  0.00    +0.384 N 
ATOM      6  C   UNL     1      -3.628  -1.791   1.421  0.00  0.00    -0.063 C 
ATOM      7  C   UNL     1      -3.559  -0.263   1.379  0.00  0.00    +0.066 C 
ATOM      8  N   UNL     1      -2.175   0.155   1.114  0.00  0.00    -0.304 NA
ATOM      9  C   UNL     1      -2.056   1.619   1.122  0.00  0.00    +0.105 C 
ATOM     10  H   UNL     1      -3.757  -1.984  -0.606  0.00  0.00    -0.081 HD
BRANCH   5  11
ATOM     11  C   UNL     1      -3.256  -3.803   0.170  0.00  0.00    -0.043 C 
BRANCH  11  12
ATOM     12  C   UNL     1      -4.698  -4.221   0.293  0.00  0.00    -0.064 A 
ATOM     13  C   UNL     1      -5.266  -4.385   1.542  0.00  0.00    +0.002 A 
ATOM     14  C   UNL     1      -6.590  -4.769   1.655  0.00  0.00    +0.000 A 
ATOM     15  C   UNL     1      -7.345  -4.988   0.518  0.00  0.00    +0.000 A 
ATOM     16  C   UNL     1      -6.777  -4.823  -0.731  0.00  0.00    +0.000 A 
ATOM     17  C   UNL     1      -5.455  -4.435  -0.844  0.00  0.00    +0.002 A 
ENDBRANCH  11  12
ENDBRANCH   5  11
ENDBRANCH   2   3
BRANCH   2  18
ATOM     18  N   UNL     1       0.587  -0.467   0.719  0.00  0.00    -0.309 N 
ATOM     19  C   UNL     1       1.769   0.180   1.033  0.00  0.00    +0.217 A 
ATOM     20  N   UNL     1       2.133   1.240   0.325  0.00  0.00    -0.223 NA
ATOM     21  C   UNL     1       3.257   1.885   0.596  0.00  0.00    +0.118 A 
ATOM     22  C   UNL     1       4.059   1.441   1.632  0.00  0.00    +0.066 A 
ATOM     23  C   UNL     1       3.649   0.323   2.358  0.00  0.00    +0.144 A 
ATOM     24  N   UNL     1       2.507  -0.273   2.035  0.00  0.00    -0.197 NA
ATOM     25  H   UNL     1       0.307  -1.242   1.232  0.00  0.00    +0.149 HD
BRANCH  23  26
ATOM     26  N   UNL     1       4.425  -0.159   3.410  0.00  0.00    -0.283 N 
ATOM     27  C   UNL     1       5.607   0.362   3.849  0.00  0.00    +0.206 A 
ATOM     28  N   UNL     1       6.058  -0.337   4.849  0.00  0.00    -0.235 NA
ATOM     29  C   UNL     1       5.200  -1.354   5.122  0.00  0.00    +0.089 A 
ATOM     30  C   UNL     1       4.138  -1.253   4.208  0.00  0.00    +0.075 A 
ATOM     31  C   UNL     1       3.096  -2.167   4.252  0.00  0.00    +0.028 A 
ATOM     32  C   UNL     1       3.105  -3.172   5.197  0.00  0.00    +0.002 A 
ATOM     33  C   UNL     1       4.149  -3.274   6.104  0.00  0.00    +0.002 A 
ATOM     34  C   UNL     1       5.196  -2.381   6.070  0.00  0.00    +0.030 A 
ENDBRANCH  23  26
ENDBRANCH   2  18
TORSDOF 5
