REMARK  Name = CHEMBL1085061
REMARK  7 active torsions:
REMARK  status: ('A' for Active; 'I' for Inactive)
REMARK    1  A    between atoms: C_1  and  N_2
REMARK    2  A    between atoms: N_5  and  C_8
REMARK    3  A    between atoms: C_12  and  C_14
REMARK    4  A    between atoms: C_21  and  C_24
REMARK    5  A    between atoms: C_22  and  N_23
REMARK    6  A    between atoms: C_27  and  N_30
REMARK    7  A    between atoms: N_33  and  C_34
REMARK                            x       y       z     vdW  Elec       q    Type
REMARK                         _______ _______ _______ _____ _____    ______ ____
ROOT
ATOM      1  C   UNL     1       0.297  -5.819   4.544  0.00  0.00    +0.046 A 
ATOM      2  C   UNL     1       1.591  -6.302   4.314  0.00  0.00    +0.145 A 
ATOM      3  N   UNL     1       2.074  -6.769   5.439  0.00  0.00    -0.171 NA
ATOM      4  N   UNL     1       1.120  -6.611   6.451  0.00  0.00    -0.200 N 
ATOM      5  C   UNL     1       0.015  -6.016   5.902  0.00  0.00    +0.165 A 
ATOM      6  N   UNL     1      -1.060  -5.738   6.647  0.00  0.00    -0.235 NA
ATOM      7  C   UNL     1      -1.096  -6.021   7.930  0.00  0.00    +0.125 A 
ATOM      8  C   UNL     1       0.009  -6.628   8.550  0.00  0.00    +0.040 A 
ATOM      9  C   UNL     1       1.130  -6.929   7.783  0.00  0.00    +0.129 A 
ENDROOT
BRANCH   1  14
ATOM     10  C   UNL     1      -0.986  -3.616   1.777  0.00  0.00    +0.030 A 
ATOM     11  C   UNL     1      -2.297  -4.065   1.663  0.00  0.00    +0.023 A 
ATOM     12  C   UNL     1      -2.759  -5.078   2.482  0.00  0.00    +0.002 A 
ATOM     13  C   UNL     1      -1.921  -5.650   3.419  0.00  0.00    +0.009 A 
ATOM     14  C   UNL     1      -0.604  -5.206   3.540  0.00  0.00    -0.011 A 
ATOM     15  C   UNL     1      -0.136  -4.188   2.710  0.00  0.00    +0.031 A 
BRANCH  10  20
ATOM     16  C   UNL     1      -0.028   1.452  -0.008  0.00  0.00    -0.096 C 
ATOM     17  N   UNL     1      -0.009  -0.017  -0.011  0.00  0.00    +0.380 N 
ATOM     18  C   UNL     1      -1.387  -0.523  -0.011  0.00  0.00    -0.060 C 
ATOM     19  C   UNL     1      -1.369  -2.051  -0.129  0.00  0.00    +0.086 C 
ATOM     20  N   UNL     1      -0.524  -2.592   0.946  0.00  0.00    -0.333 N 
ATOM     21  C   UNL     1       0.821  -2.024   1.123  0.00  0.00    +0.086 C 
ATOM     22  C   UNL     1       0.700  -0.498   1.182  0.00  0.00    -0.060 C 
ATOM     23  H   UNL     1       0.467  -0.345  -0.838  0.00  0.00    -0.082 HD
ENDBRANCH  10  20
ENDBRANCH   1  14
BRANCH   8  24
ATOM     24  C   UNL     1      -0.022  -6.950   9.997  0.00  0.00    -0.013 A 
ATOM     25  C   UNL     1       0.028  -8.279  10.418  0.00  0.00    +0.010 A 
ATOM     26  C   UNL     1      -0.001  -8.576  11.764  0.00  0.00    +0.024 A 
ATOM     27  C   UNL     1      -0.079  -7.552  12.701  0.00  0.00    +0.035 A 
ATOM     28  C   UNL     1      -0.128  -6.228  12.284  0.00  0.00    +0.024 A 
ATOM     29  C   UNL     1      -0.094  -5.925  10.940  0.00  0.00    +0.010 A 
BRANCH  27  30
ATOM     30  N   UNL     1      -0.108  -7.856  14.067  0.00  0.00    -0.269 N 
ATOM     31  C   UNL     1       0.592  -8.907  14.539  0.00  0.00    +0.308 C 
ATOM     32  O   UNL     1       1.327  -9.531  13.797  0.00  0.00    -0.252 OA
ATOM     33  N   UNL     1       0.477  -9.268  15.832  0.00  0.00    -0.268 N 
ATOM     34  H   UNL     1      -0.632  -7.311  14.674  0.00  0.00    +0.156 HD
ATOM     35  H   UNL     1      -0.057  -8.732  16.439  0.00  0.00    +0.156 HD
BRANCH  33  36
ATOM     36  C   UNL     1       1.129 -10.415  16.300  0.00  0.00    +0.053 A 
ATOM     37  C   UNL     1       2.367 -10.771  15.782  0.00  0.00    +0.025 A 
ATOM     38  C   UNL     1       3.009 -11.903  16.245  0.00  0.00    +0.002 A 
ATOM     39  C   UNL     1       2.419 -12.682  17.225  0.00  0.00    +0.002 A 
ATOM     40  C   UNL     1       1.187 -12.330  17.744  0.00  0.00    +0.022 A 
ATOM     41  C   UNL     1       0.542 -11.195  17.288  0.00  0.00    +0.062 A 
ATOM     42 CL   UNL     1      -1.002 -10.750  17.945  0.00  0.00    -0.082 Cl
ENDBRANCH  33  36
ENDBRANCH  27  30
ENDBRANCH   8  24
BRANCH   9  43
ATOM     43  N   UNL     1       2.232  -7.522   8.354  0.00  0.00    -0.343 N 
ATOM     44  H   UNL     1       3.012  -7.719   7.812  0.00  0.00    +0.144 HD
ATOM     45  H   UNL     1       2.229  -7.744   9.298  0.00  0.00    +0.144 HD
ENDBRANCH   9  43
TORSDOF 6
