REMARK  Name = CHEMBL206873
REMARK  14 active torsions:
REMARK  status: ('A' for Active; 'I' for Inactive)
REMARK    1  A    between atoms: C_1  and  C_2
REMARK    2  A    between atoms: C_2  and  N_3
REMARK    3  A    between atoms: N_3  and  C_4
REMARK    4  A    between atoms: N_3  and  C_6
REMARK    5  A    between atoms: C_4  and  C_5
REMARK    6  A    between atoms: C_6  and  C_7
REMARK    7  A    between atoms: C_7  and  O_8
REMARK    8  A    between atoms: O_8  and  C_9
REMARK    9  A    between atoms: C_12  and  N_15
REMARK   10  A    between atoms: C_18  and  N_22
REMARK   11  A    between atoms: N_22  and  C_23
REMARK   12  A    between atoms: N_26  and  C_27
REMARK   13  A    between atoms: C_29  and  O_34
REMARK   14  A    between atoms: C_32  and  C_33
REMARK                            x       y       z     vdW  Elec       q    Type
REMARK                         _______ _______ _______ _____ _____    ______ ____
ROOT
ATOM      1  N   UNL     1       7.165  -3.452  -2.665  0.00  0.00    -0.299 N 
ATOM      2  C   UNL     1       8.459  -3.014  -2.424  0.00  0.00    +0.128 A 
ATOM      3  C   UNL     1       9.463  -3.223  -3.366  0.00  0.00    +0.088 A 
ATOM      4  C   UNL     1      10.743  -2.764  -3.077  0.00  0.00    +0.133 A 
ATOM      5  N   UNL     1      10.962  -2.147  -1.918  0.00  0.00    -0.220 NA
ATOM      6  C   UNL     1       9.985  -1.968  -1.052  0.00  0.00    +0.225 A 
ATOM      7  N   UNL     1       8.758  -2.382  -1.291  0.00  0.00    -0.221 NA
ATOM      8  H   UNL     1       6.972  -3.983  -3.454  0.00  0.00    +0.154 HD
ENDROOT
BRANCH   1  12
ATOM      9  C   UNL     1       4.107  -2.489  -0.001  0.00  0.00    +0.121 A 
ATOM     10  C   UNL     1       5.141  -1.591  -0.223  0.00  0.00    +0.047 A 
ATOM     11  C   UNL     1       6.155  -1.910  -1.105  0.00  0.00    +0.027 A 
ATOM     12  C   UNL     1       6.138  -3.129  -1.770  0.00  0.00    +0.033 A 
ATOM     13  C   UNL     1       5.102  -4.026  -1.548  0.00  0.00    +0.027 A 
ATOM     14  C   UNL     1       4.092  -3.709  -0.661  0.00  0.00    +0.047 A 
BRANCH   9  15
ATOM     15  O   UNL     1       3.109  -2.174   0.868  0.00  0.00    -0.494 OA
BRANCH  15  16
ATOM     16  C   UNL     1       3.187  -0.901   1.512  0.00  0.00    +0.210 C 
BRANCH  16  17
ATOM     17  C   UNL     1       1.987  -0.728   2.446  0.00  0.00    -0.037 C 
BRANCH  17  18
ATOM     18  N   UNL     1       2.062  -1.717   3.529  0.00  0.00    +0.382 N 
ATOM     19  H   UNL     1       2.134  -2.643   3.134  0.00  0.00    -0.082 HD
BRANCH  18  21
ATOM     20  C   UNL     1       3.398  -2.554   5.402  0.00  0.00    -0.017 C 
ATOM     21  C   UNL     1       3.243  -1.445   4.360  0.00  0.00    -0.082 C 
ENDBRANCH  18  21
BRANCH  18  22
ATOM     22  C   UNL     1       0.851  -1.630   4.356  0.00  0.00    -0.082 C 
ATOM     23  C   UNL     1      -0.364  -2.051   3.527  0.00  0.00    -0.017 C 
ENDBRANCH  18  22
ENDBRANCH  17  18
ENDBRANCH  16  17
ENDBRANCH  15  16
ENDBRANCH   9  15
ENDBRANCH   1  12
BRANCH   4  24
ATOM     24  N   UNL     1      11.780  -2.949  -3.985  0.00  0.00    -0.243 N 
ATOM     25  C   UNL     1      11.507  -3.531  -5.301  0.00  0.00    +0.141 C 
ATOM     26  C   UNL     1      13.037  -2.592  -3.654  0.00  0.00    +0.312 C 
ATOM     27  O   UNL     1      13.264  -2.109  -2.562  0.00  0.00    -0.252 OA
ATOM     28  N   UNL     1      14.042  -2.771  -4.534  0.00  0.00    -0.269 N 
ATOM     29  H   UNL     1      13.852  -3.093  -5.429  0.00  0.00    +0.156 HD
BRANCH  28  30
ATOM     30  C   UNL     1      15.360  -2.492  -4.156  0.00  0.00    +0.041 A 
ATOM     31  C   UNL     1      15.615  -1.561  -3.159  0.00  0.00    +0.069 A 
ATOM     32  C   UNL     1      16.922  -1.288  -2.788  0.00  0.00    +0.119 A 
ATOM     33  C   UNL     1      17.973  -1.945  -3.413  0.00  0.00    +0.046 A 
ATOM     34  C   UNL     1      17.717  -2.871  -4.406  0.00  0.00    +0.009 A 
ATOM     35  C   UNL     1      16.415  -3.151  -4.775  0.00  0.00    -0.029 A 
ATOM     36  C   UNL     1      16.140  -4.167  -5.853  0.00  0.00    +0.045 C 
BRANCH  32  37
ATOM     37  O   UNL     1      17.175  -0.376  -1.812  0.00  0.00    -0.507 OA
ATOM     38  H   UNL     1      17.210  -0.752  -0.921  0.00  0.00    +0.292 HD
ENDBRANCH  32  37
ENDBRANCH  28  30
ENDBRANCH   4  24
TORSDOF 10
