REMARK  Name = CHEMBL186177
REMARK  4 active torsions:
REMARK  status: ('A' for Active; 'I' for Inactive)
REMARK    1  A    between atoms: C_1  and  C_2
REMARK    2  A    between atoms: C_7  and  N_8
REMARK    3  A    between atoms: C_9  and  C_11
REMARK    4  A    between atoms: N_16  and  C_17
REMARK                            x       y       z     vdW  Elec       q    Type
REMARK                         _______ _______ _______ _____ _____    ______ ____
ROOT
ATOM      1  C   UNL     1      -0.466   0.108   4.798  0.00  0.00    +0.095 A 
ATOM      2  C   UNL     1      -0.849  -0.323   6.061  0.00  0.00    +0.133 A 
ATOM      3  N   UNL     1      -0.852   0.582   7.008  0.00  0.00    -0.232 NA
ATOM      4  C   UNL     1      -0.509   1.835   6.767  0.00  0.00    +0.163 A 
ATOM      5  S   UNL     1      -0.134   1.832   5.126  0.00  0.00    -0.048 S 
ATOM      6  N   UNL     1      -0.463   2.892   7.651  0.00  0.00    -0.294 N 
ATOM      7  H   UNL     1      -0.276   3.787   7.327  0.00  0.00    +0.154 HD
ENDROOT
BRANCH   6   8
ATOM      8  C   UNL     1      -0.688   2.675   9.014  0.00  0.00    +0.033 A 
ATOM      9  C   UNL     1      -1.164   3.705   9.814  0.00  0.00    +0.023 A 
ATOM     10  C   UNL     1      -1.385   3.486  11.159  0.00  0.00    +0.002 A 
ATOM     11  C   UNL     1      -1.133   2.243  11.710  0.00  0.00    +0.000 A 
ATOM     12  C   UNL     1      -0.658   1.215  10.916  0.00  0.00    +0.002 A 
ATOM     13  C   UNL     1      -0.440   1.426   9.569  0.00  0.00    +0.023 A 
ENDBRANCH   6   8
BRANCH   1  15
ATOM     14  N   UNL     1       0.043  -0.021   2.422  0.00  0.00    -0.280 N 
ATOM     15  C   UNL     1      -0.359  -0.642   3.548  0.00  0.00    +0.256 C 
ATOM     16  O   UNL     1      -0.634  -1.828   3.525  0.00  0.00    -0.269 OA
ATOM     17  H   UNL     1       0.339   0.902   2.456  0.00  0.00    +0.155 HD
BRANCH  14  24
ATOM     18  C   UNL     1      -1.288   1.180   0.212  0.00  0.00    +0.046 C 
ATOM     19  C   UNL     1      -0.604  -0.158   0.099  0.00  0.00    -0.028 A 
ATOM     20  C   UNL     1      -0.606  -0.837  -1.104  0.00  0.00    +0.005 A 
ATOM     21  C   UNL     1       0.022  -2.064  -1.209  0.00  0.00    +0.002 A 
ATOM     22  C   UNL     1       0.654  -2.617  -0.111  0.00  0.00    +0.022 A 
ATOM     23  C   UNL     1       0.660  -1.944   1.096  0.00  0.00    +0.062 A 
ATOM     24  C   UNL     1       0.035  -0.708   1.203  0.00  0.00    +0.055 A 
ATOM     25 CL   UNL     1       1.454  -2.639   2.475  0.00  0.00    -0.082 Cl
ENDBRANCH  14  24
ENDBRANCH   1  15
TORSDOF 3
