REMARK  Name = CHEMBL45683
REMARK  8 active torsions:
REMARK  status: ('A' for Active; 'I' for Inactive)
REMARK    1  A    between atoms: C_1  and  N_2
REMARK    2  A    between atoms: N_5  and  C_8
REMARK    3  A    between atoms: C_11  and  N_14
REMARK    4  A    between atoms: C_17  and  C_19
REMARK    5  A    between atoms: C_22  and  N_25
REMARK    6  A    between atoms: N_25  and  C_26
REMARK    7  A    between atoms: C_26  and  C_27
REMARK    8  A    between atoms: C_37  and  N_41
REMARK                            x       y       z     vdW  Elec       q    Type
REMARK                         _______ _______ _______ _____ _____    ______ ____
ROOT
ATOM      1  N   UNL     1      -1.855  -8.028   2.398  0.00  0.00    -0.243 N 
ATOM      2  C   UNL     1      -1.932  -8.748   3.553  0.00  0.00    +0.164 A 
ATOM      3  C   UNL     1      -1.662 -10.088   3.219  0.00  0.00    +0.086 A 
ATOM      4  C   UNL     1      -1.418 -10.114   1.777  0.00  0.00    +0.105 A 
ATOM      5  N   UNL     1      -1.548  -8.885   1.335  0.00  0.00    -0.168 NA
ATOM      6  C   UNL     1      -1.678 -11.051   4.241  0.00  0.00    +0.131 A 
ATOM      7  N   UNL     1      -1.948 -10.652   5.480  0.00  0.00    -0.220 NA
ATOM      8  C   UNL     1      -2.196  -9.382   5.749  0.00  0.00    +0.225 A 
ATOM      9  N   UNL     1      -2.192  -8.446   4.825  0.00  0.00    -0.216 NA
ENDROOT
BRANCH   1  13
ATOM     10  C   UNL     1      -2.197  -4.143   0.668  0.00  0.00    +0.057 C 
ATOM     11  C   UNL     1      -3.462  -4.803   1.222  0.00  0.00    +0.021 C 
ATOM     12  C   UNL     1      -3.240  -6.312   1.339  0.00  0.00    +0.028 C 
ATOM     13  C   UNL     1      -2.068  -6.583   2.285  0.00  0.00    +0.110 C 
ATOM     14  C   UNL     1      -0.803  -5.923   1.732  0.00  0.00    +0.028 C 
ATOM     15  C   UNL     1      -1.025  -4.414   1.614  0.00  0.00    +0.021 C 
BRANCH  10  20
ATOM     16  C   UNL     1      -2.761   1.233  -0.922  0.00  0.00    -0.096 C 
ATOM     17  N   UNL     1      -2.537  -0.218  -0.863  0.00  0.00    +0.379 N 
ATOM     18  C   UNL     1      -3.758  -0.883  -0.391  0.00  0.00    -0.064 C 
ATOM     19  C   UNL     1      -3.531  -2.396  -0.347  0.00  0.00    +0.066 C 
ATOM     20  N   UNL     1      -2.411  -2.694   0.555  0.00  0.00    -0.303 NA
ATOM     21  C   UNL     1      -1.186  -2.015   0.110  0.00  0.00    +0.066 C 
ATOM     22  C   UNL     1      -1.432  -0.505   0.062  0.00  0.00    -0.064 C 
ATOM     23  H   UNL     1      -2.302  -0.559  -1.783  0.00  0.00    -0.082 HD
ENDBRANCH  10  20
ENDBRANCH   1  13
BRANCH   4  24
ATOM     24  C   UNL     1      -1.091 -11.309   0.963  0.00  0.00    +0.003 A 
ATOM     25  C   UNL     1      -1.808 -12.492   1.141  0.00  0.00    +0.012 A 
ATOM     26  C   UNL     1      -1.502 -13.602   0.383  0.00  0.00    +0.023 A 
ATOM     27  C   UNL     1      -0.481 -13.543  -0.559  0.00  0.00    +0.027 A 
ATOM     28  C   UNL     1       0.235 -12.364  -0.738  0.00  0.00    +0.023 A 
ATOM     29  C   UNL     1      -0.071 -11.250   0.014  0.00  0.00    +0.012 A 
BRANCH  27  30
ATOM     30  N   UNL     1      -0.173 -14.668  -1.325  0.00  0.00    -0.338 N 
ATOM     31  H   UNL     1      -0.672 -15.491  -1.201  0.00  0.00    +0.146 HD
BRANCH  30  32
ATOM     32  C   UNL     1       0.903 -14.607  -2.317  0.00  0.00    +0.154 C 
BRANCH  32  33
ATOM     33  C   UNL     1       1.031 -15.943  -3.003  0.00  0.00    +0.034 A 
ATOM     34  C   UNL     1       1.883 -16.915  -2.643  0.00  0.00    +0.032 A 
ATOM     35  C   UNL     1       1.676 -18.031  -3.569  0.00  0.00    -0.000 A 
ATOM     36  C   UNL     1       2.249 -19.297  -3.707  0.00  0.00    +0.010 A 
ATOM     37  C   UNL     1       1.824 -20.129  -4.703  0.00  0.00    +0.001 A 
ATOM     38  C   UNL     1       0.826 -19.726  -5.581  0.00  0.00    +0.002 A 
ATOM     39  C   UNL     1       0.247 -18.481  -5.463  0.00  0.00    +0.026 A 
ATOM     40  C   UNL     1       0.665 -17.618  -4.455  0.00  0.00    +0.047 A 
ATOM     41  N   UNL     1       0.291 -16.347  -4.081  0.00  0.00    -0.357 N 
ATOM     42  H   UNL     1      -0.393 -15.816  -4.517  0.00  0.00    +0.166 HD
ENDBRANCH  32  33
ENDBRANCH  30  32
ENDBRANCH  27  30
ENDBRANCH   4  24
BRANCH   6  43
ATOM     43  N   UNL     1      -1.420 -12.380   3.966  0.00  0.00    -0.342 N 
ATOM     44  H   UNL     1      -1.004 -12.629   3.125  0.00  0.00    +0.144 HD
ATOM     45  H   UNL     1      -1.654 -13.063   4.612  0.00  0.00    +0.144 HD
ENDBRANCH   6  43
TORSDOF 7
