REMARK  Name = CHEMBL45651
REMARK  9 active torsions:
REMARK  status: ('A' for Active; 'I' for Inactive)
REMARK    1  A    between atoms: C_1  and  N_2
REMARK    2  A    between atoms: N_5  and  C_8
REMARK    3  A    between atoms: C_11  and  N_14
REMARK    4  A    between atoms: C_17  and  C_19
REMARK    5  A    between atoms: C_22  and  N_27
REMARK    6  A    between atoms: C_23  and  O_25
REMARK    7  A    between atoms: O_25  and  C_26
REMARK    8  A    between atoms: N_30  and  C_31
REMARK    9  A    between atoms: C_37  and  N_41
REMARK                            x       y       z     vdW  Elec       q    Type
REMARK                         _______ _______ _______ _____ _____    ______ ____
ROOT
ATOM      1  N   UNL     1      -1.170  -7.936   1.841  0.00  0.00    -0.243 N 
ATOM      2  C   UNL     1      -1.479  -8.780   2.867  0.00  0.00    +0.164 A 
ATOM      3  C   UNL     1      -1.196 -10.085   2.423  0.00  0.00    +0.086 A 
ATOM      4  C   UNL     1      -0.694  -9.957   1.055  0.00  0.00    +0.105 A 
ATOM      5  N   UNL     1      -0.702  -8.680   0.753  0.00  0.00    -0.168 NA
ATOM      6  C   UNL     1      -1.428 -11.157   3.300  0.00  0.00    +0.131 A 
ATOM      7  N   UNL     1      -1.905 -10.890   4.511  0.00  0.00    -0.220 NA
ATOM      8  C   UNL     1      -2.157  -9.649   4.887  0.00  0.00    +0.225 A 
ATOM      9  N   UNL     1      -1.956  -8.614   4.101  0.00  0.00    -0.216 NA
ENDROOT
BRANCH   1  13
ATOM     10  C   UNL     1      -1.067  -3.865   0.572  0.00  0.00    -0.068 C 
ATOM     11  C   UNL     1      -2.432  -4.515   0.807  0.00  0.00    -0.013 C 
ATOM     12  C   UNL     1      -2.283  -6.038   0.775  0.00  0.00    +0.025 C 
ATOM     13  C   UNL     1      -1.312  -6.479   1.872  0.00  0.00    +0.109 C 
ATOM     14  C   UNL     1       0.052  -5.828   1.637  0.00  0.00    +0.025 C 
ATOM     15  C   UNL     1      -0.096  -4.306   1.669  0.00  0.00    -0.013 C 
BRANCH  10  20
ATOM     16  C   UNL     1      -1.119   1.641  -0.624  0.00  0.00    +0.104 C 
ATOM     17  N   UNL     1      -0.995   0.177  -0.603  0.00  0.00    -0.309 NA
ATOM     18  C   UNL     1      -2.305  -0.459  -0.407  0.00  0.00    +0.065 C 
ATOM     19  C   UNL     1      -2.142  -1.980  -0.450  0.00  0.00    -0.063 C 
ATOM     20  N   UNL     1      -1.210  -2.403   0.603  0.00  0.00    +0.383 N 
ATOM     21  C   UNL     1       0.101  -1.779   0.379  0.00  0.00    -0.063 C 
ATOM     22  C   UNL     1      -0.044  -0.256   0.430  0.00  0.00    +0.065 C 
ATOM     23  H   UNL     1      -1.568  -2.119   1.502  0.00  0.00    -0.081 HD
ENDBRANCH  10  20
ENDBRANCH   1  13
BRANCH   4  24
ATOM     24  C   UNL     1      -0.264 -11.066   0.170  0.00  0.00    +0.006 A 
ATOM     25  C   UNL     1      -1.044 -12.216   0.062  0.00  0.00    +0.012 A 
ATOM     26  C   UNL     1      -0.643 -13.248  -0.760  0.00  0.00    +0.028 A 
ATOM     27  C   UNL     1       0.538 -13.144  -1.482  0.00  0.00    +0.077 A 
ATOM     28  C   UNL     1       1.322 -11.996  -1.378  0.00  0.00    +0.142 A 
ATOM     29  C   UNL     1       0.920 -10.957  -0.559  0.00  0.00    +0.057 A 
BRANCH  27  30
ATOM     30  N   UNL     1       0.943 -14.194  -2.316  0.00  0.00    -0.266 N 
ATOM     31  C   UNL     1       0.020 -14.952  -2.942  0.00  0.00    +0.308 C 
ATOM     32  O   UNL     1      -1.160 -14.675  -2.847  0.00  0.00    -0.252 OA
ATOM     33  N   UNL     1       0.406 -16.017  -3.671  0.00  0.00    -0.269 N 
ATOM     34  H   UNL     1       1.887 -14.376  -2.444  0.00  0.00    +0.156 HD
ATOM     35  H   UNL     1       1.349 -16.197  -3.806  0.00  0.00    +0.156 HD
BRANCH  33  36
ATOM     36  C   UNL     1      -0.555 -16.864  -4.235  0.00  0.00    +0.035 A 
ATOM     37  C   UNL     1      -1.752 -16.341  -4.708  0.00  0.00    +0.023 A 
ATOM     38  C   UNL     1      -2.698 -17.179  -5.264  0.00  0.00    +0.002 A 
ATOM     39  C   UNL     1      -2.455 -18.538  -5.351  0.00  0.00    +0.000 A 
ATOM     40  C   UNL     1      -1.265 -19.061  -4.881  0.00  0.00    +0.002 A 
ATOM     41  C   UNL     1      -0.312 -18.228  -4.329  0.00  0.00    +0.023 A 
ENDBRANCH  33  36
ENDBRANCH  27  30
BRANCH  28  42
ATOM     42  O   UNL     1       2.479 -11.896  -2.086  0.00  0.00    -0.493 OA
ATOM     43  C   UNL     1       3.232 -10.691  -1.931  0.00  0.00    +0.277 C 
ENDBRANCH  28  42
ENDBRANCH   4  24
BRANCH   6  44
ATOM     44  N   UNL     1      -1.167 -12.457   2.912  0.00  0.00    -0.342 N 
ATOM     45  H   UNL     1      -0.694 -12.631   2.083  0.00  0.00    +0.144 HD
ATOM     46  H   UNL     1      -1.456 -13.197   3.469  0.00  0.00    +0.144 HD
ENDBRANCH   6  44
TORSDOF 7
