REMARK  Name = CHEMBL130719
REMARK  7 active torsions:
REMARK  status: ('A' for Active; 'I' for Inactive)
REMARK    1  A    between atoms: C_1  and  C_2
REMARK    2  A    between atoms: C_4  and  C_27
REMARK    3  A    between atoms: C_5  and  N_9
REMARK    4  A    between atoms: C_6  and  C_8
REMARK    5  A    between atoms: C_10  and  C_12
REMARK    6  A    between atoms: C_13  and  C_26
REMARK    7  A    between atoms: C_18  and  C_20
REMARK                            x       y       z     vdW  Elec       q    Type
REMARK                         _______ _______ _______ _____ _____    ______ ____
ROOT
ATOM      1  C   UNL     1       0.397  -6.431   0.971  0.00  0.00    +0.098 A 
ATOM      2  C   UNL     1       0.765  -7.332   1.960  0.00  0.00    +0.060 A 
ATOM      3  N   UNL     1       0.716  -8.600   1.639  0.00  0.00    -0.229 NA
ATOM      4  C   UNL     1       0.336  -8.993   0.436  0.00  0.00    +0.166 A 
ATOM      5  S   UNL     1      -0.001  -7.550  -0.362  0.00  0.00    -0.047 S 
ATOM      6  N   UNL     1       0.234 -10.284  -0.049  0.00  0.00    -0.261 N 
ATOM      7  C   UNL     1      -0.175 -10.497  -1.316  0.00  0.00    +0.250 C 
ATOM      8  O   UNL     1      -0.454  -9.555  -2.031  0.00  0.00    -0.270 OA
ATOM      9  C   UNL     1       1.197  -6.876   3.330  0.00  0.00    +0.067 C 
ATOM     10  H   UNL     1       0.456 -11.036   0.521  0.00  0.00    +0.157 HD
ENDROOT
BRANCH   7  11
ATOM     11  C   UNL     1      -0.284 -11.876  -1.835  0.00  0.00    +0.037 A 
ATOM     12  C   UNL     1       0.030 -12.961  -1.014  0.00  0.00    +0.013 A 
ATOM     13  C   UNL     1      -0.075 -14.246  -1.505  0.00  0.00    +0.001 A 
ATOM     14  C   UNL     1      -0.489 -14.461  -2.808  0.00  0.00    +0.000 A 
ATOM     15  C   UNL     1      -0.801 -13.390  -3.626  0.00  0.00    +0.001 A 
ATOM     16  C   UNL     1      -0.708 -12.101  -3.146  0.00  0.00    +0.013 A 
ENDBRANCH   7  11
BRANCH   1  18
ATOM     17  N   UNL     1      -0.052  -4.279  -0.077  0.00  0.00    -0.281 N 
ATOM     18  C   UNL     1       0.345  -4.969   1.011  0.00  0.00    +0.257 C 
ATOM     19  O   UNL     1       0.659  -4.376   2.026  0.00  0.00    -0.269 OA
ATOM     20  H   UNL     1      -0.371  -4.752  -0.862  0.00  0.00    +0.155 HD
BRANCH  17  25
ATOM     21  C   UNL     1       0.136   1.390  -0.065  0.00  0.00    +0.044 C 
ATOM     22  C   UNL     1       0.086  -0.116  -0.068  0.00  0.00    -0.050 A 
ATOM     23  C   UNL     1       0.758  -0.827  -1.046  0.00  0.00    +0.008 A 
ATOM     24  C   UNL     1       0.714  -2.207  -1.051  0.00  0.00    -0.029 A 
ATOM     25  C   UNL     1      -0.006  -2.881  -0.074  0.00  0.00    +0.040 A 
ATOM     26  C   UNL     1      -0.679  -2.165   0.907  0.00  0.00    -0.029 A 
ATOM     27  C   UNL     1      -0.627  -0.785   0.910  0.00  0.00    +0.008 A 
ATOM     28  C   UNL     1      -1.462  -2.893   1.970  0.00  0.00    +0.045 C 
ATOM     29  C   UNL     1       1.446  -2.981  -2.118  0.00  0.00    +0.045 C 
ENDBRANCH  17  25
ENDBRANCH   1  18
TORSDOF 3
