REMARK  Name = CHEMBL565509
REMARK  7 active torsions:
REMARK  status: ('A' for Active; 'I' for Inactive)
REMARK    1  A    between atoms: C_1  and  C_2
REMARK    2  A    between atoms: C_2  and  C_3
REMARK    3  A    between atoms: C_2  and  N_19
REMARK    4  A    between atoms: C_9  and  O_11
REMARK    5  A    between atoms: O_11  and  C_12
REMARK    6  A    between atoms: C_12  and  C_13
REMARK    7  A    between atoms: C_24  and  N_26
REMARK                            x       y       z     vdW  Elec       q    Type
REMARK                         _______ _______ _______ _____ _____    ______ ____
ROOT
ATOM      1  C   UNL     1      -0.019   1.526   0.010  0.00  0.00    +0.028 C 
ATOM      2  C   UNL     1       0.002  -0.004   0.002  0.00  0.00    +0.075 C 
ENDROOT
BRANCH   2   3
ATOM      3  C   UNL     1       0.742  -0.511   1.242  0.00  0.00    +0.027 C 
ATOM      4  C   UNL     1       2.179   0.015   1.229  0.00  0.00    +0.008 C 
ATOM      5  C   UNL     1       2.910  -0.464   2.485  0.00  0.00    +0.019 C 
ATOM      6  C   UNL     1       2.956  -1.995   2.491  0.00  0.00    +0.111 C 
ATOM      7  N   UNL     1       1.587  -2.510   2.357  0.00  0.00    -0.267 N 
ATOM      8  C   UNL     1       0.763  -2.043   1.234  0.00  0.00    +0.116 C 
ATOM      9  C   UNL     1       1.095  -3.394   3.248  0.00  0.00    +0.403 C 
ATOM     10  O   UNL     1      -0.040  -3.812   3.126  0.00  0.00    -0.226 OA
BRANCH   9  11
ATOM     11  O   UNL     1       1.861  -3.814   4.272  0.00  0.00    -0.445 OA
BRANCH  11  12
ATOM     12  C   UNL     1       1.275  -4.752   5.178  0.00  0.00    +0.269 C 
BRANCH  12  13
ATOM     13  C   UNL     1       2.273  -5.104   6.251  0.00  0.00    -0.010 A 
ATOM     14  C   UNL     1       3.140  -6.165   6.068  0.00  0.00    +0.007 A 
ATOM     15  C   UNL     1       4.055  -6.488   7.052  0.00  0.00    +0.000 A 
ATOM     16  C   UNL     1       4.104  -5.750   8.220  0.00  0.00    +0.000 A 
ATOM     17  C   UNL     1       3.238  -4.688   8.403  0.00  0.00    +0.000 A 
ATOM     18  C   UNL     1       2.325  -4.362   7.417  0.00  0.00    +0.007 A 
ENDBRANCH  12  13
ENDBRANCH  11  12
ENDBRANCH   9  11
ENDBRANCH   2   3
BRANCH   2  19
ATOM     19  N   UNL     1      -1.372  -0.511   0.012  0.00  0.00    -0.311 N 
ATOM     20  C   UNL     1      -2.069  -0.646  -1.176  0.00  0.00    +0.217 A 
ATOM     21  N   UNL     1      -1.476  -0.317  -2.314  0.00  0.00    -0.223 NA
ATOM     22  C   UNL     1      -2.110  -0.433  -3.470  0.00  0.00    +0.118 A 
ATOM     23  C   UNL     1      -3.410  -0.905  -3.484  0.00  0.00    +0.066 A 
ATOM     24  C   UNL     1      -4.008  -1.243  -2.270  0.00  0.00    +0.144 A 
ATOM     25  N   UNL     1      -3.311  -1.106  -1.147  0.00  0.00    -0.197 NA
ATOM     26  H   UNL     1      -1.794  -0.752   0.852  0.00  0.00    +0.149 HD
BRANCH  24  27
ATOM     27  N   UNL     1      -5.316  -1.722  -2.236  0.00  0.00    -0.283 N 
ATOM     28  C   UNL     1      -6.134  -1.919  -3.309  0.00  0.00    +0.206 A 
ATOM     29  N   UNL     1      -7.286  -2.375  -2.914  0.00  0.00    -0.235 NA
ATOM     30  C   UNL     1      -7.289  -2.504  -1.562  0.00  0.00    +0.089 A 
ATOM     31  C   UNL     1      -6.025  -2.092  -1.107  0.00  0.00    +0.075 A 
ATOM     32  C   UNL     1      -5.734  -2.121   0.249  0.00  0.00    +0.028 A 
ATOM     33  C   UNL     1      -6.687  -2.556   1.146  0.00  0.00    +0.002 A 
ATOM     34  C   UNL     1      -7.935  -2.967   0.702  0.00  0.00    +0.002 A 
ATOM     35  C   UNL     1      -8.244  -2.938  -0.639  0.00  0.00    +0.030 A 
ENDBRANCH  24  27
ENDBRANCH   2  19
TORSDOF 6
