REMARK  Name = CHEMBL567880
REMARK  6 active torsions:
REMARK  status: ('A' for Active; 'I' for Inactive)
REMARK    1  A    between atoms: C_1  and  C_2
REMARK    2  A    between atoms: C_2  and  C_3
REMARK    3  A    between atoms: C_2  and  N_18
REMARK    4  A    between atoms: C_9  and  O_11
REMARK    5  A    between atoms: O_11  and  C_12
REMARK    6  A    between atoms: C_23  and  N_25
REMARK                            x       y       z     vdW  Elec       q    Type
REMARK                         _______ _______ _______ _____ _____    ______ ____
ROOT
ATOM      1  C   UNL     1      -0.025   1.638   0.071  0.00  0.00    +0.028 C 
ATOM      2  C   UNL     1      -0.046   0.108   0.040  0.00  0.00    +0.075 C 
ENDROOT
BRANCH   2   3
ATOM      3  C   UNL     1       0.699  -0.436   1.260  0.00  0.00    +0.027 C 
ATOM      4  C   UNL     1       2.147   0.058   1.237  0.00  0.00    +0.008 C 
ATOM      5  C   UNL     1       2.902  -0.514   2.440  0.00  0.00    +0.019 C 
ATOM      6  C   UNL     1       2.243  -0.021   3.732  0.00  0.00    +0.111 C 
ATOM      7  N   UNL     1       0.815  -0.366   3.696  0.00  0.00    -0.267 N 
ATOM      8  C   UNL     1       0.015   0.057   2.539  0.00  0.00    +0.116 C 
ATOM      9  C   UNL     1       0.250  -1.057   4.706  0.00  0.00    +0.408 C 
ATOM     10  O   UNL     1      -0.932  -1.336   4.665  0.00  0.00    -0.226 OA
BRANCH   9  11
ATOM     11  O   UNL     1       0.996  -1.439   5.761  0.00  0.00    -0.411 OA
BRANCH  11  12
ATOM     12  C   UNL     1       0.365  -2.044   6.802  0.00  0.00    +0.133 A 
ATOM     13  C   UNL     1       0.101  -1.332   7.963  0.00  0.00    +0.046 A 
ATOM     14  C   UNL     1      -0.540  -1.950   9.020  0.00  0.00    +0.004 A 
ATOM     15  C   UNL     1      -0.917  -3.276   8.921  0.00  0.00    +0.000 A 
ATOM     16  C   UNL     1      -0.654  -3.988   7.765  0.00  0.00    +0.004 A 
ATOM     17  C   UNL     1      -0.020  -3.373   6.704  0.00  0.00    +0.046 A 
ENDBRANCH  11  12
ENDBRANCH   9  11
ENDBRANCH   2   3
BRANCH   2  18
ATOM     18  N   UNL     1      -1.433  -0.362   0.064  0.00  0.00    -0.311 N 
ATOM     19  C   UNL     1      -2.151  -0.460  -1.115  0.00  0.00    +0.217 A 
ATOM     20  N   UNL     1      -1.566  -0.130  -2.257  0.00  0.00    -0.223 NA
ATOM     21  C   UNL     1      -2.221  -0.212  -3.405  0.00  0.00    +0.118 A 
ATOM     22  C   UNL     1      -3.534  -0.648  -3.405  0.00  0.00    +0.066 A 
ATOM     23  C   UNL     1      -4.122  -0.988  -2.188  0.00  0.00    +0.144 A 
ATOM     24  N   UNL     1      -3.404  -0.887  -1.074  0.00  0.00    -0.197 NA
ATOM     25  H   UNL     1      -1.849  -0.604   0.907  0.00  0.00    +0.149 HD
BRANCH  23  26
ATOM     26  N   UNL     1      -5.441  -1.433  -2.140  0.00  0.00    -0.283 N 
ATOM     27  C   UNL     1      -6.281  -1.591  -3.203  0.00  0.00    +0.206 A 
ATOM     28  N   UNL     1      -7.439  -2.023  -2.797  0.00  0.00    -0.235 NA
ATOM     29  C   UNL     1      -7.425  -2.171  -1.447  0.00  0.00    +0.089 A 
ATOM     30  C   UNL     1      -6.144  -1.801  -1.006  0.00  0.00    +0.075 A 
ATOM     31  C   UNL     1      -5.833  -1.857   0.345  0.00  0.00    +0.028 A 
ATOM     32  C   UNL     1      -6.783  -2.281   1.250  0.00  0.00    +0.002 A 
ATOM     33  C   UNL     1      -8.049  -2.651   0.820  0.00  0.00    +0.002 A 
ATOM     34  C   UNL     1      -8.377  -2.594  -0.516  0.00  0.00    +0.030 A 
ENDBRANCH  23  26
ENDBRANCH   2  18
TORSDOF 5
