REMARK  Name = CHEMBL212721
REMARK  16 active torsions:
REMARK  status: ('A' for Active; 'I' for Inactive)
REMARK    1  A    between atoms: C_1  and  C_2
REMARK    2  A    between atoms: C_6  and  C_41
REMARK    3  A    between atoms: C_7  and  O_8
REMARK    4  A    between atoms: O_8  and  C_9
REMARK    5  A    between atoms: N_11  and  C_12
REMARK    6  A    between atoms: C_15  and  O_20
REMARK    7  A    between atoms: C_17  and  O_18
REMARK    8  A    between atoms: O_18  and  C_19
REMARK    9  A    between atoms: O_20  and  C_21
REMARK   10  A    between atoms: N_28  and  C_29
REMARK   11  A    between atoms: C_32  and  O_35
REMARK   12  A    between atoms: O_35  and  C_36
REMARK   13  A    between atoms: C_36  and  C_37
REMARK   14  A    between atoms: C_37  and  N_38
REMARK   15  A    between atoms: N_38  and  C_39
REMARK   16  A    between atoms: N_38  and  C_40
REMARK                            x       y       z     vdW  Elec       q    Type
REMARK                         _______ _______ _______ _____ _____    ______ ____
ROOT
ATOM      1  C   UNL     1      -1.275   0.956   2.431  0.00  0.00    +0.418 C 
ATOM      2  O   UNL     1      -2.303   0.688   1.841  0.00  0.00    -0.225 OA
ATOM      3  N   UNL     1      -1.325   1.619   3.604  0.00  0.00    -0.186 N 
ATOM      4  C   UNL     1      -0.159   1.832   4.332  0.00  0.00    +0.140 A 
ATOM      5  C   UNL     1       0.313   0.857   5.213  0.00  0.00    +0.064 A 
ATOM      6  C   UNL     1       1.475   1.111   5.916  0.00  0.00    +0.118 A 
ATOM      7  N   UNL     1       2.103   2.264   5.735  0.00  0.00    -0.223 NA
ATOM      8  C   UNL     1       1.631   3.171   4.893  0.00  0.00    +0.221 A 
ATOM      9  N   UNL     1       0.523   2.963   4.196  0.00  0.00    -0.198 NA
ATOM     10  N   UNL     1       2.316   4.364   4.732  0.00  0.00    -0.284 N 
ATOM     11  H   UNL     1       1.942   5.067   4.178  0.00  0.00    +0.155 HD
ENDROOT
BRANCH   3  12
ATOM     12  C   UNL     1      -2.554   2.095   4.090  0.00  0.00    +0.088 A 
ATOM     13  C   UNL     1      -3.331   1.295   4.914  0.00  0.00    +0.031 A 
ATOM     14  C   UNL     1      -4.540   1.763   5.392  0.00  0.00    +0.048 A 
ATOM     15  C   UNL     1      -4.978   3.034   5.050  0.00  0.00    +0.124 A 
ATOM     16  C   UNL     1      -4.205   3.838   4.227  0.00  0.00    +0.093 A 
ATOM     17  C   UNL     1      -2.990   3.373   3.750  0.00  0.00    +0.145 A 
BRANCH  17  18
ATOM     18  O   UNL     1      -2.228   4.161   2.946  0.00  0.00    -0.493 OA
ATOM     19  C   UNL     1      -2.738   5.460   2.639  0.00  0.00    +0.277 C 
ENDBRANCH  17  18
BRANCH  15  20
ATOM     20  O   UNL     1      -6.168   3.492   5.522  0.00  0.00    -0.495 OA
ATOM     21  C   UNL     1      -6.914   2.611   6.365  0.00  0.00    +0.277 C 
ENDBRANCH  15  20
ENDBRANCH   3  12
BRANCH  10  22
ATOM     22  C   UNL     1       3.549   4.555   5.368  0.00  0.00    +0.034 A 
ATOM     23  C   UNL     1       4.407   3.479   5.557  0.00  0.00    +0.027 A 
ATOM     24  C   UNL     1       5.622   3.669   6.185  0.00  0.00    +0.047 A 
ATOM     25  C   UNL     1       5.986   4.932   6.627  0.00  0.00    +0.121 A 
ATOM     26  C   UNL     1       5.129   6.007   6.438  0.00  0.00    +0.047 A 
ATOM     27  C   UNL     1       3.916   5.820   5.806  0.00  0.00    +0.027 A 
BRANCH  25  28
ATOM     28  O   UNL     1       7.183   5.117   7.245  0.00  0.00    -0.494 OA
BRANCH  28  29
ATOM     29  C   UNL     1       7.493   6.445   7.674  0.00  0.00    +0.210 C 
BRANCH  29  30
ATOM     30  C   UNL     1       8.869   6.456   8.343  0.00  0.00    -0.038 C 
BRANCH  30  31
ATOM     31  N   UNL     1       9.899   6.120   7.350  0.00  0.00    +0.378 N 
ATOM     32  C   UNL     1       9.976   7.189   6.345  0.00  0.00    -0.096 C 
ATOM     33  C   UNL     1      11.198   5.983   8.020  0.00  0.00    -0.096 C 
ATOM     34  H   UNL     1       9.659   5.250   6.899  0.00  0.00    -0.082 HD
ENDBRANCH  30  31
ENDBRANCH  29  30
ENDBRANCH  28  29
ENDBRANCH  25  28
ENDBRANCH  10  22
BRANCH   1  35
ATOM     35  O   UNL     1      -0.087   0.592   1.913  0.00  0.00    -0.410 OA
BRANCH  35  42
ATOM     36  C   UNL     1       0.050   2.135  -0.449  0.00  0.00    +0.047 C 
ATOM     37  C   UNL     1      -0.018   0.629  -0.465  0.00  0.00    -0.008 A 
ATOM     38  C   UNL     1      -0.010  -0.051  -1.667  0.00  0.00    +0.007 A 
ATOM     39  C   UNL     1      -0.073  -1.432  -1.682  0.00  0.00    +0.001 A 
ATOM     40  C   UNL     1      -0.144  -2.136  -0.494  0.00  0.00    +0.007 A 
ATOM     41  C   UNL     1      -0.152  -1.460   0.711  0.00  0.00    -0.008 A 
ATOM     42  C   UNL     1      -0.084  -0.075   0.729  0.00  0.00    +0.139 A 
ATOM     43  C   UNL     1      -0.230  -2.228   2.006  0.00  0.00    +0.047 C 
ENDBRANCH  35  42
ENDBRANCH   1  35
TORSDOF 10
