REMARK  Name = CHEMBL337689
REMARK  3 active torsions:
REMARK  status: ('A' for Active; 'I' for Inactive)
REMARK    1  A    between atoms: C_1  and  O_2
REMARK    2  A    between atoms: O_2  and  C_3
REMARK    3  A    between atoms: C_4  and  C_20
REMARK                            x       y       z     vdW  Elec       q    Type
REMARK                         _______ _______ _______ _____ _____    ______ ____
ROOT
ATOM      1  C   UNL     1      -1.229  -0.545  -0.040  0.00  0.00    +0.123 C 
ATOM      2  C   UNL     1      -2.332   0.257  -0.099  0.00  0.00    +0.099 C 
ATOM      3  C   UNL     1      -3.678  -0.365  -0.108  0.00  0.00    +0.189 C 
ATOM      4  C   UNL     1      -3.807  -1.637  -0.489  0.00  0.00    +0.037 C 
ATOM      5  C   UNL     1      -2.593  -2.426  -0.894  0.00  0.00    +0.104 C 
ATOM      6  C   UNL     1      -1.405  -2.044  -0.010  0.00  0.00    +0.141 C 
ATOM      7  C   UNL     1      -1.707  -2.465   1.412  0.00  0.00    +0.175 C 
ATOM      8  O   UNL     1      -1.480  -1.715   2.337  0.00  0.00    -0.291 OA
ATOM      9  C   UNL     1      -2.283  -3.799   1.655  0.00  0.00    +0.029 A 
ATOM     10  C   UNL     1      -2.263  -4.368   2.924  0.00  0.00    +0.012 A 
ATOM     11  C   UNL     1      -2.816  -5.621   3.124  0.00  0.00    +0.001 A 
ATOM     12  C   UNL     1      -3.390  -6.312   2.071  0.00  0.00    +0.001 A 
ATOM     13  C   UNL     1      -3.418  -5.764   0.801  0.00  0.00    +0.012 A 
ATOM     14  C   UNL     1      -2.864  -4.508   0.581  0.00  0.00    +0.029 A 
ATOM     15  C   UNL     1      -2.867  -3.904  -0.753  0.00  0.00    +0.172 C 
ATOM     16  O   UNL     1      -3.086  -4.586  -1.731  0.00  0.00    -0.291 OA
ATOM     17  O   UNL     1      -4.769   0.353   0.268  0.00  0.00    -0.287 OA
ENDROOT
BRANCH   1  19
ATOM     18  C   UNL     1       0.845  -0.257  -1.141  0.00  0.00    +0.276 C 
ATOM     19  O   UNL     1       0.003  -0.005  -0.015  0.00  0.00    -0.498 OA
ENDBRANCH   1  19
BRANCH   2  20
ATOM     20  C   UNL     1      -2.193   1.666  -0.151  0.00  0.00    +0.265 C 
ATOM     21  O   UNL     1      -3.178   2.375  -0.119  0.00  0.00    -0.295 OA
ENDBRANCH   2  20
TORSDOF 2
