REMARK  Name = CHEMBL447107
REMARK  8 active torsions:
REMARK  status: ('A' for Active; 'I' for Inactive)
REMARK    1  A    between atoms: C_1  and  C_2
REMARK    2  A    between atoms: C_7  and  N_8
REMARK    3  A    between atoms: C_20  and  N_24
REMARK    4  A    between atoms: N_24  and  C_25
REMARK    5  A    between atoms: C_29  and  C_31
REMARK    6  A    between atoms: N_35  and  C_38
REMARK    7  A    between atoms: C_38  and  C_39
REMARK    8  A    between atoms: C_39  and  O_40
REMARK                            x       y       z     vdW  Elec       q    Type
REMARK                         _______ _______ _______ _____ _____    ______ ____
ROOT
ATOM      1  N   UNL     1      -2.551   0.236   4.857  0.00  0.00    -0.283 N 
ATOM      2  C   UNL     1      -1.396  -0.243   4.276  0.00  0.00    +0.207 A 
ATOM      3  N   UNL     1      -1.265  -1.422   3.720  0.00  0.00    -0.214 NA
ATOM      4  C   UNL     1       0.001  -1.568   3.248  0.00  0.00    +0.091 A 
ATOM      5  C   UNL     1       0.662  -2.604   2.583  0.00  0.00    +0.030 A 
ATOM      6  C   UNL     1       1.983  -2.452   2.223  0.00  0.00    +0.002 A 
ATOM      7  C   UNL     1       2.661  -1.278   2.515  0.00  0.00    +0.002 A 
ATOM      8  C   UNL     1       2.022  -0.246   3.171  0.00  0.00    +0.028 A 
ATOM      9  C   UNL     1       0.693  -0.382   3.541  0.00  0.00    +0.077 A 
ATOM     10  N   UNL     1      -0.215   0.444   4.188  0.00  0.00    -0.264 N 
ATOM     11  C   UNL     1       0.031   1.732   4.663  0.00  0.00    +0.145 A 
ATOM     12  C   UNL     1       0.690   2.662   3.868  0.00  0.00    +0.090 A 
ATOM     13  C   UNL     1       0.911   3.935   4.388  0.00  0.00    +0.129 A 
ATOM     14  N   UNL     1       0.485   4.213   5.618  0.00  0.00    -0.220 NA
ATOM     15  C   UNL     1      -0.137   3.302   6.340  0.00  0.00    +0.225 A 
ATOM     16  N   UNL     1      -0.368   2.089   5.881  0.00  0.00    -0.218 NA
ATOM     17  H   UNL     1      -2.589   1.150   5.179  0.00  0.00    +0.155 HD
ENDROOT
BRANCH   1  24
ATOM     18  C   UNL     1      -3.585  -0.242   7.465  0.00  0.00    +0.046 C 
ATOM     19  C   UNL     1      -4.205  -0.857   6.236  0.00  0.00    -0.028 A 
ATOM     20  C   UNL     1      -5.312  -1.675   6.356  0.00  0.00    +0.005 A 
ATOM     21  C   UNL     1      -5.883  -2.239   5.230  0.00  0.00    +0.002 A 
ATOM     22  C   UNL     1      -5.348  -1.987   3.980  0.00  0.00    +0.022 A 
ATOM     23  C   UNL     1      -4.241  -1.169   3.852  0.00  0.00    +0.062 A 
ATOM     24  C   UNL     1      -3.668  -0.597   4.982  0.00  0.00    +0.055 A 
ATOM     25 CL   UNL     1      -3.570  -0.853   2.283  0.00  0.00    -0.082 Cl
ENDBRANCH   1  24
BRANCH  13  26
ATOM     26  N   UNL     1       1.565   4.900   3.634  0.00  0.00    -0.286 N 
ATOM     27  H   UNL     1       1.797   4.719   2.710  0.00  0.00    +0.155 HD
BRANCH  26  28
ATOM     28  C   UNL     1       1.888   6.124   4.204  0.00  0.00    +0.106 A 
ATOM     29  C   UNL     1       1.974   6.259   5.585  0.00  0.00    +0.085 A 
ATOM     30  C   UNL     1       2.302   7.507   6.107  0.00  0.00    +0.127 A 
ATOM     31  N   UNL     1       2.520   8.520   5.271  0.00  0.00    -0.219 NA
ATOM     32  C   UNL     1       2.428   8.352   3.967  0.00  0.00    +0.107 A 
ATOM     33  N   UNL     1       2.126   7.185   3.435  0.00  0.00    -0.332 N 
ATOM     34  C   UNL     1       2.683   9.526   3.058  0.00  0.00    +0.086 C 
ATOM     35  N   UNL     1       2.399   7.693   7.477  0.00  0.00    -0.313 N 
ATOM     36  C   UNL     1       2.528   9.043   8.049  0.00  0.00    +0.122 C 
ATOM     37  C   UNL     1       1.470   9.210   9.145  0.00  0.00    +0.103 C 
ATOM     38  N   UNL     1       1.595   8.111  10.112  0.00  0.00    -0.297 NA
ATOM     39  C   UNL     1       1.326   6.812   9.481  0.00  0.00    +0.103 C 
ATOM     40  C   UNL     1       2.371   6.547   8.399  0.00  0.00    +0.122 C 
ATOM     41  H   UNL     1       2.072   7.099   2.470  0.00  0.00    +0.168 HD
BRANCH  38  42
ATOM     42  C   UNL     1       0.715   8.326  11.269  0.00  0.00    +0.112 C 
BRANCH  42  43
ATOM     43  C   UNL     1       1.138   7.400  12.411  0.00  0.00    +0.171 C 
BRANCH  43  44
ATOM     44  O   UNL     1       2.452   7.753  12.848  0.00  0.00    -0.394 OA
ATOM     45  H   UNL     1       2.816   7.159  13.518  0.00  0.00    +0.209 HD
ENDBRANCH  43  44
ENDBRANCH  42  43
ENDBRANCH  38  42
ENDBRANCH  26  28
ENDBRANCH  13  26
TORSDOF 6
