REMARK  Name = CHEMBL379729
REMARK  6 active torsions:
REMARK  status: ('A' for Active; 'I' for Inactive)
REMARK    1  A    between atoms: C_1  and  N_2
REMARK    2  A    between atoms: N_5  and  N_8
REMARK    3  A    between atoms: C_11  and  N_15
REMARK    4  A    between atoms: N_15  and  C_16
REMARK    5  A    between atoms: C_19  and  N_22
REMARK    6  A    between atoms: N_30  and  C_31
REMARK                            x       y       z     vdW  Elec       q    Type
REMARK                         _______ _______ _______ _____ _____    ______ ____
ROOT
ATOM      1  N   UNL     1      -0.510  -3.851   1.109  0.00  0.00    -0.168 N 
ATOM      2  C   UNL     1      -1.512  -4.178   2.016  0.00  0.00    +0.148 A 
ATOM      3  C   UNL     1      -2.444  -5.165   1.712  0.00  0.00    +0.089 A 
ATOM      4  C   UNL     1      -3.427  -5.455   2.654  0.00  0.00    +0.128 A 
ATOM      5  N   UNL     1      -3.440  -4.782   3.803  0.00  0.00    -0.221 NA
ATOM      6  C   UNL     1      -2.539  -3.854   4.053  0.00  0.00    +0.225 A 
ATOM      7  N   UNL     1      -1.590  -3.555   3.190  0.00  0.00    -0.219 NA
ATOM      8  C   UNL     1      -0.568  -4.314  -0.155  0.00  0.00    +0.326 C 
ATOM      9  O   UNL     1      -1.562  -4.898  -0.544  0.00  0.00    -0.251 OA
ATOM     10  N   UNL     1       0.475  -4.131  -0.989  0.00  0.00    -0.265 N 
ATOM     11  H   UNL     1       1.309  -3.771  -0.650  0.00  0.00    +0.157 HD
ENDROOT
BRANCH   1  16
ATOM     12  C   UNL     1       4.189  -0.977   1.639  0.00  0.00    -0.096 C 
ATOM     13  N   UNL     1       3.094  -1.838   1.172  0.00  0.00    +0.380 N 
ATOM     14  C   UNL     1       1.860  -1.049   1.070  0.00  0.00    -0.062 C 
ATOM     15  C   UNL     1       0.724  -1.941   0.566  0.00  0.00    +0.088 C 
ATOM     16  N   UNL     1       0.533  -3.061   1.499  0.00  0.00    -0.221 NA
ATOM     17  C   UNL     1       1.769  -3.846   1.631  0.00  0.00    +0.088 C 
ATOM     18  C   UNL     1       2.897  -2.938   2.126  0.00  0.00    -0.062 C 
ATOM     19  H   UNL     1       3.327  -2.217   0.267  0.00  0.00    -0.082 HD
ENDBRANCH   1  16
BRANCH  10  20
ATOM     20  C   UNL     1       0.353  -4.460  -2.345  0.00  0.00    +0.072 A 
ATOM     21  C   UNL     1      -0.139  -5.704  -2.719  0.00  0.00    +0.064 A 
ATOM     22  C   UNL     1      -0.258  -6.025  -4.058  0.00  0.00    +0.022 A 
ATOM     23  C   UNL     1       0.115  -5.110  -5.026  0.00  0.00    +0.003 A 
ATOM     24  C   UNL     1       0.606  -3.871  -4.657  0.00  0.00    +0.022 A 
ATOM     25  C   UNL     1       0.721  -3.540  -3.320  0.00  0.00    +0.064 A 
ATOM     26 CL   UNL     1       1.331  -1.982  -2.859  0.00  0.00    -0.082 Cl
ATOM     27 CL   UNL     1      -0.606  -6.854  -1.505  0.00  0.00    -0.082 Cl
ENDBRANCH  10  20
BRANCH   4  28
ATOM     28  N   UNL     1      -4.380  -6.430   2.399  0.00  0.00    -0.299 N 
ATOM     29  H   UNL     1      -4.381  -6.897   1.549  0.00  0.00    +0.154 HD
BRANCH  28  30
ATOM     30  C   UNL     1      -5.341  -6.741   3.369  0.00  0.00    +0.032 A 
ATOM     31  C   UNL     1      -5.703  -5.793   4.317  0.00  0.00    +0.025 A 
ATOM     32  C   UNL     1      -6.650  -6.099   5.274  0.00  0.00    +0.025 A 
ATOM     33  C   UNL     1      -7.242  -7.355   5.287  0.00  0.00    +0.030 A 
ATOM     34  C   UNL     1      -6.881  -8.303   4.339  0.00  0.00    +0.025 A 
ATOM     35  C   UNL     1      -5.937  -7.995   3.380  0.00  0.00    +0.025 A 
BRANCH  33  36
ATOM     36  N   UNL     1      -8.203  -7.666   6.257  0.00  0.00    -0.326 N 
ATOM     37  C   UNL     1      -8.736  -9.031   6.385  0.00  0.00    +0.133 C 
ATOM     38  C   UNL     1      -8.632  -9.455   7.854  0.00  0.00    +0.178 C 
ATOM     39  O   UNL     1      -9.241  -8.457   8.676  0.00  0.00    -0.377 OA
ATOM     40  C   UNL     1      -8.606  -7.177   8.610  0.00  0.00    +0.178 C 
ATOM     41  C   UNL     1      -8.704  -6.638   7.183  0.00  0.00    +0.133 C 
ENDBRANCH  33  36
ENDBRANCH  28  30
ENDBRANCH   4  28
TORSDOF 5
