REMARK  Name = CHEMBL84046
REMARK  3 active torsions:
REMARK  status: ('A' for Active; 'I' for Inactive)
REMARK    1  A    between atoms: C_1  and  C_2
REMARK    2  A    between atoms: C_7  and  N_8
REMARK    3  A    between atoms: C_18  and  N_22
REMARK                            x       y       z     vdW  Elec       q    Type
REMARK                         _______ _______ _______ _____ _____    ______ ____
ROOT
ATOM      1  N   UNL     1      -0.021  -0.005   2.407  0.00  0.00    -0.296 N 
ATOM      2  C   UNL     1      -0.395  -0.651   3.570  0.00  0.00    +0.149 A 
ATOM      3  C   UNL     1      -0.488   0.094   4.823  0.00  0.00    +0.106 A 
ATOM      4  C   UNL     1      -0.279   1.404   5.180  0.00  0.00    +0.142 A 
ATOM      5  N   UNL     1      -0.522   1.506   6.489  0.00  0.00    -0.243 NA
ATOM      6  C   UNL     1      -0.871   0.338   6.968  0.00  0.00    +0.204 A 
ATOM      7  N   UNL     1      -0.865  -0.569   5.977  0.00  0.00    -0.294 N 
ATOM      8  C   UNL     1      -1.144  -1.930   5.907  0.00  0.00    +0.074 A 
ATOM      9  C   UNL     1      -1.526  -2.625   7.047  0.00  0.00    +0.030 A 
ATOM     10  C   UNL     1      -1.802  -3.974   6.975  0.00  0.00    +0.025 A 
ATOM     11  C   UNL     1      -1.700  -4.648   5.761  0.00  0.00    +0.032 A 
ATOM     12  C   UNL     1      -1.322  -3.970   4.617  0.00  0.00    +0.053 A 
ATOM     13  C   UNL     1      -1.040  -2.601   4.678  0.00  0.00    +0.092 A 
ATOM     14  N   UNL     1      -0.673  -1.937   3.550  0.00  0.00    -0.228 NA
ATOM     15  H   UNL     1       0.107   0.956   2.405  0.00  0.00    +0.154 HD
ENDROOT
BRANCH   1  22
ATOM     16  C   UNL     1       2.620  -0.200   1.367  0.00  0.00    +0.046 C 
ATOM     17  C   UNL     1       1.446  -0.859   0.690  0.00  0.00    -0.028 A 
ATOM     18  C   UNL     1       1.636  -1.588  -0.468  0.00  0.00    +0.005 A 
ATOM     19  C   UNL     1       0.560  -2.193  -1.091  0.00  0.00    +0.002 A 
ATOM     20  C   UNL     1      -0.710  -2.070  -0.557  0.00  0.00    +0.022 A 
ATOM     21  C   UNL     1      -0.907  -1.342   0.600  0.00  0.00    +0.062 A 
ATOM     22  C   UNL     1       0.174  -0.738   1.232  0.00  0.00    +0.054 A 
ATOM     23 CL   UNL     1      -2.502  -1.188   1.269  0.00  0.00    -0.082 Cl
ENDBRANCH   1  22
BRANCH  11  24
ATOM     24  N   UNL     1      -1.982  -6.016   5.698  0.00  0.00    -0.325 N 
ATOM     25  C   UNL     1      -1.757  -6.780   4.461  0.00  0.00    +0.133 C 
ATOM     26  C   UNL     1      -0.938  -8.029   4.806  0.00  0.00    +0.178 C 
ATOM     27  O   UNL     1      -1.575  -8.729   5.877  0.00  0.00    -0.377 OA
ATOM     28  C   UNL     1      -1.655  -7.986   7.096  0.00  0.00    +0.178 C 
ATOM     29  C   UNL     1      -2.507  -6.736   6.870  0.00  0.00    +0.133 C 
ENDBRANCH  11  24
TORSDOF 2
