REMARK  Name = CHEMBL450092
REMARK  8 active torsions:
REMARK  status: ('A' for Active; 'I' for Inactive)
REMARK    1  A    between atoms: C_1  and  C_2
REMARK    2  A    between atoms: C_7  and  N_8
REMARK    3  A    between atoms: C_20  and  N_24
REMARK    4  A    between atoms: C_27  and  N_32
REMARK    5  A    between atoms: C_29  and  C_31
REMARK    6  A    between atoms: N_32  and  C_33
REMARK    7  A    between atoms: C_33  and  C_34
REMARK    8  A    between atoms: C_34  and  N_35
REMARK                            x       y       z     vdW  Elec       q    Type
REMARK                         _______ _______ _______ _____ _____    ______ ____
ROOT
ATOM      1  N   UNL     1      -1.802  -0.508   4.974  0.00  0.00    -0.283 N 
ATOM      2  C   UNL     1      -0.593  -0.898   4.434  0.00  0.00    +0.207 A 
ATOM      3  N   UNL     1      -0.344  -2.076   3.920  0.00  0.00    -0.214 NA
ATOM      4  C   UNL     1       0.942  -2.122   3.482  0.00  0.00    +0.091 A 
ATOM      5  C   UNL     1       1.711  -3.113   2.867  0.00  0.00    +0.030 A 
ATOM      6  C   UNL     1       3.021  -2.854   2.533  0.00  0.00    +0.002 A 
ATOM      7  C   UNL     1       3.584  -1.615   2.802  0.00  0.00    +0.002 A 
ATOM      8  C   UNL     1       2.839  -0.626   3.410  0.00  0.00    +0.028 A 
ATOM      9  C   UNL     1       1.518  -0.870   3.753  0.00  0.00    +0.077 A 
ATOM     10  N   UNL     1       0.523  -0.109   4.351  0.00  0.00    -0.264 N 
ATOM     11  C   UNL     1       0.640   1.208   4.789  0.00  0.00    +0.145 A 
ATOM     12  C   UNL     1       1.171   2.184   3.954  0.00  0.00    +0.090 A 
ATOM     13  C   UNL     1       1.267   3.486   4.438  0.00  0.00    +0.129 A 
ATOM     14  N   UNL     1       0.848   3.748   5.674  0.00  0.00    -0.220 NA
ATOM     15  C   UNL     1       0.350   2.794   6.435  0.00  0.00    +0.225 A 
ATOM     16  N   UNL     1       0.239   1.552   6.010  0.00  0.00    -0.218 NA
ATOM     17  H   UNL     1      -1.922   0.403   5.285  0.00  0.00    +0.155 HD
ENDROOT
BRANCH  13  18
ATOM     18  N   UNL     1       1.790   4.497   3.643  0.00  0.00    -0.284 N 
ATOM     19  C   UNL     1       2.014   5.757   4.180  0.00  0.00    +0.129 A 
ATOM     20  C   UNL     1       2.029   5.944   5.559  0.00  0.00    +0.087 A 
ATOM     21  C   UNL     1       2.257   7.227   6.047  0.00  0.00    +0.124 A 
ATOM     22  N   UNL     1       2.453   8.222   5.184  0.00  0.00    -0.218 NA
ATOM     23  C   UNL     1       2.432   8.004   3.885  0.00  0.00    +0.130 A 
ATOM     24  N   UNL     1       2.223   6.804   3.384  0.00  0.00    -0.217 NA
ATOM     25  C   UNL     1       2.658   9.161   2.945  0.00  0.00    +0.088 C 
ATOM     26  H   UNL     1       2.000   4.322   2.712  0.00  0.00    +0.155 HD
BRANCH  21  27
ATOM     27  N   UNL     1       2.281   7.466   7.413  0.00  0.00    -0.328 N 
ATOM     28  H   UNL     1       2.365   8.373   7.745  0.00  0.00    +0.147 HD
BRANCH  27  29
ATOM     29  C   UNL     1       2.180   6.348   8.354  0.00  0.00    +0.118 C 
BRANCH  29  30
ATOM     30  C   UNL     1       2.130   6.888   9.784  0.00  0.00    +0.103 C 
BRANCH  30  31
ATOM     31  N   UNL     1       2.097   5.765  10.731  0.00  0.00    -0.297 NA
ATOM     32  C   UNL     1       0.814   5.050  10.656  0.00  0.00    +0.112 C 
ATOM     33  C   UNL     1       0.845   3.856  11.613  0.00  0.00    +0.175 C 
ATOM     34  O   UNL     1       1.131   4.318  12.936  0.00  0.00    -0.377 OA
ATOM     35  C   UNL     1       2.373   5.018  13.045  0.00  0.00    +0.175 C 
ATOM     36  C   UNL     1       2.358   6.224  12.103  0.00  0.00    +0.112 C 
ENDBRANCH  30  31
ENDBRANCH  29  30
ENDBRANCH  27  29
ENDBRANCH  21  27
ENDBRANCH  13  18
BRANCH   1  43
ATOM     37  C   UNL     1      -2.894  -1.032   7.548  0.00  0.00    +0.046 C 
ATOM     38  C   UNL     1      -3.415  -1.711   6.308  0.00  0.00    -0.028 A 
ATOM     39  C   UNL     1      -4.457  -2.613   6.400  0.00  0.00    +0.005 A 
ATOM     40  C   UNL     1      -4.937  -3.236   5.263  0.00  0.00    +0.002 A 
ATOM     41  C   UNL     1      -4.376  -2.959   4.030  0.00  0.00    +0.022 A 
ATOM     42  C   UNL     1      -3.334  -2.058   3.930  0.00  0.00    +0.062 A 
ATOM     43  C   UNL     1      -2.853  -1.426   5.071  0.00  0.00    +0.055 A 
ATOM     44 CL   UNL     1      -2.630  -1.710   2.382  0.00  0.00    -0.082 Cl
ENDBRANCH   1  43
TORSDOF 6
