REMARK  Name = CHEMBL297278
REMARK  5 active torsions:
REMARK  status: ('A' for Active; 'I' for Inactive)
REMARK    1  A    between atoms: C_4  and  O_7
REMARK    2  A    between atoms: O_7  and  C_8
REMARK    3  A    between atoms: C_11  and  C_14
REMARK    4  A    between atoms: N_16  and  C_24
REMARK    5  A    between atoms: C_19  and  N_23
REMARK                            x       y       z     vdW  Elec       q    Type
REMARK                         _______ _______ _______ _____ _____    ______ ____
ROOT
ATOM      1  C   UNL     1       3.882  -6.235   0.069  0.00  0.00    +0.012 A 
ATOM      2  C   UNL     1       3.190  -7.068   0.885  0.00  0.00    +0.097 A 
ATOM      3  N   UNL     1       3.531  -8.366   0.613  0.00  0.00    -0.330 N 
ATOM      4  C   UNL     1       4.459  -8.412  -0.392  0.00  0.00    +0.147 A 
ATOM      5  C   UNL     1       4.720  -7.087  -0.784  0.00  0.00    +0.066 A 
ATOM      6  C   UNL     1       5.642  -6.858  -1.814  0.00  0.00    +0.129 A 
ATOM      7  N   UNL     1       6.231  -7.908  -2.379  0.00  0.00    -0.220 NA
ATOM      8  C   UNL     1       5.956  -9.137  -1.982  0.00  0.00    +0.225 A 
ATOM      9  N   UNL     1       5.102  -9.398  -1.016  0.00  0.00    -0.218 NA
ENDROOT
BRANCH   3  10
ATOM     10  C   UNL     1       2.982  -9.537   1.299  0.00  0.00    +0.070 C 
ATOM     11  C   UNL     1       1.438  -9.540   1.205  0.00  0.00    +0.004 C 
ATOM     12  C   UNL     1       1.006 -10.040   2.606  0.00  0.00    -0.081 C 
ATOM     13  N   UNL     1       1.995  -9.404   3.514  0.00  0.00    +0.380 N 
ATOM     14  C   UNL     1       3.292  -9.468   2.806  0.00  0.00    -0.057 C 
ATOM     15  H   UNL     1       1.740  -8.443   3.687  0.00  0.00    -0.086 HD
ATOM     16  H   UNL     1       2.048  -9.913   4.383  0.00  0.00    -0.086 HD
ENDBRANCH   3  10
BRANCH   1  20
ATOM     17  C   UNL     1       3.657  -1.988  -0.011  0.00  0.00    +0.128 A 
ATOM     18  C   UNL     1       2.493  -2.744  -0.046  0.00  0.00    +0.047 A 
ATOM     19  C   UNL     1       2.563  -4.122  -0.021  0.00  0.00    +0.012 A 
ATOM     20  C   UNL     1       3.804  -4.755   0.041  0.00  0.00    -0.015 A 
ATOM     21  C   UNL     1       4.971  -3.993   0.075  0.00  0.00    +0.012 A 
ATOM     22  C   UNL     1       4.895  -2.616   0.044  0.00  0.00    +0.047 A 
BRANCH  17  23
ATOM     23  O   UNL     1       3.586  -0.632  -0.037  0.00  0.00    -0.456 OA
BRANCH  23  27
ATOM     24  C   UNL     1       3.337   1.363   3.565  0.00  0.00    +0.000 A 
ATOM     25  C   UNL     1       3.419  -0.017   3.545  0.00  0.00    +0.004 A 
ATOM     26  C   UNL     1       3.502  -0.687   2.340  0.00  0.00    +0.046 A 
ATOM     27  C   UNL     1       3.503   0.025   1.149  0.00  0.00    +0.128 A 
ATOM     28  C   UNL     1       3.420   1.410   1.173  0.00  0.00    +0.046 A 
ATOM     29  C   UNL     1       3.337   2.076   2.380  0.00  0.00    +0.004 A 
ENDBRANCH  23  27
ENDBRANCH  17  23
ENDBRANCH   1  20
BRANCH   6  30
ATOM     30  N   UNL     1       5.933  -5.572  -2.232  0.00  0.00    -0.343 N 
ATOM     31  H   UNL     1       5.496  -4.815  -1.812  0.00  0.00    +0.144 HD
ATOM     32  H   UNL     1       6.574  -5.427  -2.946  0.00  0.00    +0.144 HD
ENDBRANCH   6  30
TORSDOF 5
