REMARK  Name = CHEMBL185851
REMARK  5 active torsions:
REMARK  status: ('A' for Active; 'I' for Inactive)
REMARK    1  A    between atoms: C_1  and  C_2
REMARK    2  A    between atoms: C_7  and  N_8
REMARK    3  A    between atoms: C_9  and  C_11
REMARK    4  A    between atoms: C_21  and  N_23
REMARK    5  A    between atoms: C_27  and  C_30
REMARK                            x       y       z     vdW  Elec       q    Type
REMARK                         _______ _______ _______ _____ _____    ______ ____
ROOT
ATOM      1  C   UNL     1      -1.627   0.335   4.738  0.00  0.00    +0.095 A 
ATOM      2  C   UNL     1      -1.841  -0.113   6.034  0.00  0.00    +0.133 A 
ATOM      3  N   UNL     1      -1.587   0.740   6.994  0.00  0.00    -0.232 NA
ATOM      4  C   UNL     1      -1.151   1.960   6.734  0.00  0.00    +0.164 A 
ATOM      5  S   UNL     1      -1.056   1.996   5.055  0.00  0.00    -0.047 S 
ATOM      6  N   UNL     1      -0.842   2.965   7.629  0.00  0.00    -0.280 N 
ATOM      7  C   UNL     1      -0.871   2.712   8.998  0.00  0.00    +0.103 A 
ATOM      8  C   UNL     1      -1.047   1.410   9.452  0.00  0.00    +0.042 A 
ATOM      9  C   UNL     1      -1.075   1.167  10.816  0.00  0.00    +0.007 A 
ATOM     10  C   UNL     1      -0.925   2.237  11.683  0.00  0.00    +0.042 A 
ATOM     11  C   UNL     1      -0.752   3.514  11.162  0.00  0.00    +0.100 A 
ATOM     12  N   UNL     1      -0.726   3.713   9.853  0.00  0.00    -0.332 N 
ATOM     13  H   UNL     1      -0.605   3.848   7.304  0.00  0.00    +0.155 HD
ATOM     14  H   UNL     1      -0.600   4.612   9.512  0.00  0.00    +0.168 HD
ENDROOT
BRANCH  11  15
ATOM     15  N   UNL     1      -0.601   4.594  12.025  0.00  0.00    -0.314 N 
ATOM     16  C   UNL     1      -0.331   5.943  11.505  0.00  0.00    +0.121 C 
ATOM     17  C   UNL     1       0.887   6.513  12.240  0.00  0.00    +0.100 C 
ATOM     18  N   UNL     1       0.658   6.440  13.689  0.00  0.00    -0.311 NA
ATOM     19  C   UNL     1       0.526   5.048  14.138  0.00  0.00    +0.068 C 
ATOM     20  C   UNL     1      -0.712   4.419  13.481  0.00  0.00    +0.124 C 
ATOM     21  C   UNL     1       0.367   5.015  15.659  0.00  0.00    +0.025 C 
ATOM     22  H   UNL     1       1.391   6.915  14.195  0.00  0.00    +0.122 HD
ENDBRANCH  11  15
BRANCH   1  24
ATOM     23  N   UNL     1      -1.536   0.265   2.307  0.00  0.00    -0.280 N 
ATOM     24  C   UNL     1      -1.813  -0.363   3.466  0.00  0.00    +0.256 C 
ATOM     25  O   UNL     1      -2.217  -1.511   3.455  0.00  0.00    -0.269 OA
ATOM     26  H   UNL     1      -1.138   1.150   2.317  0.00  0.00    +0.155 HD
BRANCH  23  33
ATOM     27  C   UNL     1      -3.073   1.701   0.391  0.00  0.00    +0.046 C 
ATOM     28  C   UNL     1      -2.569   0.306   0.124  0.00  0.00    -0.028 A 
ATOM     29  C   UNL     1      -2.845  -0.311  -1.081  0.00  0.00    +0.005 A 
ATOM     30  C   UNL     1      -2.383  -1.590  -1.327  0.00  0.00    +0.002 A 
ATOM     31  C   UNL     1      -1.643  -2.258  -0.367  0.00  0.00    +0.022 A 
ATOM     32  C   UNL     1      -1.364  -1.648   0.840  0.00  0.00    +0.062 A 
ATOM     33  C   UNL     1      -1.822  -0.359   1.087  0.00  0.00    +0.055 A 
ATOM     34 CL   UNL     1      -0.436  -2.486   2.044  0.00  0.00    -0.082 Cl
ENDBRANCH  23  33
ENDBRANCH   1  24
TORSDOF 3
