REMARK  Name = CHEMBL327060
REMARK  3 active torsions:
REMARK  status: ('A' for Active; 'I' for Inactive)
REMARK    1  A    between atoms: C_1  and  C_2
REMARK    2  A    between atoms: C_3  and  C_27
REMARK    3  A    between atoms: N_16  and  C_17
REMARK                            x       y       z     vdW  Elec       q    Type
REMARK                         _______ _______ _______ _____ _____    ______ ____
ROOT
ATOM      1  C   UNL     1       5.176   0.763   1.526  0.00  0.00    +0.046 C 
ATOM      2  C   UNL     1       4.631  -0.624   1.299  0.00  0.00    -0.024 A 
ATOM      3  C   UNL     1       4.922  -1.289   0.170  0.00  0.00    +0.019 A 
ATOM      4  N   UNL     1       4.451  -2.547  -0.079  0.00  0.00    -0.326 N 
ATOM      5  C   UNL     1       3.662  -3.204   0.794  0.00  0.00    +0.259 A 
ATOM      6  C   UNL     1       3.293  -2.558   2.052  0.00  0.00    +0.074 A 
ATOM      7  C   UNL     1       3.786  -1.260   2.312  0.00  0.00    -0.006 A 
ATOM      8  C   UNL     1       3.458  -0.615   3.507  0.00  0.00    +0.011 A 
ATOM      9  C   UNL     1       2.667  -1.237   4.430  0.00  0.00    +0.028 A 
ATOM     10  C   UNL     1       2.175  -2.518   4.201  0.00  0.00    +0.068 A 
ATOM     11  C   UNL     1       2.472  -3.192   3.006  0.00  0.00    +0.104 A 
ATOM     12  N   UNL     1       1.863  -4.393   3.061  0.00  0.00    -0.214 NA
ATOM     13  C   UNL     1       1.200  -4.504   4.187  0.00  0.00    +0.198 A 
ATOM     14  N   UNL     1       1.371  -3.377   4.935  0.00  0.00    -0.326 N 
ATOM     15  H   UNL     1       0.990  -3.202   5.810  0.00  0.00    +0.169 HD
ATOM     16  N   UNL     1       0.463  -5.605   4.568  0.00  0.00    -0.283 N 
ATOM     17  O   UNL     1       3.261  -4.325   0.537  0.00  0.00    -0.267 OA
ATOM     18  C   UNL     1       5.798  -0.624  -0.861  0.00  0.00    +0.063 C 
ATOM     19  H   UNL     1      -0.064  -5.578   5.382  0.00  0.00    +0.155 HD
ATOM     20  H   UNL     1       4.692  -2.981  -0.912  0.00  0.00    +0.169 HD
ENDROOT
BRANCH  16  21
ATOM     21  C   UNL     1       0.475  -6.763   3.780  0.00  0.00    +0.071 A 
ATOM     22  C   UNL     1       0.030  -6.714   2.465  0.00  0.00    +0.065 A 
ATOM     23  C   UNL     1       0.043  -7.858   1.690  0.00  0.00    +0.042 A 
ATOM     24  C   UNL     1       0.499  -9.051   2.223  0.00  0.00    +0.044 A 
ATOM     25  C   UNL     1       0.942  -9.103   3.532  0.00  0.00    +0.042 A 
ATOM     26  C   UNL     1       0.937  -7.961   4.311  0.00  0.00    +0.065 A 
ATOM     27 CL   UNL     1       1.500  -8.025   5.952  0.00  0.00    -0.082 Cl
ATOM     28 CL   UNL     1       0.513 -10.486   1.246  0.00  0.00    -0.083 Cl
ATOM     29 CL   UNL     1      -0.543  -5.218   1.796  0.00  0.00    -0.082 Cl
ENDBRANCH  16  21
TORSDOF 1
