REMARK  Name = CHEMBL247866
REMARK  9 active torsions:
REMARK  status: ('A' for Active; 'I' for Inactive)
REMARK    1  A    between atoms: C_1  and  C_2
REMARK    2  A    between atoms: C_2  and  C_3
REMARK    3  A    between atoms: C_2  and  N_4
REMARK    4  A    between atoms: C_7  and  C_28
REMARK    5  A    between atoms: C_8  and  C_14
REMARK    6  A    between atoms: C_17  and  O_20
REMARK    7  A    between atoms: O_20  and  C_21
REMARK    8  A    between atoms: C_21  and  C_22
REMARK    9  A    between atoms: C_22  and  N_23
REMARK                            x       y       z     vdW  Elec       q    Type
REMARK                         _______ _______ _______ _____ _____    ______ ____
ROOT
ATOM      1  N   UNL     1      -1.426  -0.354   0.010  0.00  0.00    -0.326 N 
ATOM      2  C   UNL     1      -2.075  -0.629  -1.180  0.00  0.00    +0.134 A 
ATOM      3  C   UNL     1      -3.392  -1.108  -1.187  0.00  0.00    +0.088 A 
ATOM      4  C   UNL     1      -4.388  -1.436  -0.159  0.00  0.00    +0.041 A 
ATOM      5  C   UNL     1      -5.496  -1.861  -0.840  0.00  0.00    +0.146 A 
ATOM      6  O   UNL     1      -5.255  -1.816  -2.166  0.00  0.00    -0.436 OA
ATOM      7  C   UNL     1      -4.011  -1.373  -2.420  0.00  0.00    +0.233 A 
ATOM      8  N   UNL     1      -3.318  -1.157  -3.535  0.00  0.00    -0.200 NA
ATOM      9  C   UNL     1      -2.083  -0.707  -3.485  0.00  0.00    +0.227 A 
ATOM     10  N   UNL     1      -1.466  -0.440  -2.348  0.00  0.00    -0.220 NA
ATOM     11  H   UNL     1      -1.882  -0.497   0.855  0.00  0.00    +0.148 HD
ENDROOT
BRANCH   5  12
ATOM     12  C   UNL     1      -6.760  -2.300  -0.220  0.00  0.00    +0.018 A 
ATOM     13  C   UNL     1      -7.981  -1.819  -0.699  0.00  0.00    +0.015 A 
ATOM     14  C   UNL     1      -9.159  -2.232  -0.117  0.00  0.00    +0.046 A 
ATOM     15  C   UNL     1      -9.134  -3.127   0.946  0.00  0.00    +0.120 A 
ATOM     16  C   UNL     1      -7.923  -3.608   1.426  0.00  0.00    +0.046 A 
ATOM     17  C   UNL     1      -6.740  -3.204   0.846  0.00  0.00    +0.015 A 
BRANCH  15  18
ATOM     18  O   UNL     1     -10.299  -3.531   1.518  0.00  0.00    -0.494 OA
BRANCH  18  19
ATOM     19  C   UNL     1     -10.201  -4.452   2.606  0.00  0.00    +0.210 C 
BRANCH  19  20
ATOM     20  C   UNL     1     -11.603  -4.790   3.116  0.00  0.00    -0.037 C 
BRANCH  20  21
ATOM     21  N   UNL     1     -12.347  -5.503   2.068  0.00  0.00    +0.382 N 
ATOM     22  C   UNL     1     -12.577  -4.601   0.920  0.00  0.00    -0.079 C 
ATOM     23  C   UNL     1     -13.982  -4.983   0.392  0.00  0.00    -0.020 C 
ATOM     24  C   UNL     1     -14.740  -5.287   1.711  0.00  0.00    -0.020 C 
ATOM     25  C   UNL     1     -13.654  -5.936   2.595  0.00  0.00    -0.079 C 
ATOM     26  H   UNL     1     -11.820  -6.308   1.765  0.00  0.00    -0.082 HD
ENDBRANCH  20  21
ENDBRANCH  19  20
ENDBRANCH  18  19
ENDBRANCH  15  18
ENDBRANCH   5  12
BRANCH   4  27
ATOM     27  C   UNL     1      -4.226  -1.330   1.308  0.00  0.00    -0.014 A 
ATOM     28  C   UNL     1      -3.331  -2.167   1.977  0.00  0.00    +0.008 A 
ATOM     29  C   UNL     1      -3.185  -2.063   3.345  0.00  0.00    +0.001 A 
ATOM     30  C   UNL     1      -3.924  -1.132   4.053  0.00  0.00    +0.000 A 
ATOM     31  C   UNL     1      -4.812  -0.300   3.396  0.00  0.00    +0.001 A 
ATOM     32  C   UNL     1      -4.963  -0.390   2.028  0.00  0.00    +0.008 A 
ENDBRANCH   4  27
BRANCH   1  34
ATOM     33  C   UNL     1      -0.069   1.672  -0.175  0.00  0.00    +0.027 C 
ATOM     34  C   UNL     1      -0.051   0.152  -0.004  0.00  0.00    +0.066 C 
ATOM     35  C   UNL     1       0.637  -0.205   1.315  0.00  0.00    +0.027 C 
ENDBRANCH   1  34
TORSDOF 7
