REMARK  Name = CHEMBL304399
REMARK  6 active torsions:
REMARK  status: ('A' for Active; 'I' for Inactive)
REMARK    1  A    between atoms: C_1  and  C_2
REMARK    2  A    between atoms: C_7  and  C_8
REMARK    3  A    between atoms: C_8  and  C_9
REMARK    4  A    between atoms: C_17  and  C_21
REMARK    5  A    between atoms: N_23  and  C_24
REMARK    6  A    between atoms: C_25  and  C_31
REMARK                            x       y       z     vdW  Elec       q    Type
REMARK                         _______ _______ _______ _____ _____    ______ ____
ROOT
ATOM      1  C   UNL     1      -1.725   2.070   1.372  0.00  0.00    +0.223 C 
ATOM      2  O   UNL     1      -2.206   1.057   1.833  0.00  0.00    -0.275 OA
ATOM      3  N   UNL     1      -2.396   3.236   1.460  0.00  0.00    -0.264 N 
ATOM      4  C   UNL     1      -3.634   3.276   2.076  0.00  0.00    +0.165 A 
ATOM      5  N   UNL     1      -4.309   2.296   2.635  0.00  0.00    -0.225 NA
ATOM      6  C   UNL     1      -5.516   2.479   3.204  0.00  0.00    +0.080 A 
ATOM      7  C   UNL     1      -6.339   1.512   3.834  0.00  0.00    +0.029 A 
ATOM      8  C   UNL     1      -7.539   1.853   4.364  0.00  0.00    +0.015 A 
ATOM      9  C   UNL     1      -8.014   3.171   4.312  0.00  0.00    +0.038 A 
ATOM     10  C   UNL     1      -7.229   4.152   3.698  0.00  0.00    +0.030 A 
ATOM     11  C   UNL     1      -6.018   3.803   3.164  0.00  0.00    +0.041 A 
ATOM     12  S   UNL     1      -4.719   4.675   2.323  0.00  0.00    -0.052 S 
ATOM     13  H   UNL     1      -2.011   4.046   1.091  0.00  0.00    +0.157 HD
ENDROOT
BRANCH   9  14
ATOM     14  C   UNL     1      -9.324   3.518   4.895  0.00  0.00    +0.248 C 
ATOM     15  O   UNL     1      -9.727   4.664   4.845  0.00  0.00    -0.270 OA
ATOM     16  N   UNL     1     -10.073   2.564   5.484  0.00  0.00    -0.280 N 
ATOM     17  H   UNL     1      -9.786   1.638   5.460  0.00  0.00    +0.155 HD
BRANCH  16  18
ATOM     18  C   UNL     1     -11.265   2.911   6.130  0.00  0.00    +0.055 A 
ATOM     19  C   UNL     1     -12.471   2.846   5.445  0.00  0.00    -0.028 A 
ATOM     20  C   UNL     1     -13.646   3.189   6.085  0.00  0.00    +0.005 A 
ATOM     21  C   UNL     1     -13.623   3.597   7.406  0.00  0.00    +0.002 A 
ATOM     22  C   UNL     1     -12.424   3.663   8.091  0.00  0.00    +0.022 A 
ATOM     23  C   UNL     1     -11.245   3.316   7.459  0.00  0.00    +0.062 A 
ATOM     24 CL   UNL     1      -9.740   3.392   8.322  0.00  0.00    -0.082 Cl
ATOM     25  C   UNL     1     -12.499   2.402   4.005  0.00  0.00    +0.046 C 
ENDBRANCH  16  18
ENDBRANCH   9  14
BRANCH   1  26
ATOM     26  C   UNL     1      -0.376   2.026   0.700  0.00  0.00    +0.131 C 
BRANCH  26  33
ATOM     27  C   UNL     1      -1.149   0.140  -1.347  0.00  0.00    +0.044 C 
ATOM     28  C   UNL     1      -0.213  -0.286  -0.245  0.00  0.00    -0.047 A 
ATOM     29  C   UNL     1       0.280  -1.577  -0.216  0.00  0.00    +0.003 A 
ATOM     30  C   UNL     1       1.138  -1.967   0.794  0.00  0.00    +0.000 A 
ATOM     31  C   UNL     1       1.503  -1.066   1.777  0.00  0.00    +0.000 A 
ATOM     32  C   UNL     1       1.011   0.225   1.748  0.00  0.00    +0.004 A 
ATOM     33  C   UNL     1       0.156   0.617   0.735  0.00  0.00    -0.036 A 
ENDBRANCH  26  33
ENDBRANCH   1  26
TORSDOF 4
