REMARK  Name = CHEMBL186363
REMARK  4 active torsions:
REMARK  status: ('A' for Active; 'I' for Inactive)
REMARK    1  A    between atoms: C_1  and  C_2
REMARK    2  A    between atoms: C_7  and  N_8
REMARK    3  A    between atoms: C_9  and  C_11
REMARK    4  A    between atoms: N_16  and  C_17
REMARK                            x       y       z     vdW  Elec       q    Type
REMARK                         _______ _______ _______ _____ _____    ______ ____
ROOT
ATOM      1  C   UNL     1      -0.435   0.105   4.803  0.00  0.00    +0.095 A 
ATOM      2  C   UNL     1      -0.814  -0.328   6.066  0.00  0.00    +0.133 A 
ATOM      3  N   UNL     1      -0.827   0.577   7.012  0.00  0.00    -0.232 NA
ATOM      4  C   UNL     1      -0.496   1.833   6.769  0.00  0.00    +0.163 A 
ATOM      5  S   UNL     1      -0.120   1.832   5.128  0.00  0.00    -0.048 S 
ATOM      6  N   UNL     1      -0.461   2.893   7.652  0.00  0.00    -0.292 N 
ATOM      7  H   UNL     1      -0.281   3.789   7.327  0.00  0.00    +0.154 HD
ENDROOT
BRANCH   6   8
ATOM      8  C   UNL     1      -0.684   2.676   9.010  0.00  0.00    +0.054 A 
ATOM      9  C   UNL     1      -0.436   1.430   9.592  0.00  0.00    +0.046 A 
ATOM     10  C   UNL     1      -0.681   1.288  10.945  0.00  0.00    +0.137 A 
ATOM     11  N   UNL     1      -1.134   2.313  11.645  0.00  0.00    -0.158 NA
ATOM     12  N   UNL     1      -1.362   3.459  11.115  0.00  0.00    -0.156 NA
ATOM     13  C   UNL     1      -1.155   3.696   9.835  0.00  0.00    +0.158 A 
ENDBRANCH   6   8
BRANCH   1  15
ATOM     14  N   UNL     1       0.076  -0.023   2.426  0.00  0.00    -0.280 N 
ATOM     15  C   UNL     1      -0.321  -0.647   3.554  0.00  0.00    +0.256 C 
ATOM     16  O   UNL     1      -0.583  -1.835   3.532  0.00  0.00    -0.269 OA
ATOM     17  H   UNL     1       0.362   0.903   2.460  0.00  0.00    +0.155 HD
BRANCH  14  24
ATOM     18  C   UNL     1      -1.267   1.159   0.215  0.00  0.00    +0.046 C 
ATOM     19  C   UNL     1      -0.569  -0.171   0.104  0.00  0.00    -0.028 A 
ATOM     20  C   UNL     1      -0.563  -0.851  -1.099  0.00  0.00    +0.005 A 
ATOM     21  C   UNL     1       0.077  -2.072  -1.202  0.00  0.00    +0.002 A 
ATOM     22  C   UNL     1       0.715  -2.617  -0.102  0.00  0.00    +0.022 A 
ATOM     23  C   UNL     1       0.713  -1.943   1.104  0.00  0.00    +0.062 A 
ATOM     24  C   UNL     1       0.075  -0.712   1.209  0.00  0.00    +0.055 A 
ATOM     25 CL   UNL     1       1.513  -2.628   2.484  0.00  0.00    -0.082 Cl
ENDBRANCH  14  24
ENDBRANCH   1  15
TORSDOF 3
