REMARK  Name = CHEMBL365318
REMARK  9 active torsions:
REMARK  status: ('A' for Active; 'I' for Inactive)
REMARK    1  A    between atoms: C_1  and  C_2
REMARK    2  A    between atoms: C_5  and  C_7
REMARK    3  A    between atoms: C_11  and  C_12
REMARK    4  A    between atoms: C_12  and  C_13
REMARK    5  A    between atoms: C_12  and  C_14
REMARK    6  A    between atoms: N_19  and  C_20
REMARK    7  A    between atoms: C_22  and  C_28
REMARK    8  A    between atoms: N_30  and  O_31
REMARK    9  A    between atoms: O_31  and  C_32
REMARK                            x       y       z     vdW  Elec       q    Type
REMARK                         _______ _______ _______ _____ _____    ______ ____
ROOT
ATOM      1  C   UNL     1       0.117  -3.229   1.187  0.00  0.00    +0.062 A 
ATOM      2  C   UNL     1       0.571  -3.027   2.477  0.00  0.00    +0.126 A 
ATOM      3  N   UNL     1       0.779  -4.222   3.055  0.00  0.00    -0.234 N 
ATOM      4  C   UNL     1       0.464  -5.218   2.150  0.00  0.00    +0.109 A 
ATOM      5  C   UNL     1       0.044  -4.620   0.982  0.00  0.00    -0.002 A 
ATOM      6  C   UNL     1       0.611  -6.568   2.553  0.00  0.00    +0.151 A 
ATOM      7  N   UNL     1       1.043  -6.833   3.775  0.00  0.00    -0.217 NA
ATOM      8  C   UNL     1       1.342  -5.862   4.636  0.00  0.00    +0.245 A 
ATOM      9  N   UNL     1       1.229  -4.599   4.329  0.00  0.00    -0.155 NA
ATOM     10  N   UNL     1       0.308  -7.595   1.682  0.00  0.00    -0.295 N 
ATOM     11  H   UNL     1       0.081  -7.397   0.760  0.00  0.00    +0.154 HD
ENDROOT
BRANCH  10  12
ATOM     12  C   UNL     1       0.328  -8.922   2.129  0.00  0.00    +0.069 A 
ATOM     13  C   UNL     1       0.224  -9.197   3.481  0.00  0.00    +0.042 A 
ATOM     14  C   UNL     1       0.244 -10.522   3.924  0.00  0.00    +0.076 A 
ATOM     15  C   UNL     1       0.368 -11.562   2.997  0.00  0.00    +0.138 A 
ATOM     16  C   UNL     1       0.471 -11.277   1.648  0.00  0.00    +0.079 A 
ATOM     17  C   UNL     1       0.446  -9.963   1.212  0.00  0.00    +0.147 A 
ATOM     18  F   UNL     1       0.541  -9.691  -0.108  0.00  0.00    -0.203 F 
ATOM     19  F   UNL     1       0.388 -12.845   3.419  0.00  0.00    -0.205 F 
BRANCH  14  20
ATOM     20  C   UNL     1       0.134 -10.823   5.364  0.00  0.00    +0.270 C 
ATOM     21  O   UNL     1       0.152 -11.977   5.747  0.00  0.00    -0.268 OA
ATOM     22  N   UNL     1       0.015  -9.819   6.255  0.00  0.00    -0.191 N 
ATOM     23  H   UNL     1       0.001  -8.899   5.950  0.00  0.00    +0.183 HD
BRANCH  22  24
ATOM     24  O   UNL     1      -0.090 -10.108   7.638  0.00  0.00    -0.283 OA
ATOM     25  C   UNL     1      -0.211  -8.950   8.466  0.00  0.00    +0.226 C 
ENDBRANCH  22  24
ENDBRANCH  14  20
ENDBRANCH  10  12
BRANCH   1  30
ATOM     26  C   UNL     1      -0.670   1.204  -1.015  0.00  0.00    +0.111 C 
ATOM     27  C   UNL     1      -0.574  -0.275  -0.744  0.00  0.00    +0.215 A 
ATOM     28  N   UNL     1      -0.871  -1.231  -1.578  0.00  0.00    -0.112 NA
ATOM     29  N   UNL     1      -0.670  -2.371  -1.017  0.00  0.00    -0.107 NA
ATOM     30  C   UNL     1      -0.233  -2.180   0.206  0.00  0.00    +0.250 A 
ATOM     31  O   UNL     1      -0.159  -0.848   0.400  0.00  0.00    -0.420 OA
ENDBRANCH   1  30
BRANCH   5  32
ATOM     32  C   UNL     1      -0.403  -5.321  -0.276  0.00  0.00    +0.016 C 
ATOM     33  C   UNL     1      -1.840  -4.909  -0.605  0.00  0.00    +0.012 C 
ATOM     34  C   UNL     1       0.518  -4.929  -1.433  0.00  0.00    +0.012 C 
ENDBRANCH   5  32
TORSDOF 5
