REMARK  Name = CHEMBL460472
REMARK  12 active torsions:
REMARK  status: ('A' for Active; 'I' for Inactive)
REMARK    1  A    between atoms: C_1  and  C_2
REMARK    2  A    between atoms: C_3  and  C_19
REMARK    3  A    between atoms: N_6  and  C_13
REMARK    4  A    between atoms: N_7  and  C_8
REMARK    5  A    between atoms: C_8  and  C_9
REMARK    6  A    between atoms: C_9  and  C_10
REMARK    7  A    between atoms: C_9  and  C_11
REMARK    8  A    between atoms: C_9  and  O_12
REMARK    9  A    between atoms: C_25  and  O_28
REMARK   10  A    between atoms: O_28  and  C_29
REMARK   11  A    between atoms: C_37  and  O_39
REMARK   12  A    between atoms: O_39  and  C_40
REMARK                            x       y       z     vdW  Elec       q    Type
REMARK                         _______ _______ _______ _____ _____    ______ ____
ROOT
ATOM      1  C   UNL     1      -0.344  -0.892  -3.234  0.00  0.00    +0.256 C 
ATOM      2  O   UNL     1      -0.274   0.263  -3.609  0.00  0.00    -0.270 OA
ATOM      3  N   UNL     1      -0.393  -1.892  -4.137  0.00  0.00    -0.266 N 
ATOM      4  C   UNL     1      -0.321  -1.604  -5.500  0.00  0.00    +0.125 A 
ATOM      5  C   UNL     1      -0.610  -0.320  -5.948  0.00  0.00    +0.047 A 
ATOM      6  C   UNL     1      -0.535  -0.046  -7.302  0.00  0.00    +0.051 A 
ATOM      7  C   UNL     1      -0.170  -1.074  -8.168  0.00  0.00    +0.147 A 
ATOM      8  C   UNL     1       0.105  -2.329  -7.649  0.00  0.00    +0.159 A 
ATOM      9  N   UNL     1       0.029  -2.555  -6.352  0.00  0.00    -0.236 NA
ATOM     10  H   UNL     1      -0.479  -2.811  -3.839  0.00  0.00    +0.157 HD
ENDROOT
BRANCH   1  13
ATOM     11  C   UNL     1      -0.243   1.208  -0.902  0.00  0.00    +0.066 C 
ATOM     12  C   UNL     1      -0.332  -0.290  -0.759  0.00  0.00    +0.051 A 
ATOM     13  C   UNL     1      -0.375  -1.198  -1.799  0.00  0.00    +0.124 A 
ATOM     14  C   UNL     1      -0.458  -2.533  -1.185  0.00  0.00    +0.284 A 
ATOM     15  O   UNL     1      -0.514  -3.600  -1.767  0.00  0.00    -0.265 OA
ATOM     16  N   UNL     1      -0.459  -2.341   0.151  0.00  0.00    -0.216 N 
ATOM     17  N   UNL     1      -0.377  -0.968   0.403  0.00  0.00    -0.278 N 
BRANCH  16  18
ATOM     18  C   UNL     1      -0.526  -3.346   1.121  0.00  0.00    +0.067 A 
ATOM     19  C   UNL     1      -1.438  -3.247   2.164  0.00  0.00    +0.028 A 
ATOM     20  C   UNL     1      -1.502  -4.242   3.119  0.00  0.00    +0.002 A 
ATOM     21  C   UNL     1      -0.660  -5.336   3.038  0.00  0.00    +0.000 A 
ATOM     22  C   UNL     1       0.248  -5.438   2.001  0.00  0.00    +0.002 A 
ATOM     23  C   UNL     1       0.314  -4.449   1.039  0.00  0.00    +0.028 A 
ENDBRANCH  16  18
BRANCH  17  24
ATOM     24  C   UNL     1      -0.347  -0.358   1.735  0.00  0.00    +0.176 C 
BRANCH  24  25
ATOM     25  C   UNL     1       1.099  -0.282   2.229  0.00  0.00    +0.080 C 
ATOM     26  C   UNL     1       1.120   0.240   3.667  0.00  0.00    +0.043 C 
ATOM     27  C   UNL     1       1.728  -1.676   2.182  0.00  0.00    +0.043 C 
BRANCH  25  28
ATOM     28  O   UNL     1       1.843   0.605   1.390  0.00  0.00    -0.387 OA
ATOM     29  H   UNL     1       1.500   1.508   1.371  0.00  0.00    +0.210 HD
ENDBRANCH  25  28
ENDBRANCH  24  25
ENDBRANCH  17  24
ENDBRANCH   1  13
BRANCH   7  30
ATOM     30  O   UNL     1      -0.084  -0.848  -9.506  0.00  0.00    -0.454 OA
BRANCH  30  31
ATOM     31  C   UNL     1       1.003  -0.184  -9.971  0.00  0.00    +0.139 A 
ATOM     32  C   UNL     1       2.050   0.148  -9.129  0.00  0.00    +0.064 A 
ATOM     33  C   UNL     1       3.151   0.828  -9.634  0.00  0.00    +0.086 A 
ATOM     34  N   UNL     1       3.232   1.171 -10.898  0.00  0.00    -0.360 N 
ATOM     35  C   UNL     1       2.257   0.882 -11.767  0.00  0.00    +0.053 A 
ATOM     36  C   UNL     1       1.104   0.184 -11.331  0.00  0.00    +0.041 A 
ATOM     37  C   UNL     1       0.085  -0.122 -12.246  0.00  0.00    +0.017 A 
ATOM     38  C   UNL     1       0.212   0.247 -13.549  0.00  0.00    +0.046 A 
ATOM     39  C   UNL     1       1.349   0.930 -13.992  0.00  0.00    +0.122 A 
ATOM     40  C   UNL     1       2.359   1.257 -13.117  0.00  0.00    +0.072 A 
ATOM     41  H   UNL     1       4.018   1.645 -11.210  0.00  0.00    +0.165 HD
BRANCH  39  42
ATOM     42  O   UNL     1       1.451   1.287 -15.299  0.00  0.00    -0.495 OA
ATOM     43  C   UNL     1       0.363   0.932 -16.155  0.00  0.00    +0.277 C 
ENDBRANCH  39  42
ENDBRANCH  30  31
ENDBRANCH   7  30
TORSDOF 8
