REMARK  Name = CHEMBL1084452
REMARK  8 active torsions:
REMARK  status: ('A' for Active; 'I' for Inactive)
REMARK    1  A    between atoms: C_1  and  N_2
REMARK    2  A    between atoms: C_6  and  C_7
REMARK    3  A    between atoms: C_7  and  C_8
REMARK    4  A    between atoms: C_8  and  N_9
REMARK    5  A    between atoms: C_14  and  C_16
REMARK    6  A    between atoms: C_21  and  O_22
REMARK    7  A    between atoms: O_22  and  C_23
REMARK    8  A    between atoms: C_26  and  N_33
REMARK                            x       y       z     vdW  Elec       q    Type
REMARK                         _______ _______ _______ _____ _____    ______ ____
ROOT
ATOM      1  C   UNL     1       4.725   6.822   2.425  0.00  0.00    +0.062 A 
ATOM      2  C   UNL     1       5.533   7.817   1.868  0.00  0.00    +0.017 A 
ATOM      3  C   UNL     1       5.984   8.835   2.691  0.00  0.00    +0.021 A 
ATOM      4  C   UNL     1       5.626   8.838   4.027  0.00  0.00    +0.114 A 
ATOM      5  N   UNL     1       4.862   7.888   4.530  0.00  0.00    -0.220 NA
ATOM      6  C   UNL     1       4.402   6.897   3.785  0.00  0.00    +0.230 A 
ENDROOT
BRANCH   1  12
ATOM      7  N   UNL     1       2.182   2.806   1.956  0.00  0.00    -0.314 N 
ATOM      8  C   UNL     1       2.985   3.772   1.374  0.00  0.00    +0.216 A 
ATOM      9  N   UNL     1       3.276   3.678   0.084  0.00  0.00    -0.223 NA
ATOM     10  C   UNL     1       4.040   4.581  -0.510  0.00  0.00    +0.116 A 
ATOM     11  C   UNL     1       4.540   5.637   0.231  0.00  0.00    +0.048 A 
ATOM     12  C   UNL     1       4.215   5.711   1.589  0.00  0.00    +0.081 A 
ATOM     13  N   UNL     1       3.437   4.768   2.118  0.00  0.00    -0.214 NA
ATOM     14  H   UNL     1       1.958   2.865   2.898  0.00  0.00    +0.149 HD
BRANCH   7  15
ATOM     15  C   UNL     1       1.671   1.695   1.149  0.00  0.00    +0.103 C 
BRANCH  15  16
ATOM     16  C   UNL     1       0.818   0.778   2.028  0.00  0.00    +0.003 C 
BRANCH  16  22
ATOM     17  C   UNL     1      -0.672  -0.705   3.364  0.00  0.00    -0.096 C 
ATOM     18  N   UNL     1      -0.477  -1.313   2.041  0.00  0.00    +0.380 N 
ATOM     19  C   UNL     1       0.182  -2.628   2.191  0.00  0.00    -0.079 C 
ATOM     20  C   UNL     1       1.125  -2.740   0.967  0.00  0.00    -0.020 C 
ATOM     21  C   UNL     1       1.624  -1.278   0.822  0.00  0.00    -0.017 C 
ATOM     22  C   UNL     1       0.386  -0.447   1.218  0.00  0.00    -0.068 C 
ATOM     23  H   UNL     1      -1.371  -1.433   1.587  0.00  0.00    -0.082 HD
ENDBRANCH  16  22
ENDBRANCH  15  16
ENDBRANCH   7  15
ENDBRANCH   1  12
BRANCH   6  24
ATOM     24  O   UNL     1       3.615   5.945   4.343  0.00  0.00    -0.437 OA
BRANCH  24  25
ATOM     25  C   UNL     1       3.409   5.994   5.686  0.00  0.00    +0.138 A 
ATOM     26  C   UNL     1       4.230   5.291   6.537  0.00  0.00    +0.049 A 
ATOM     27  C   UNL     1       4.033   5.331   7.914  0.00  0.00    +0.027 A 
ATOM     28  C   UNL     1       3.010   6.075   8.459  0.00  0.00    +0.041 A 
ATOM     29  C   UNL     1       2.151   6.807   7.613  0.00  0.00    +0.007 A 
ATOM     30  C   UNL     1       2.356   6.769   6.212  0.00  0.00    +0.026 A 
ATOM     31  C   UNL     1       1.503   7.503   5.371  0.00  0.00    +0.012 A 
ATOM     32  C   UNL     1       0.495   8.241   5.911  0.00  0.00    +0.001 A 
ATOM     33  C   UNL     1       0.296   8.282   7.290  0.00  0.00    +0.001 A 
ATOM     34  C   UNL     1       1.098   7.576   8.134  0.00  0.00    +0.010 A 
BRANCH  28  35
ATOM     35  N   UNL     1       2.824   6.105   9.844  0.00  0.00    -0.285 N 
ATOM     36  C   UNL     1       3.762   5.534  10.679  0.00  0.00    +0.198 A 
ATOM     37  N   UNL     1       3.630   5.397  12.031  0.00  0.00    -0.326 N 
ATOM     38  H   UNL     1       2.871   5.678  12.566  0.00  0.00    +0.169 HD
ATOM     39  C   UNL     1       4.779   4.780  12.496  0.00  0.00    +0.067 A 
ATOM     40  C   UNL     1       5.218   4.384  13.750  0.00  0.00    +0.028 A 
ATOM     41  C   UNL     1       6.450   3.777  13.887  0.00  0.00    +0.002 A 
ATOM     42  C   UNL     1       7.253   3.560  12.777  0.00  0.00    +0.002 A 
ATOM     43  C   UNL     1       6.833   3.946  11.524  0.00  0.00    +0.030 A 
ATOM     44  C   UNL     1       5.588   4.561  11.369  0.00  0.00    +0.091 A 
ATOM     45  N   UNL     1       4.911   5.038  10.292  0.00  0.00    -0.214 NA
ATOM     46  H   UNL     1       2.034   6.527  10.218  0.00  0.00    +0.155 HD
ENDBRANCH  28  35
ENDBRANCH  24  25
ENDBRANCH   6  24
TORSDOF 7
