REMARK  Name = CHEMBL403522
REMARK  8 active torsions:
REMARK  status: ('A' for Active; 'I' for Inactive)
REMARK    1  A    between atoms: C_1  and  C_2
REMARK    2  A    between atoms: C_6  and  C_42
REMARK    3  A    between atoms: C_7  and  N_8
REMARK    4  A    between atoms: N_26  and  C_27
REMARK    5  A    between atoms: C_30  and  N_35
REMARK    6  A    between atoms: C_31  and  O_33
REMARK    7  A    between atoms: O_33  and  C_34
REMARK    8  A    between atoms: N_38  and  C_41
REMARK                            x       y       z     vdW  Elec       q    Type
REMARK                         _______ _______ _______ _____ _____    ______ ____
ROOT
ATOM      1  N   UNL     1       0.046   0.284   2.254  0.00  0.00    -0.245 N 
ATOM      2  C   UNL     1       1.208   0.439   2.921  0.00  0.00    +0.271 A 
ATOM      3  O   UNL     1       2.250   0.015   2.460  0.00  0.00    -0.266 OA
ATOM      4  C   UNL     1       1.188   1.131   4.216  0.00  0.00    +0.101 A 
ATOM      5  C   UNL     1       2.345   1.333   4.969  0.00  0.00    +0.131 A 
ATOM      6  N   UNL     1       2.240   1.966   6.125  0.00  0.00    -0.222 NA
ATOM      7  C   UNL     1       1.065   2.402   6.565  0.00  0.00    +0.221 A 
ATOM      8  N   UNL     1      -0.059   2.231   5.881  0.00  0.00    -0.196 NA
ATOM      9  C   UNL     1      -0.042   1.607   4.714  0.00  0.00    +0.158 A 
ATOM     10  N   UNL     1      -1.192   1.410   3.973  0.00  0.00    -0.261 N 
ATOM     11  C   UNL     1      -1.146   0.766   2.766  0.00  0.00    +0.225 A 
ATOM     12  N   UNL     1      -2.358   0.710   2.257  0.00  0.00    -0.211 NA
ATOM     13  C   UNL     1      -3.240   1.312   3.094  0.00  0.00    +0.092 A 
ATOM     14  C   UNL     1      -2.513   1.762   4.208  0.00  0.00    +0.077 A 
ATOM     15  C   UNL     1      -3.163   2.422   5.239  0.00  0.00    +0.028 A 
ATOM     16  C   UNL     1      -4.527   2.622   5.174  0.00  0.00    +0.002 A 
ATOM     17  C   UNL     1      -5.253   2.166   4.084  0.00  0.00    +0.002 A 
ATOM     18  C   UNL     1      -4.620   1.528   3.041  0.00  0.00    +0.030 A 
ATOM     19  N   UNL     1       1.011   3.057   7.779  0.00  0.00    -0.283 N 
ATOM     20  H   UNL     1       0.154   3.310   8.156  0.00  0.00    +0.155 HD
ENDROOT
BRANCH   1  27
ATOM     21  C   UNL     1       0.434   1.841  -0.096  0.00  0.00    +0.046 C 
ATOM     22  C   UNL     1       0.232   0.349  -0.154  0.00  0.00    -0.026 A 
ATOM     23  C   UNL     1       0.238  -0.303  -1.371  0.00  0.00    +0.005 A 
ATOM     24  C   UNL     1       0.053  -1.672  -1.425  0.00  0.00    +0.001 A 
ATOM     25  C   UNL     1      -0.138  -2.393  -0.261  0.00  0.00    +0.005 A 
ATOM     26  C   UNL     1      -0.145  -1.747   0.960  0.00  0.00    -0.026 A 
ATOM     27  C   UNL     1       0.047  -0.373   1.018  0.00  0.00    +0.059 A 
ATOM     28  C   UNL     1      -0.353  -2.534   2.228  0.00  0.00    +0.046 C 
ENDBRANCH   1  27
BRANCH  19  29
ATOM     29  C   UNL     1       2.194   3.355   8.467  0.00  0.00    +0.037 A 
ATOM     30  C   UNL     1       3.348   3.668   7.761  0.00  0.00    +0.025 A 
ATOM     31  C   UNL     1       4.516   3.963   8.437  0.00  0.00    +0.028 A 
ATOM     32  C   UNL     1       4.539   3.946   9.824  0.00  0.00    +0.072 A 
ATOM     33  C   UNL     1       3.383   3.632  10.535  0.00  0.00    +0.143 A 
ATOM     34  C   UNL     1       2.211   3.343   9.856  0.00  0.00    +0.070 A 
BRANCH  32  35
ATOM     35  N   UNL     1       5.725   4.245  10.510  0.00  0.00    -0.331 N 
ATOM     36  C   UNL     1       6.686   3.186  10.854  0.00  0.00    +0.086 C 
ATOM     37  C   UNL     1       8.079   3.624  10.389  0.00  0.00    -0.060 C 
ATOM     38  N   UNL     1       8.394   4.939  10.962  0.00  0.00    +0.380 N 
ATOM     39  C   UNL     1       7.466   5.949  10.437  0.00  0.00    -0.060 C 
ATOM     40  C   UNL     1       6.046   5.626  10.900  0.00  0.00    +0.086 C 
ATOM     41  C   UNL     1       9.770   5.309  10.606  0.00  0.00    -0.096 C 
ATOM     42  H   UNL     1       8.309   4.896  11.967  0.00  0.00    -0.082 HD
ENDBRANCH  32  35
BRANCH  33  43
ATOM     43  O   UNL     1       3.403   3.615  11.895  0.00  0.00    -0.493 OA
ATOM     44  C   UNL     1       2.181   3.285  12.558  0.00  0.00    +0.277 C 
ENDBRANCH  33  43
ENDBRANCH  19  29
TORSDOF 4
