REMARK  Name = CHEMBL567124
REMARK  11 active torsions:
REMARK  status: ('A' for Active; 'I' for Inactive)
REMARK    1  A    between atoms: C_1  and  C_2
REMARK    2  A    between atoms: C_11  and  N_12
REMARK    3  A    between atoms: N_12  and  C_13
REMARK    4  A    between atoms: C_14  and  C_21
REMARK    5  A    between atoms: C_18  and  C_19
REMARK    6  A    between atoms: C_22  and  C_23
REMARK    7  A    between atoms: C_27  and  O_29
REMARK    8  A    between atoms: O_29  and  C_30
REMARK    9  A    between atoms: C_30  and  C_31
REMARK   10  A    between atoms: C_31  and  N_32
REMARK   11  A    between atoms: N_35  and  C_38
REMARK                            x       y       z     vdW  Elec       q    Type
REMARK                         _______ _______ _______ _____ _____    ______ ____
ROOT
ATOM      1  C   UNL     1      -0.256  -1.527   4.856  0.00  0.00    +0.059 A 
ATOM      2  C   UNL     1      -0.632  -0.717   5.945  0.00  0.00    +0.016 A 
ATOM      3  C   UNL     1      -0.651  -1.273   7.224  0.00  0.00    +0.120 A 
ATOM      4  N   UNL     1      -0.324  -2.535   7.420  0.00  0.00    -0.261 NA
ATOM      5  C   UNL     1       0.034  -3.332   6.433  0.00  0.00    +0.131 A 
ATOM      6  C   UNL     1       0.079  -2.869   5.117  0.00  0.00    +0.091 A 
ENDROOT
BRANCH   1   7
ATOM      7  N   UNL     1      -0.222  -1.021   3.569  0.00  0.00    -0.313 N 
ATOM      8  H   UNL     1       0.575  -0.575   3.244  0.00  0.00    +0.152 HD
BRANCH   7  19
ATOM      9  C   UNL     1      -0.166   0.273   1.042  0.00  0.00    +0.046 C 
ATOM     10  C   UNL     1      -1.351  -0.539   1.497  0.00  0.00    -0.020 A 
ATOM     11  C   UNL     1      -2.466  -0.681   0.668  0.00  0.00    +0.004 A 
ATOM     12  C   UNL     1      -2.808  -0.187  -0.668  0.00  0.00    +0.028 A 
ATOM     13  C   UNL     1      -4.034  -0.652  -0.957  0.00  0.00    +0.083 A 
ATOM     14  N   UNL     1      -4.505  -1.402   0.085  0.00  0.00    -0.361 N 
ATOM     15  H   UNL     1      -5.369  -1.843   0.108  0.00  0.00    +0.165 HD
ATOM     16  C   UNL     1      -3.569  -1.440   1.096  0.00  0.00    +0.047 A 
ATOM     17  C   UNL     1      -3.540  -2.047   2.348  0.00  0.00    +0.028 A 
ATOM     18  C   UNL     1      -2.437  -1.901   3.159  0.00  0.00    +0.025 A 
ATOM     19  C   UNL     1      -1.339  -1.154   2.735  0.00  0.00    +0.035 A 
ENDBRANCH   7  19
ENDBRANCH   1   7
BRANCH   6  20
ATOM     20  C   UNL     1       0.463  -3.744   4.050  0.00  0.00    +0.103 C 
ATOM     21  N   UNL     1       0.768  -4.439   3.204  0.00  0.00    -0.191 NA
ENDBRANCH   6  20
BRANCH   2  22
ATOM     22  C   UNL     1      -0.998   0.695   5.737  0.00  0.00    +0.012 C 
ATOM     23  C   UNL     1      -1.355   1.457   6.784  0.00  0.00    +0.009 C 
BRANCH  23  24
ATOM     24  C   UNL     1      -1.721   2.869   6.575  0.00  0.00    -0.022 A 
ATOM     25  C   UNL     1      -1.704   3.417   5.289  0.00  0.00    +0.008 A 
ATOM     26  C   UNL     1      -2.048   4.739   5.099  0.00  0.00    +0.004 A 
ATOM     27  C   UNL     1      -2.410   5.526   6.177  0.00  0.00    +0.045 A 
ATOM     28  C   UNL     1      -2.429   4.992   7.458  0.00  0.00    +0.121 A 
ATOM     29  C   UNL     1      -2.092   3.665   7.662  0.00  0.00    +0.053 A 
BRANCH  28  30
ATOM     30  O   UNL     1      -2.785   5.772   8.513  0.00  0.00    -0.491 OA
BRANCH  30  31
ATOM     31  C   UNL     1      -3.126   7.130   8.230  0.00  0.00    +0.244 C 
BRANCH  31  32
ATOM     32  C   UNL     1      -3.496   7.845   9.531  0.00  0.00    +0.125 C 
BRANCH  32  33
ATOM     33  N   UNL     1      -2.325   7.887  10.417  0.00  0.00    -0.303 NA
ATOM     34  C   UNL     1      -2.722   8.171  11.803  0.00  0.00    +0.066 C 
ATOM     35  C   UNL     1      -1.483   8.147  12.701  0.00  0.00    -0.064 C 
ATOM     36  N   UNL     1      -0.520   9.153  12.234  0.00  0.00    +0.379 N 
ATOM     37  C   UNL     1      -0.114   8.842  10.857  0.00  0.00    -0.064 C 
ATOM     38  C   UNL     1      -1.341   8.872   9.944  0.00  0.00    +0.066 C 
ATOM     39  C   UNL     1       0.661   9.143  13.107  0.00  0.00    -0.096 C 
ATOM     40  H   UNL     1      -0.949  10.066  12.260  0.00  0.00    -0.082 HD
ENDBRANCH  32  33
ENDBRANCH  31  32
ENDBRANCH  30  31
ENDBRANCH  28  30
ENDBRANCH  23  24
ENDBRANCH   2  22
TORSDOF 9
