REMARK  Name = CHEMBL569240
REMARK  5 active torsions:
REMARK  status: ('A' for Active; 'I' for Inactive)
REMARK    1  A    between atoms: C_1  and  C_2
REMARK    2  A    between atoms: C_2  and  C_4
REMARK    3  A    between atoms: C_2  and  N_10
REMARK    4  A    between atoms: C_15  and  N_17
REMARK    5  A    between atoms: C_23  and  N_26
REMARK                            x       y       z     vdW  Elec       q    Type
REMARK                         _______ _______ _______ _____ _____    ______ ____
ROOT
ATOM      1  N   UNL     1      -1.372  -0.511   0.012  0.00  0.00    -0.307 N 
ATOM      2  C   UNL     1      -2.069  -0.646  -1.176  0.00  0.00    +0.217 A 
ATOM      3  N   UNL     1      -1.476  -0.317  -2.314  0.00  0.00    -0.223 NA
ATOM      4  C   UNL     1      -2.110  -0.433  -3.470  0.00  0.00    +0.118 A 
ATOM      5  C   UNL     1      -3.410  -0.905  -3.484  0.00  0.00    +0.066 A 
ATOM      6  C   UNL     1      -4.008  -1.243  -2.270  0.00  0.00    +0.144 A 
ATOM      7  N   UNL     1      -3.311  -1.106  -1.147  0.00  0.00    -0.197 NA
ATOM      8  H   UNL     1      -1.794  -0.752   0.852  0.00  0.00    +0.149 HD
ENDROOT
BRANCH   6   9
ATOM      9  N   UNL     1      -5.315  -1.722  -2.236  0.00  0.00    -0.283 N 
ATOM     10  C   UNL     1      -6.135  -1.920  -3.311  0.00  0.00    +0.206 A 
ATOM     11  N   UNL     1      -7.286  -2.376  -2.915  0.00  0.00    -0.235 NA
ATOM     12  C   UNL     1      -7.290  -2.504  -1.562  0.00  0.00    +0.089 A 
ATOM     13  C   UNL     1      -6.025  -2.093  -1.107  0.00  0.00    +0.076 A 
ATOM     14  C   UNL     1      -5.734  -2.121   0.248  0.00  0.00    +0.051 A 
ATOM     15  C   UNL     1      -6.694  -2.560   1.146  0.00  0.00    +0.027 A 
ATOM     16  C   UNL     1      -7.946  -2.970   0.691  0.00  0.00    +0.025 A 
ATOM     17  C   UNL     1      -8.246  -2.938  -0.640  0.00  0.00    +0.031 A 
BRANCH  15  18
ATOM     18  N   UNL     1      -6.406  -2.591   2.514  0.00  0.00    -0.358 N 
ATOM     19  H   UNL     1      -5.535  -2.306   2.832  0.00  0.00    +0.142 HD
ATOM     20  H   UNL     1      -7.076  -2.898   3.144  0.00  0.00    +0.142 HD
ENDBRANCH  15  18
ENDBRANCH   6   9
BRANCH   1  22
ATOM     21  C   UNL     1      -0.019   1.526   0.010  0.00  0.00    +0.033 C 
ATOM     22  C   UNL     1       0.002  -0.004   0.002  0.00  0.00    +0.100 C 
BRANCH  22  23
ATOM     23  C   UNL     1       0.731  -0.503   1.223  0.00  0.00    -0.027 A 
ATOM     24  C   UNL     1       0.081  -0.558   2.442  0.00  0.00    +0.005 A 
ATOM     25  C   UNL     1       0.749  -1.016   3.562  0.00  0.00    +0.000 A 
ATOM     26  C   UNL     1       2.068  -1.420   3.463  0.00  0.00    +0.000 A 
ATOM     27  C   UNL     1       2.718  -1.365   2.244  0.00  0.00    +0.000 A 
ATOM     28  C   UNL     1       2.048  -0.911   1.123  0.00  0.00    +0.005 A 
ENDBRANCH  22  23
ENDBRANCH   1  22
TORSDOF 4
