REMARK  Name = CHEMBL592262
REMARK  9 active torsions:
REMARK  status: ('A' for Active; 'I' for Inactive)
REMARK    1  A    between atoms: C_1  and  N_2
REMARK    2  A    between atoms: N_5  and  C_8
REMARK    3  A    between atoms: C_8  and  C_9
REMARK    4  A    between atoms: C_9  and  O_10
REMARK    5  A    between atoms: O_10  and  C_11
REMARK    6  A    between atoms: C_19  and  C_38
REMARK    7  A    between atoms: C_20  and  C_25
REMARK    8  A    between atoms: C_28  and  O_31
REMARK    9  A    between atoms: O_31  and  C_32
REMARK                            x       y       z     vdW  Elec       q    Type
REMARK                         _______ _______ _______ _____ _____    ______ ____
ROOT
ATOM      1  C   UNL     1      -0.553  -4.610   4.980  0.00  0.00    +0.122 A 
ATOM      2  C   UNL     1       0.574  -5.364   5.280  0.00  0.00    +0.046 A 
ATOM      3  C   UNL     1       0.849  -5.699   6.582  0.00  0.00    +0.009 A 
ATOM      4  C   UNL     1       0.022  -5.298   7.644  0.00  0.00    -0.024 A 
ATOM      5  C   UNL     1      -1.086  -4.543   7.337  0.00  0.00    +0.039 A 
ATOM      6  C   UNL     1      -1.373  -4.200   6.013  0.00  0.00    +0.069 A 
ATOM      7  N   UNL     1      -1.976  -4.052   8.293  0.00  0.00    -0.299 N 
ATOM      8  C   UNL     1      -1.526  -3.533   9.487  0.00  0.00    +0.134 A 
ATOM      9  C   UNL     1      -1.662  -2.256  10.003  0.00  0.00    +0.104 A 
ATOM     10  C   UNL     1      -1.003  -2.296  11.319  0.00  0.00    +0.107 A 
ATOM     11  N   UNL     1      -0.543  -3.518  11.482  0.00  0.00    -0.169 NA
ATOM     12  N   UNL     1      -0.855  -4.277  10.347  0.00  0.00    -0.249 N 
ATOM     13  C   UNL     1      -0.492  -5.677  10.108  0.00  0.00    +0.150 C 
ATOM     14  C   UNL     1       0.516  -5.797   8.985  0.00  0.00    +0.060 C 
ATOM     15  H   UNL     1      -2.929  -4.077   8.113  0.00  0.00    +0.154 HD
ENDROOT
BRANCH  10  16
ATOM     16  C   UNL     1      -0.880  -1.173  12.278  0.00  0.00    +0.003 A 
ATOM     17  C   UNL     1      -0.719   0.131  11.810  0.00  0.00    +0.014 A 
ATOM     18  C   UNL     1      -0.605   1.173  12.705  0.00  0.00    +0.047 A 
ATOM     19  C   UNL     1      -0.650   0.926  14.071  0.00  0.00    +0.128 A 
ATOM     20  C   UNL     1      -0.809  -0.371  14.540  0.00  0.00    +0.047 A 
ATOM     21  C   UNL     1      -0.930  -1.417  13.650  0.00  0.00    +0.014 A 
BRANCH  19  22
ATOM     22  O   UNL     1      -0.537   1.956  14.950  0.00  0.00    -0.456 OA
BRANCH  22  23
ATOM     23  C   UNL     1       0.577   2.012  15.727  0.00  0.00    +0.128 A 
ATOM     24  C   UNL     1       1.615   1.116  15.519  0.00  0.00    +0.046 A 
ATOM     25  C   UNL     1       2.746   1.175  16.310  0.00  0.00    +0.004 A 
ATOM     26  C   UNL     1       2.843   2.127  17.309  0.00  0.00    +0.000 A 
ATOM     27  C   UNL     1       1.809   3.021  17.519  0.00  0.00    +0.004 A 
ATOM     28  C   UNL     1       0.679   2.970  16.726  0.00  0.00    +0.046 A 
ENDBRANCH  22  23
ENDBRANCH  19  22
ENDBRANCH  10  16
BRANCH   9  29
ATOM     29  C   UNL     1      -2.321  -1.107   9.374  0.00  0.00    +0.247 C 
ATOM     30  O   UNL     1      -3.507  -0.908   9.561  0.00  0.00    -0.270 OA
ATOM     31  N   UNL     1      -1.613  -0.271   8.588  0.00  0.00    -0.325 N 
ATOM     32  H   UNL     1      -0.668  -0.430   8.439  0.00  0.00    +0.145 HD
ATOM     33  H   UNL     1      -2.049   0.489   8.172  0.00  0.00    +0.145 HD
ENDBRANCH   9  29
BRANCH   1  34
ATOM     34  O   UNL     1      -0.840  -4.277   3.694  0.00  0.00    -0.491 OA
BRANCH  34  35
ATOM     35  C   UNL     1       0.061  -4.742   2.687  0.00  0.00    +0.244 C 
BRANCH  35  36
ATOM     36  C   UNL     1      -0.423  -4.272   1.314  0.00  0.00    +0.125 C 
BRANCH  36  41
ATOM     37  C   UNL     1       0.440   1.149   0.047  0.00  0.00    -0.096 C 
ATOM     38  N   UNL     1       0.403  -0.319   0.067  0.00  0.00    +0.379 N 
ATOM     39  C   UNL     1      -0.993  -0.774   0.040  0.00  0.00    -0.064 C 
ATOM     40  C   UNL     1      -1.031  -2.304   0.041  0.00  0.00    +0.066 C 
ATOM     41  N   UNL     1      -0.357  -2.806   1.247  0.00  0.00    -0.303 NA
ATOM     42  C   UNL     1       1.035  -2.338   1.300  0.00  0.00    +0.066 C 
ATOM     43  C   UNL     1       1.056  -0.808   1.288  0.00  0.00    -0.064 C 
ATOM     44  H   UNL     1       0.889  -0.678  -0.741  0.00  0.00    -0.082 HD
ENDBRANCH  36  41
ENDBRANCH  35  36
ENDBRANCH  34  35
ENDBRANCH   1  34
TORSDOF 8
