REMARK  Name = CHEMBL381203
REMARK  8 active torsions:
REMARK  status: ('A' for Active; 'I' for Inactive)
REMARK    1  A    between atoms: C_1  and  N_2
REMARK    2  A    between atoms: C_10  and  C_11
REMARK    3  A    between atoms: N_13  and  C_14
REMARK    4  A    between atoms: C_17  and  C_22
REMARK    5  A    between atoms: C_19  and  O_20
REMARK    6  A    between atoms: O_20  and  C_21
REMARK    7  A    between atoms: N_29  and  C_31
REMARK    8  A    between atoms: N_34  and  C_37
REMARK                            x       y       z     vdW  Elec       q    Type
REMARK                         _______ _______ _______ _____ _____    ______ ____
ROOT
ATOM      1  C   UNL     1      -0.525   3.364   7.947  0.00  0.00    +0.105 A 
ATOM      2  C   UNL     1      -0.742   2.544   9.138  0.00  0.00    +0.086 A 
ATOM      3  C   UNL     1      -1.098   1.205   9.371  0.00  0.00    +0.131 A 
ATOM      4  N   UNL     1      -1.208   0.791  10.630  0.00  0.00    -0.220 NA
ATOM      5  C   UNL     1      -0.988   1.614  11.640  0.00  0.00    +0.225 A 
ATOM      6  N   UNL     1      -0.653   2.874  11.470  0.00  0.00    -0.216 NA
ATOM      7  C   UNL     1      -0.518   3.383  10.245  0.00  0.00    +0.164 A 
ATOM      8  N   UNL     1      -0.191   4.611   9.752  0.00  0.00    -0.243 N 
ATOM      9  N   UNL     1      -0.199   4.568   8.354  0.00  0.00    -0.168 NA
ATOM     10  N   UNL     1      -1.330   0.340   8.319  0.00  0.00    -0.342 N 
ATOM     11  H   UNL     1      -1.027   0.570   7.427  0.00  0.00    +0.144 HD
ATOM     12  H   UNL     1      -1.795  -0.497   8.473  0.00  0.00    +0.144 HD
ENDROOT
BRANCH   8  13
ATOM     13  C   UNL     1       0.123   5.791  10.561  0.00  0.00    +0.106 C 
ATOM     14  C   UNL     1      -0.867   6.913  10.235  0.00  0.00    +0.008 C 
ATOM     15  C   UNL     1      -0.485   8.168  11.023  0.00  0.00    -0.076 C 
ATOM     16  N   UNL     1       0.872   8.588  10.654  0.00  0.00    +0.382 N 
ATOM     17  C   UNL     1       1.835   7.546  11.030  0.00  0.00    -0.076 C 
ATOM     18  C   UNL     1       1.542   6.268  10.242  0.00  0.00    +0.008 C 
ATOM     19  H   UNL     1       0.916   8.742   9.658  0.00  0.00    -0.081 HD
BRANCH  16  20
ATOM     20  C   UNL     1       1.204   9.836  11.355  0.00  0.00    -0.064 C 
ATOM     21  C   UNL     1       0.212  10.931  10.950  0.00  0.00    +0.013 C 
ATOM     22  C   UNL     1       0.613  12.246  11.623  0.00  0.00    +0.158 C 
ATOM     23  O   UNL     1       1.951  12.582  11.249  0.00  0.00    -0.380 OA
ATOM     24  C   UNL     1       2.928  11.617  11.645  0.00  0.00    +0.158 C 
ATOM     25  C   UNL     1       2.620  10.277  10.972  0.00  0.00    +0.013 C 
ENDBRANCH  16  20
ENDBRANCH   8  13
BRANCH   1  29
ATOM     26  C   UNL     1      -0.874   2.075   3.905  0.00  0.00    +0.076 A 
ATOM     27  C   UNL     1      -1.856   1.742   4.828  0.00  0.00    +0.027 A 
ATOM     28  C   UNL     1      -1.744   2.158   6.138  0.00  0.00    +0.012 A 
ATOM     29  C   UNL     1      -0.644   2.916   6.539  0.00  0.00    +0.006 A 
ATOM     30  C   UNL     1       0.343   3.251   5.613  0.00  0.00    +0.057 A 
ATOM     31  C   UNL     1       0.231   2.827   4.302  0.00  0.00    +0.142 A 
BRANCH  26  34
ATOM     32  C   UNL     1      -1.645   0.508   2.289  0.00  0.00    +0.265 C 
ATOM     33  O   UNL     1      -2.170  -0.133   3.180  0.00  0.00    -0.268 OA
ATOM     34  N   UNL     1      -0.990   1.651   2.577  0.00  0.00    -0.277 N 
ATOM     35  H   UNL     1      -0.599   2.179   1.863  0.00  0.00    +0.155 HD
BRANCH  32  45
ATOM     36  C   UNL     1      -3.245  -1.945   1.314  0.00  0.00    +0.149 C 
ATOM     37  N   UNL     1      -2.441  -1.061   0.466  0.00  0.00    -0.339 N 
ATOM     38  C   UNL     1      -2.282  -1.186  -0.894  0.00  0.00    +0.049 A 
ATOM     39  C   UNL     1      -2.772  -2.090  -1.832  0.00  0.00    +0.026 A 
ATOM     40  C   UNL     1      -2.429  -1.955  -3.159  0.00  0.00    +0.002 A 
ATOM     41  C   UNL     1      -1.596  -0.923  -3.573  0.00  0.00    +0.001 A 
ATOM     42  C   UNL     1      -1.103  -0.024  -2.672  0.00  0.00    +0.010 A 
ATOM     43  C   UNL     1      -1.438  -0.140  -1.317  0.00  0.00    +0.001 A 
ATOM     44  C   UNL     1      -1.101   0.610  -0.164  0.00  0.00    +0.041 A 
ATOM     45  C   UNL     1      -1.724   0.037   0.899  0.00  0.00    +0.105 A 
ENDBRANCH  32  45
ENDBRANCH  26  34
BRANCH  31  46
ATOM     46  O   UNL     1       1.196   3.148   3.398  0.00  0.00    -0.493 OA
ATOM     47  C   UNL     1       2.299   3.921   3.874  0.00  0.00    +0.277 C 
ENDBRANCH  31  46
ENDBRANCH   1  29
TORSDOF 6
