REMARK  Name = CHEMBL398422
REMARK  4 active torsions:
REMARK  status: ('A' for Active; 'I' for Inactive)
REMARK    1  A    between atoms: C_1  and  C_2
REMARK    2  A    between atoms: C_7  and  N_8
REMARK    3  A    between atoms: N_15  and  C_16
REMARK    4  A    between atoms: C_20  and  C_22
REMARK                            x       y       z     vdW  Elec       q    Type
REMARK                         _______ _______ _______ _____ _____    ______ ____
ROOT
ATOM      1  N   UNL     1      -0.697  -0.181   2.521  0.00  0.00    -0.299 N 
ATOM      2  C   UNL     1      -1.015   1.168   2.502  0.00  0.00    +0.128 A 
ATOM      3  C   UNL     1      -1.391   1.790   1.310  0.00  0.00    +0.063 A 
ATOM      4  C   UNL     1      -1.700   3.136   1.338  0.00  0.00    +0.118 A 
ATOM      5  N   UNL     1      -1.631   3.793   2.487  0.00  0.00    -0.223 NA
ATOM      6  C   UNL     1      -1.272   3.176   3.604  0.00  0.00    +0.221 A 
ATOM      7  N   UNL     1      -0.974   1.886   3.620  0.00  0.00    -0.199 NA
ATOM      8  N   UNL     1      -1.213   3.898   4.784  0.00  0.00    -0.284 N 
ATOM      9  H   UNL     1      -0.334  -0.583   3.326  0.00  0.00    +0.154 HD
ATOM     10  H   UNL     1      -0.874   3.481   5.591  0.00  0.00    +0.155 HD
ENDROOT
BRANCH   1  17
ATOM     11  C   UNL     1      -2.632  -2.247   2.643  0.00  0.00    +0.045 C 
ATOM     12  C   UNL     1      -1.831  -1.980   1.394  0.00  0.00    -0.029 A 
ATOM     13  C   UNL     1      -2.040  -2.756   0.262  0.00  0.00    +0.007 A 
ATOM     14  C   UNL     1      -1.319  -2.529  -0.888  0.00  0.00    +0.028 A 
ATOM     15  C   UNL     1      -0.368  -1.512  -0.925  0.00  0.00    +0.068 A 
ATOM     16  C   UNL     1      -0.149  -0.720   0.217  0.00  0.00    +0.041 A 
ATOM     17  C   UNL     1      -0.898  -0.962   1.383  0.00  0.00    +0.046 A 
ATOM     18  C   UNL     1       0.859   0.215  -0.117  0.00  0.00    +0.144 A 
ATOM     19  N   UNL     1       1.223   0.012  -1.351  0.00  0.00    -0.181 NA
ATOM     20  N   UNL     1       0.488  -1.050  -1.892  0.00  0.00    -0.277 N 
ATOM     21  H   UNL     1       0.570  -1.398  -2.793  0.00  0.00    +0.189 HD
ENDBRANCH   1  17
BRANCH   8  22
ATOM     22  C   UNL     1      -1.643   5.229   4.813  0.00  0.00    +0.034 A 
ATOM     23  C   UNL     1      -2.687   5.640   3.992  0.00  0.00    +0.023 A 
ATOM     24  C   UNL     1      -3.116   6.953   4.017  0.00  0.00    +0.003 A 
ATOM     25  C   UNL     1      -2.510   7.866   4.857  0.00  0.00    +0.013 A 
ATOM     26  C   UNL     1      -1.461   7.463   5.685  0.00  0.00    +0.038 A 
ATOM     27  C   UNL     1      -1.032   6.136   5.664  0.00  0.00    +0.036 A 
BRANCH  26  28
ATOM     28  C   UNL     1      -0.811   8.439   6.585  0.00  0.00    +0.242 C 
ATOM     29  O   UNL     1       0.103   8.087   7.306  0.00  0.00    -0.270 OA
ATOM     30  N   UNL     1      -1.231   9.720   6.608  0.00  0.00    -0.325 N 
ATOM     31  H   UNL     1      -1.960  10.001   6.033  0.00  0.00    +0.145 HD
ATOM     32  H   UNL     1      -0.804  10.360   7.198  0.00  0.00    +0.145 HD
ENDBRANCH  26  28
ENDBRANCH   8  22
TORSDOF 3
