REMARK  Name = CHEMBL247480
REMARK  8 active torsions:
REMARK  status: ('A' for Active; 'I' for Inactive)
REMARK    1  A    between atoms: C_4  and  C_7
REMARK    2  A    between atoms: C_15  and  C_16
REMARK    3  A    between atoms: C_19  and  O_22
REMARK    4  A    between atoms: O_22  and  C_23
REMARK    5  A    between atoms: C_23  and  C_24
REMARK    6  A    between atoms: C_24  and  N_25
REMARK    7  A    between atoms: N_30  and  C_31
REMARK    8  A    between atoms: C_31  and  C_32
REMARK                            x       y       z     vdW  Elec       q    Type
REMARK                         _______ _______ _______ _____ _____    ______ ____
ROOT
ATOM      1  C   UNL     1       3.675  -0.728  -0.009  0.00  0.00    +0.041 A 
ATOM      2  C   UNL     1       4.168  -1.642  -1.048  0.00  0.00    +0.088 A 
ATOM      3  C   UNL     1       3.647  -2.170  -2.237  0.00  0.00    +0.134 A 
ATOM      4  N   UNL     1       4.410  -2.999  -2.946  0.00  0.00    -0.220 NA
ATOM      5  C   UNL     1       5.625  -3.315  -2.541  0.00  0.00    +0.227 A 
ATOM      6  N   UNL     1       6.151  -2.841  -1.431  0.00  0.00    -0.200 NA
ATOM      7  C   UNL     1       5.466  -2.005  -0.654  0.00  0.00    +0.233 A 
ATOM      8  O   UNL     1       5.734  -1.377   0.503  0.00  0.00    -0.436 OA
ATOM      9  C   UNL     1       4.694  -0.616   0.898  0.00  0.00    +0.146 A 
ATOM     10  N   UNL     1       2.373  -1.839  -2.662  0.00  0.00    -0.326 N 
ATOM     11  H   UNL     1       1.827  -1.235  -2.136  0.00  0.00    +0.148 HD
ENDROOT
BRANCH   1  15
ATOM     12  C   UNL     1      -0.117   1.185   0.138  0.00  0.00    +0.000 A 
ATOM     13  C   UNL     1       1.028   1.938  -0.057  0.00  0.00    +0.001 A 
ATOM     14  C   UNL     1       2.262   1.323  -0.106  0.00  0.00    +0.008 A 
ATOM     15  C   UNL     1       2.354  -0.062   0.042  0.00  0.00    -0.014 A 
ATOM     16  C   UNL     1       1.197  -0.816   0.239  0.00  0.00    +0.008 A 
ATOM     17  C   UNL     1      -0.031  -0.189   0.285  0.00  0.00    +0.001 A 
ENDBRANCH   1  15
BRANCH   9  18
ATOM     18  C   UNL     1       4.658   0.209   2.120  0.00  0.00    +0.018 A 
ATOM     19  C   UNL     1       3.551   0.151   2.972  0.00  0.00    +0.015 A 
ATOM     20  C   UNL     1       3.523   0.922   4.114  0.00  0.00    +0.046 A 
ATOM     21  C   UNL     1       4.590   1.757   4.418  0.00  0.00    +0.120 A 
ATOM     22  C   UNL     1       5.692   1.818   3.574  0.00  0.00    +0.046 A 
ATOM     23  C   UNL     1       5.732   1.046   2.433  0.00  0.00    +0.015 A 
BRANCH  21  24
ATOM     24  O   UNL     1       4.557   2.517   5.544  0.00  0.00    -0.494 OA
BRANCH  24  25
ATOM     25  C   UNL     1       5.689   3.353   5.796  0.00  0.00    +0.210 C 
BRANCH  25  26
ATOM     26  C   UNL     1       5.471   4.126   7.098  0.00  0.00    -0.037 C 
BRANCH  26  27
ATOM     27  N   UNL     1       5.425   3.184   8.225  0.00  0.00    +0.382 N 
ATOM     28  C   UNL     1       6.764   2.582   8.444  0.00  0.00    -0.079 C 
ATOM     29  C   UNL     1       6.701   2.104   9.917  0.00  0.00    -0.020 C 
ATOM     30  C   UNL     1       5.887   3.222  10.608  0.00  0.00    -0.020 C 
ATOM     31  C   UNL     1       5.095   3.902   9.476  0.00  0.00    -0.079 C 
ATOM     32  H   UNL     1       4.742   2.463   8.048  0.00  0.00    -0.082 HD
ENDBRANCH  26  27
ENDBRANCH  25  26
ENDBRANCH  24  25
ENDBRANCH  21  24
ENDBRANCH   9  18
BRANCH  10  33
ATOM     33  C   UNL     1       1.847  -2.403  -3.909  0.00  0.00    +0.134 C 
BRANCH  33  34
ATOM     34  C   UNL     1       0.429  -1.880  -4.146  0.00  0.00    +0.135 C 
ATOM     35  C   UNL     1      -0.178  -2.561  -5.391  0.00  0.00    +0.035 C 
ATOM     36  C   UNL     1      -0.951  -1.393  -6.062  0.00  0.00    +0.031 C 
ATOM     37  C   UNL     1      -0.030  -0.195  -5.718  0.00  0.00    +0.160 C 
ATOM     38  O   UNL     1       0.466  -0.470  -4.396  0.00  0.00    -0.375 OA
ENDBRANCH  33  34
ENDBRANCH  10  33
TORSDOF 8
