REMARK  Name = CHEMBL463323
REMARK  6 active torsions:
REMARK  status: ('A' for Active; 'I' for Inactive)
REMARK    1  A    between atoms: C_1  and  N_2
REMARK    2  A    between atoms: C_7  and  C_9
REMARK    3  A    between atoms: C_14  and  O_15
REMARK    4  A    between atoms: O_15  and  C_16
REMARK    5  A    between atoms: C_19  and  N_26
REMARK    6  A    between atoms: C_32  and  C_37
REMARK                            x       y       z     vdW  Elec       q    Type
REMARK                         _______ _______ _______ _____ _____    ______ ____
ROOT
ATOM      1  C   UNL     1      -1.155  -5.101   0.669  0.00  0.00    +0.138 A 
ATOM      2  C   UNL     1      -1.101  -6.473   0.567  0.00  0.00    +0.049 A 
ATOM      3  C   UNL     1      -1.429  -7.283   1.649  0.00  0.00    +0.027 A 
ATOM      4  C   UNL     1      -1.817  -6.732   2.851  0.00  0.00    +0.041 A 
ATOM      5  C   UNL     1      -1.882  -5.330   2.988  0.00  0.00    +0.007 A 
ATOM      6  C   UNL     1      -1.542  -4.506   1.887  0.00  0.00    +0.026 A 
ATOM      7  C   UNL     1      -1.603  -3.110   2.026  0.00  0.00    +0.012 A 
ATOM      8  C   UNL     1      -1.981  -2.567   3.216  0.00  0.00    +0.001 A 
ATOM      9  C   UNL     1      -2.310  -3.377   4.301  0.00  0.00    +0.001 A 
ATOM     10  C   UNL     1      -2.272  -4.734   4.198  0.00  0.00    +0.010 A 
ENDROOT
BRANCH   4  11
ATOM     11  N   UNL     1      -2.144  -7.559   3.930  0.00  0.00    -0.285 N 
ATOM     12  C   UNL     1      -1.900  -8.915   3.858  0.00  0.00    +0.198 A 
ATOM     13  N   UNL     1      -2.291  -9.833   4.791  0.00  0.00    -0.326 N 
ATOM     14  H   UNL     1      -2.780  -9.650   5.609  0.00  0.00    +0.169 HD
ATOM     15  C   UNL     1      -1.858 -11.073   4.353  0.00  0.00    +0.068 A 
ATOM     16  C   UNL     1      -1.953 -12.360   4.862  0.00  0.00    +0.040 A 
ATOM     17  C   UNL     1      -1.402 -13.416   4.166  0.00  0.00    +0.057 A 
ATOM     18  C   UNL     1      -0.753 -13.200   2.960  0.00  0.00    +0.014 A 
ATOM     19  C   UNL     1      -0.649 -11.930   2.439  0.00  0.00    +0.030 A 
ATOM     20  C   UNL     1      -1.202 -10.849   3.131  0.00  0.00    +0.091 A 
ATOM     21  N   UNL     1      -1.265  -9.515   2.882  0.00  0.00    -0.214 NA
ATOM     22  H   UNL     1      -2.542  -7.179   4.729  0.00  0.00    +0.155 HD
BRANCH  17  23
ATOM     23  C   UNL     1      -1.507 -14.813   4.720  0.00  0.00    +0.417 C 
ATOM     24  F   UNL     1      -2.678 -15.416   4.249  0.00  0.00    -0.166 F 
ATOM     25  F   UNL     1      -0.399 -15.562   4.309  0.00  0.00    -0.166 F 
ATOM     26  F   UNL     1      -1.540 -14.759   6.118  0.00  0.00    -0.166 F 
ENDBRANCH  17  23
ENDBRANCH   4  11
BRANCH   1  27
ATOM     27  O   UNL     1      -0.831  -4.324  -0.398  0.00  0.00    -0.437 OA
BRANCH  27  33
ATOM     28  C   UNL     1       0.827  -3.085  -1.581  0.00  0.00    +0.062 A 
ATOM     29  C   UNL     1       2.121  -2.559  -1.615  0.00  0.00    +0.017 A 
ATOM     30  C   UNL     1       2.952  -2.785  -0.531  0.00  0.00    +0.021 A 
ATOM     31  C   UNL     1       2.482  -3.515   0.545  0.00  0.00    +0.114 A 
ATOM     32  N   UNL     1       1.256  -4.002   0.555  0.00  0.00    -0.220 NA
ATOM     33  C   UNL     1       0.422  -3.810  -0.453  0.00  0.00    +0.230 A 
BRANCH  28  40
ATOM     34  C   UNL     1      -4.381  -3.518  -4.732  0.00  0.00    +0.128 C 
ATOM     35  N   UNL     1      -3.447  -3.711  -3.620  0.00  0.00    -0.317 N 
ATOM     36  C   UNL     1      -2.170  -3.182  -3.690  0.00  0.00    +0.215 A 
ATOM     37  N   UNL     1      -1.812  -2.499  -4.768  0.00  0.00    -0.223 NA
ATOM     38  C   UNL     1      -0.600  -1.977  -4.873  0.00  0.00    +0.116 A 
ATOM     39  C   UNL     1       0.303  -2.149  -3.840  0.00  0.00    +0.048 A 
ATOM     40  C   UNL     1      -0.102  -2.873  -2.715  0.00  0.00    +0.081 A 
ATOM     41  N   UNL     1      -1.339  -3.366  -2.676  0.00  0.00    -0.214 NA
ATOM     42  H   UNL     1      -3.723  -4.209  -2.835  0.00  0.00    +0.149 HD
ENDBRANCH  28  40
ENDBRANCH  27  33
ENDBRANCH   1  27
TORSDOF 5
