REMARK  Name = CHEMBL477172
REMARK  5 active torsions:
REMARK  status: ('A' for Active; 'I' for Inactive)
REMARK    1  A    between atoms: C_1  and  C_2
REMARK    2  A    between atoms: C_7  and  N_8
REMARK    3  A    between atoms: C_20  and  N_24
REMARK    4  A    between atoms: C_27  and  C_31
REMARK    5  A    between atoms: C_31  and  N_32
REMARK                            x       y       z     vdW  Elec       q    Type
REMARK                         _______ _______ _______ _____ _____    ______ ____
ROOT
ATOM      1  N   UNL     1      -3.274   0.840   3.521  0.00  0.00    -0.285 N 
ATOM      2  C   UNL     1      -2.082   0.294   3.092  0.00  0.00    +0.184 A 
ATOM      3  N   UNL     1      -1.960  -0.845   2.458  0.00  0.00    -0.327 N 
ATOM      4  C   UNL     1      -0.650  -1.080   2.184  0.00  0.00    +0.066 A 
ATOM      5  C   UNL     1       0.024  -2.122   1.542  0.00  0.00    +0.028 A 
ATOM      6  C   UNL     1       1.394  -2.075   1.416  0.00  0.00    +0.002 A 
ATOM      7  C   UNL     1       2.111  -1.001   1.921  0.00  0.00    +0.002 A 
ATOM      8  C   UNL     1       1.461   0.036   2.558  0.00  0.00    +0.028 A 
ATOM      9  C   UNL     1       0.082   0.005   2.694  0.00  0.00    +0.074 A 
ATOM     10  N   UNL     1      -0.849   0.866   3.259  0.00  0.00    -0.266 N 
ATOM     11  C   UNL     1      -0.578   2.082   3.883  0.00  0.00    +0.145 A 
ATOM     12  C   UNL     1       0.124   3.077   3.213  0.00  0.00    +0.090 A 
ATOM     13  C   UNL     1       0.369   4.275   3.880  0.00  0.00    +0.129 A 
ATOM     14  N   UNL     1      -0.076   4.423   5.126  0.00  0.00    -0.220 NA
ATOM     15  C   UNL     1      -0.738   3.455   5.726  0.00  0.00    +0.225 A 
ATOM     16  N   UNL     1      -0.994   2.310   5.126  0.00  0.00    -0.218 NA
ATOM     17  H   UNL     1      -3.292   1.736   3.892  0.00  0.00    +0.155 HD
ATOM     18  H   UNL     1      -2.695  -1.433   2.220  0.00  0.00    +0.169 HD
ENDROOT
BRANCH   1  25
ATOM     19  C   UNL     1      -4.502  -0.062   5.924  0.00  0.00    +0.046 C 
ATOM     20  C   UNL     1      -5.090  -0.359   4.569  0.00  0.00    -0.028 A 
ATOM     21  C   UNL     1      -6.261  -1.083   4.467  0.00  0.00    +0.005 A 
ATOM     22  C   UNL     1      -6.802  -1.356   3.224  0.00  0.00    +0.002 A 
ATOM     23  C   UNL     1      -6.173  -0.905   2.079  0.00  0.00    +0.022 A 
ATOM     24  C   UNL     1      -5.001  -0.180   2.173  0.00  0.00    +0.062 A 
ATOM     25  C   UNL     1      -4.457   0.101   3.421  0.00  0.00    +0.055 A 
ATOM     26 CL   UNL     1      -4.211   0.387   0.734  0.00  0.00    -0.082 Cl
ENDBRANCH   1  25
BRANCH  13  27
ATOM     27  N   UNL     1       1.067   5.299   3.255  0.00  0.00    -0.284 N 
ATOM     28  C   UNL     1       1.453   6.422   3.981  0.00  0.00    +0.124 A 
ATOM     29  C   UNL     1       1.589   6.337   5.363  0.00  0.00    +0.048 A 
ATOM     30  C   UNL     1       1.973   7.460   6.072  0.00  0.00    -0.029 A 
ATOM     31  C   UNL     1       2.210   8.636   5.372  0.00  0.00    +0.025 A 
ATOM     32  C   UNL     1       2.055   8.650   4.001  0.00  0.00    +0.113 A 
ATOM     33  N   UNL     1       1.692   7.561   3.350  0.00  0.00    -0.240 NA
ATOM     34  H   UNL     1       1.285   5.232   2.312  0.00  0.00    +0.155 HD
BRANCH  30  35
ATOM     35  C   UNL     1       2.131   7.409   7.570  0.00  0.00    +0.119 C 
BRANCH  35  36
ATOM     36  N   UNL     1       3.540   7.163   7.905  0.00  0.00    -0.294 NA
ATOM     37  C   UNL     1       3.923   5.780   7.590  0.00  0.00    +0.113 C 
ATOM     38  C   UNL     1       5.410   5.584   7.898  0.00  0.00    +0.175 C 
ATOM     39  O   UNL     1       5.655   5.915   9.268  0.00  0.00    -0.377 OA
ATOM     40  C   UNL     1       5.294   7.256   9.610  0.00  0.00    +0.175 C 
ATOM     41  C   UNL     1       3.806   7.468   9.319  0.00  0.00    +0.113 C 
ENDBRANCH  35  36
ENDBRANCH  30  35
ENDBRANCH  13  27
TORSDOF 4
