REMARK  Name = CHEMBL247677
REMARK  7 active torsions:
REMARK  status: ('A' for Active; 'I' for Inactive)
REMARK    1  A    between atoms: C_1  and  N_2
REMARK    2  A    between atoms: N_5  and  C_8
REMARK    3  A    between atoms: C_8  and  C_9
REMARK    4  A    between atoms: C_12  and  C_15
REMARK    5  A    between atoms: C_16  and  C_32
REMARK    6  A    between atoms: N_24  and  C_25
REMARK    7  A    between atoms: C_25  and  C_26
REMARK                            x       y       z     vdW  Elec       q    Type
REMARK                         _______ _______ _______ _____ _____    ______ ____
ROOT
ATOM      1  C   UNL     1       1.677  -6.135   5.872  0.00  0.00    +0.146 A 
ATOM      2  C   UNL     1       0.985  -6.334   7.036  0.00  0.00    +0.041 A 
ATOM      3  C   UNL     1       1.980  -6.783   8.018  0.00  0.00    +0.088 A 
ATOM      4  C   UNL     1       1.948  -7.151   9.370  0.00  0.00    +0.134 A 
ATOM      5  N   UNL     1       3.088  -7.515   9.951  0.00  0.00    -0.220 NA
ATOM      6  C   UNL     1       4.221  -7.529   9.273  0.00  0.00    +0.227 A 
ATOM      7  N   UNL     1       4.294  -7.190   8.003  0.00  0.00    -0.200 NA
ATOM      8  C   UNL     1       3.207  -6.812   7.335  0.00  0.00    +0.233 A 
ATOM      9  O   UNL     1       2.979  -6.427   6.067  0.00  0.00    -0.436 OA
ATOM     10  N   UNL     1       0.762  -7.137  10.081  0.00  0.00    -0.326 N 
ATOM     11  H   UNL     1      -0.062  -6.869   9.645  0.00  0.00    +0.148 HD
ENDROOT
BRANCH   1  15
ATOM     12  C   UNL     1      -0.014  -4.818   2.209  0.00  0.00    -0.064 A 
ATOM     13  C   UNL     1      -0.326  -4.161   3.386  0.00  0.00    +0.002 A 
ATOM     14  C   UNL     1       0.220  -4.583   4.580  0.00  0.00    +0.012 A 
ATOM     15  C   UNL     1       1.089  -5.677   4.599  0.00  0.00    +0.018 A 
ATOM     16  C   UNL     1       1.399  -6.335   3.406  0.00  0.00    +0.012 A 
ATOM     17  C   UNL     1       0.841  -5.905   2.220  0.00  0.00    +0.002 A 
BRANCH  12  18
ATOM     18  C   UNL     1      -0.615  -4.350   0.908  0.00  0.00    -0.043 C 
BRANCH  18  23
ATOM     19  C   UNL     1      -5.996  -5.699  -0.075  0.00  0.00    +0.104 C 
ATOM     20  N   UNL     1      -4.698  -5.054   0.159  0.00  0.00    -0.309 NA
ATOM     21  C   UNL     1      -3.733  -5.417  -0.889  0.00  0.00    +0.065 C 
ATOM     22  C   UNL     1      -2.415  -4.679  -0.642  0.00  0.00    -0.063 C 
ATOM     23  N   UNL     1      -1.889  -5.044   0.679  0.00  0.00    +0.384 N 
ATOM     24  C   UNL     1      -2.853  -4.654   1.717  0.00  0.00    -0.063 C 
ATOM     25  C   UNL     1      -4.174  -5.391   1.490  0.00  0.00    +0.065 C 
ATOM     26  H   UNL     1      -1.740  -6.042   0.718  0.00  0.00    -0.081 HD
ENDBRANCH  18  23
ENDBRANCH  12  18
ENDBRANCH   1  15
BRANCH   2  27
ATOM     27  C   UNL     1      -0.465  -6.136   7.258  0.00  0.00    -0.014 A 
ATOM     28  C   UNL     1      -0.913  -5.115   8.096  0.00  0.00    +0.008 A 
ATOM     29  C   UNL     1      -2.266  -4.936   8.299  0.00  0.00    +0.001 A 
ATOM     30  C   UNL     1      -3.178  -5.768   7.674  0.00  0.00    +0.000 A 
ATOM     31  C   UNL     1      -2.740  -6.783   6.842  0.00  0.00    +0.001 A 
ATOM     32  C   UNL     1      -1.390  -6.968   6.626  0.00  0.00    +0.008 A 
ENDBRANCH   2  27
BRANCH  10  33
ATOM     33  C   UNL     1       0.750  -7.526  11.493  0.00  0.00    +0.134 C 
BRANCH  33  34
ATOM     34  C   UNL     1      -0.676  -7.422  12.039  0.00  0.00    +0.135 C 
ATOM     35  C   UNL     1      -0.679  -7.713  13.555  0.00  0.00    +0.035 C 
ATOM     36  C   UNL     1      -1.981  -8.542  13.729  0.00  0.00    +0.031 C 
ATOM     37  C   UNL     1      -2.014  -9.321  12.390  0.00  0.00    +0.160 C 
ATOM     38  O   UNL     1      -1.510  -8.400  11.407  0.00  0.00    -0.375 OA
ENDBRANCH  33  34
ENDBRANCH  10  33
TORSDOF 6
