REMARK  Name = CHEMBL416091
REMARK  11 active torsions:
REMARK  status: ('A' for Active; 'I' for Inactive)
REMARK    1  A    between atoms: C_1  and  N_2
REMARK    2  A    between atoms: N_5  and  C_8
REMARK    3  A    between atoms: C_11  and  N_14
REMARK    4  A    between atoms: C_17  and  C_19
REMARK    5  A    between atoms: C_19  and  C_20
REMARK    6  A    between atoms: C_23  and  N_28
REMARK    7  A    between atoms: C_24  and  O_26
REMARK    8  A    between atoms: O_26  and  C_27
REMARK    9  A    between atoms: C_29  and  C_31
REMARK   10  A    between atoms: C_34  and  C_36
REMARK   11  A    between atoms: C_42  and  N_46
REMARK                            x       y       z     vdW  Elec       q    Type
REMARK                         _______ _______ _______ _____ _____    ______ ____
ROOT
ATOM      1  N   UNL     1      -1.340  -8.020   2.529  0.00  0.00    -0.243 N 
ATOM      2  C   UNL     1      -1.860  -8.800   3.519  0.00  0.00    +0.164 A 
ATOM      3  C   UNL     1      -1.630 -10.137   3.139  0.00  0.00    +0.082 A 
ATOM      4  C   UNL     1      -0.961 -10.105   1.897  0.00  0.00    +0.080 A 
ATOM      5  N   UNL     1      -0.801  -8.861   1.546  0.00  0.00    -0.173 NA
ATOM      6  C   UNL     1      -2.075 -11.160   3.999  0.00  0.00    +0.130 A 
ATOM      7  N   UNL     1      -2.689 -10.816   5.125  0.00  0.00    -0.220 NA
ATOM      8  C   UNL     1      -2.882  -9.547   5.439  0.00  0.00    +0.225 A 
ATOM      9  N   UNL     1      -2.486  -8.558   4.670  0.00  0.00    -0.216 NA
ENDROOT
BRANCH   1  13
ATOM     10  C   UNL     1      -0.686  -4.031   1.165  0.00  0.00    +0.057 C 
ATOM     11  C   UNL     1      -2.124  -4.549   1.225  0.00  0.00    +0.021 C 
ATOM     12  C   UNL     1      -2.115  -6.079   1.260  0.00  0.00    +0.028 C 
ATOM     13  C   UNL     1      -1.349  -6.556   2.496  0.00  0.00    +0.110 C 
ATOM     14  C   UNL     1       0.089  -6.038   2.436  0.00  0.00    +0.028 C 
ATOM     15  C   UNL     1       0.080  -4.509   2.401  0.00  0.00    +0.021 C 
BRANCH  10  20
ATOM     16  C   UNL     1      -0.126   1.454   0.007  0.00  0.00    -0.096 C 
ATOM     17  N   UNL     1      -0.089  -0.014  -0.007  0.00  0.00    +0.379 N 
ATOM     18  C   UNL     1      -1.461  -0.538  -0.011  0.00  0.00    -0.064 C 
ATOM     19  C   UNL     1      -1.424  -2.067  -0.045  0.00  0.00    +0.066 C 
ATOM     20  N   UNL     1      -0.695  -2.563   1.132  0.00  0.00    -0.303 NA
ATOM     21  C   UNL     1       0.673  -2.027   1.162  0.00  0.00    +0.066 C 
ATOM     22  C   UNL     1       0.618  -0.498   1.186  0.00  0.00    -0.064 C 
ATOM     23  H   UNL     1       0.393  -0.330  -0.835  0.00  0.00    -0.082 HD
ENDBRANCH  10  20
ENDBRANCH   1  13
BRANCH   6  24
ATOM     24  N   UNL     1      -1.878 -12.489   3.678  0.00  0.00    -0.342 N 
ATOM     25  H   UNL     1      -1.494 -12.729   2.820  0.00  0.00    +0.144 HD
ATOM     26  H   UNL     1      -2.124 -13.182   4.310  0.00  0.00    +0.144 HD
ENDBRANCH   6  24
BRANCH   4  27
ATOM     27  C   UNL     1      -0.512 -11.307   1.107  0.00  0.00    +0.093 C 
BRANCH  27  28
ATOM     28  C   UNL     1       0.927 -11.615   1.435  0.00  0.00    -0.038 A 
ATOM     29  C   UNL     1       1.942 -11.033   0.699  0.00  0.00    +0.006 A 
ATOM     30  C   UNL     1       3.263 -11.312   0.995  0.00  0.00    +0.027 A 
ATOM     31  C   UNL     1       3.572 -12.178   2.034  0.00  0.00    +0.076 A 
ATOM     32  C   UNL     1       2.549 -12.764   2.776  0.00  0.00    +0.141 A 
ATOM     33  C   UNL     1       1.228 -12.474   2.476  0.00  0.00    +0.051 A 
BRANCH  31  34
ATOM     34  N   UNL     1       4.910 -12.463   2.336  0.00  0.00    -0.282 N 
ATOM     35  C   UNL     1       5.854 -11.513   2.178  0.00  0.00    +0.221 C 
ATOM     36  O   UNL     1       5.532 -10.384   1.875  0.00  0.00    -0.275 OA
ATOM     37  H   UNL     1       5.158 -13.344   2.658  0.00  0.00    +0.155 HD
BRANCH  35  38
ATOM     38  C   UNL     1       7.308 -11.855   2.379  0.00  0.00    +0.083 C 
ATOM     39  C   UNL     1       8.015 -11.250   3.593  0.00  0.00    +0.022 C 
ATOM     40  C   UNL     1       8.330 -10.733   2.187  0.00  0.00    +0.032 C 
BRANCH  40  41
ATOM     41  C   UNL     1       9.665 -11.102   1.594  0.00  0.00    -0.044 A 
ATOM     42  C   UNL     1      10.474 -12.024   2.231  0.00  0.00    +0.004 A 
ATOM     43  C   UNL     1      11.698 -12.363   1.687  0.00  0.00    +0.000 A 
ATOM     44  C   UNL     1      12.114 -11.779   0.505  0.00  0.00    +0.000 A 
ATOM     45  C   UNL     1      11.306 -10.857  -0.133  0.00  0.00    +0.000 A 
ATOM     46  C   UNL     1      10.079 -10.522   0.409  0.00  0.00    +0.004 A 
ENDBRANCH  40  41
ENDBRANCH  35  38
ENDBRANCH  31  34
BRANCH  32  47
ATOM     47  O   UNL     1       2.846 -13.613   3.795  0.00  0.00    -0.493 OA
ATOM     48  C   UNL     1       1.746 -14.176   4.512  0.00  0.00    +0.277 C 
ENDBRANCH  32  47
ENDBRANCH  27  28
ENDBRANCH   4  27
TORSDOF 9
