REMARK  Name = CHEMBL49860
REMARK  13 active torsions:
REMARK  status: ('A' for Active; 'I' for Inactive)
REMARK    1  A    between atoms: C_3  and  O_31
REMARK    2  A    between atoms: C_4  and  N_30
REMARK    3  A    between atoms: C_6  and  C_7
REMARK    4  A    between atoms: C_7  and  C_8
REMARK    5  A    between atoms: C_8  and  C_9
REMARK    6  A    between atoms: C_8  and  N_29
REMARK    7  A    between atoms: N_11  and  C_12
REMARK    8  A    between atoms: C_12  and  C_18
REMARK    9  A    between atoms: N_20  and  C_21
REMARK   10  A    between atoms: C_21  and  C_22
REMARK   11  A    between atoms: C_21  and  C_26
REMARK   12  A    between atoms: C_22  and  C_23
REMARK   13  A    between atoms: O_31  and  P_32
REMARK                            x       y       z     vdW  Elec       q    Type
REMARK                         _______ _______ _______ _____ _____    ______ ____
ROOT
ATOM      1  C   UNL     1      -3.129  -1.919  -1.216  0.00  0.00    +0.200 C 
ATOM      2  O   UNL     1      -3.328  -3.113  -1.298  0.00  0.00    -0.278 OA
ATOM      3  N   UNL     1      -4.169  -1.063  -1.177  0.00  0.00    -0.303 N 
ATOM      4  H   UNL     1      -4.013  -0.116  -1.043  0.00  0.00    +0.150 HD
ENDROOT
BRANCH   3   5
ATOM      5  C   UNL     1      -5.536  -1.565  -1.339  0.00  0.00    +0.110 C 
ATOM      6  C   UNL     1      -5.852  -2.557  -0.217  0.00  0.00    +0.035 C 
ATOM      7  C   UNL     1      -5.723  -1.854   1.136  0.00  0.00    +0.003 C 
ATOM      8  C   UNL     1      -6.706  -0.684   1.198  0.00  0.00    +0.000 C 
ATOM      9  C   UNL     1      -6.391   0.308   0.076  0.00  0.00    +0.003 C 
ATOM     10  C   UNL     1      -6.520  -0.395  -1.276  0.00  0.00    +0.035 C 
BRANCH   5  11
ATOM     11  C   UNL     1      -5.663  -2.257  -2.671  0.00  0.00    +0.237 C 
ATOM     12  O   UNL     1      -6.364  -3.241  -2.780  0.00  0.00    -0.273 OA
ATOM     13  N   UNL     1      -4.998  -1.783  -3.743  0.00  0.00    -0.302 N 
ATOM     14  H   UNL     1      -4.493  -0.958  -3.675  0.00  0.00    +0.150 HD
BRANCH  13  15
ATOM     15  C   UNL     1      -5.035  -2.515  -5.012  0.00  0.00    +0.167 C 
BRANCH  15  16
ATOM     16  C   UNL     1      -6.268  -2.120  -5.783  0.00  0.00    +0.231 C 
ATOM     17  O   UNL     1      -7.039  -1.307  -5.319  0.00  0.00    -0.274 OA
ATOM     18  N   UNL     1      -6.514  -2.670  -6.989  0.00  0.00    -0.328 N 
ATOM     19  H   UNL     1      -5.897  -3.320  -7.360  0.00  0.00    +0.145 HD
ATOM     20  H   UNL     1      -7.307  -2.415  -7.486  0.00  0.00    +0.145 HD
ENDBRANCH  15  16
BRANCH  15  21
ATOM     21  C   UNL     1      -3.789  -2.177  -5.833  0.00  0.00    +0.127 C 
BRANCH  21  22
ATOM     22  C   UNL     1      -2.564  -2.683  -5.117  0.00  0.00    +0.213 C 
ATOM     23  O   UNL     1      -2.675  -3.258  -4.055  0.00  0.00    -0.276 OA
ATOM     24  N   UNL     1      -1.343  -2.498  -5.657  0.00  0.00    -0.329 N 
ATOM     25  H   UNL     1      -1.254  -2.038  -6.507  0.00  0.00    +0.145 HD
ATOM     26  H   UNL     1      -0.554  -2.823  -5.197  0.00  0.00    +0.145 HD
ENDBRANCH  21  22
ENDBRANCH  15  21
ENDBRANCH  13  15
ENDBRANCH   5  11
ENDBRANCH   3   5
BRANCH   1  27
ATOM     27  C   UNL     1      -1.718  -1.393  -1.155  0.00  0.00    +0.017 C 
BRANCH  27  28
ATOM     28  N   UNL     1      -0.794  -2.406  -1.681  0.00  0.00    +0.386 N 
ATOM     29  H   UNL     1      -1.034  -2.616  -2.638  0.00  0.00    -0.089 HD
ATOM     30  H   UNL     1       0.150  -2.054  -1.641  0.00  0.00    -0.089 HD
ATOM     31  H   UNL     1      -0.864  -3.245  -1.125  0.00  0.00    -0.089 HD
ENDBRANCH  27  28
BRANCH  27  32
ATOM     32  C   UNL     1      -1.354  -1.074   0.296  0.00  0.00    +0.028 C 
BRANCH  32  38
ATOM     33  C   UNL     1       0.129   0.940   0.254  0.00  0.00    +0.007 A 
ATOM     34  C   UNL     1       1.378   1.534   0.297  0.00  0.00    +0.048 A 
ATOM     35  C   UNL     1       2.513   0.751   0.429  0.00  0.00    +0.153 A 
ATOM     36  C   UNL     1       2.393  -0.634   0.519  0.00  0.00    +0.068 A 
ATOM     37  C   UNL     1       1.138  -1.222   0.476  0.00  0.00    +0.030 A 
ATOM     38  C   UNL     1       0.010  -0.434   0.343  0.00  0.00    -0.047 A 
BRANCH  36  39
ATOM     39  N   UNL     1       3.537  -1.430   0.652  0.00  0.00    -0.355 N 
ATOM     40  H   UNL     1       4.414  -1.018   0.682  0.00  0.00    +0.142 HD
ATOM     41  H   UNL     1       3.452  -2.395   0.715  0.00  0.00    +0.142 HD
ENDBRANCH  36  39
BRANCH  35  42
ATOM     42  O   UNL     1       3.741   1.333   0.471  0.00  0.00    -0.399 OA
BRANCH  42  43
ATOM     43  P   UNL     1       4.076   2.057   1.869  0.00  0.00    +0.589 P 
ATOM     44  O   UNL     1       2.951   3.095   2.202  0.00  0.00    -0.211 OA
ATOM     45  O   UNL     1       4.150   0.984   3.008  0.00  0.00    -0.104 OA
ATOM     46  O   UNL     1       5.453   2.796   1.758  0.00  0.00    -0.104 OA
ENDBRANCH  42  43
ENDBRANCH  35  42
ENDBRANCH  32  38
ENDBRANCH  27  32
ENDBRANCH   1  27
TORSDOF 13
