REMARK  Name = CHEMBL186103
REMARK  3 active torsions:
REMARK  status: ('A' for Active; 'I' for Inactive)
REMARK    1  A    between atoms: C_1  and  C_2
REMARK    2  A    between atoms: C_7  and  N_8
REMARK    3  A    between atoms: C_20  and  N_22
REMARK                            x       y       z     vdW  Elec       q    Type
REMARK                         _______ _______ _______ _____ _____    ______ ____
ROOT
ATOM      1  N   UNL     1       0.038  -0.018   2.419  0.00  0.00    -0.296 N 
ATOM      2  C   UNL     1      -0.352  -0.661   3.580  0.00  0.00    +0.149 A 
ATOM      3  C   UNL     1      -0.448   0.082   4.835  0.00  0.00    +0.107 A 
ATOM      4  C   UNL     1      -0.228   1.389   5.194  0.00  0.00    +0.142 A 
ATOM      5  N   UNL     1      -0.480   1.494   6.501  0.00  0.00    -0.243 NA
ATOM      6  C   UNL     1      -0.844   0.330   6.978  0.00  0.00    +0.205 A 
ATOM      7  N   UNL     1      -0.840  -0.578   5.985  0.00  0.00    -0.278 N 
ATOM      8  C   UNL     1      -1.133  -1.932   5.915  0.00  0.00    +0.167 A 
ATOM      9  C   UNL     1      -1.026  -2.600   4.686  0.00  0.00    +0.109 A 
ATOM     10  N   UNL     1      -0.643  -1.944   3.559  0.00  0.00    -0.227 NA
ATOM     11  C   UNL     1      -1.326  -3.970   4.629  0.00  0.00    +0.035 A 
ATOM     12  C   UNL     1      -1.715  -4.606   5.790  0.00  0.00    +0.046 A 
ATOM     13  C   UNL     1      -1.798  -3.877   6.975  0.00  0.00    +0.124 A 
ATOM     14  N   UNL     1      -1.512  -2.586   7.003  0.00  0.00    -0.212 NA
ATOM     15  H   UNL     1       0.176   0.942   2.419  0.00  0.00    +0.154 HD
ENDROOT
BRANCH   1  22
ATOM     16  C   UNL     1       2.686  -0.241   1.401  0.00  0.00    +0.046 C 
ATOM     17  C   UNL     1       1.510  -0.886   0.714  0.00  0.00    -0.028 A 
ATOM     18  C   UNL     1       1.702  -1.616  -0.443  0.00  0.00    +0.005 A 
ATOM     19  C   UNL     1       0.624  -2.209  -1.075  0.00  0.00    +0.002 A 
ATOM     20  C   UNL     1      -0.649  -2.074  -0.552  0.00  0.00    +0.022 A 
ATOM     21  C   UNL     1      -0.848  -1.345   0.605  0.00  0.00    +0.062 A 
ATOM     22  C   UNL     1       0.235  -0.752   1.245  0.00  0.00    +0.054 A 
ATOM     23 CL   UNL     1      -2.446  -1.176   1.262  0.00  0.00    -0.082 Cl
ENDBRANCH   1  22
BRANCH  13  24
ATOM     24  N   UNL     1      -2.191  -4.517   8.145  0.00  0.00    -0.315 N 
ATOM     25  C   UNL     1      -2.519  -3.740   9.349  0.00  0.00    +0.106 C 
ATOM     26  C   UNL     1      -3.913  -4.151   9.835  0.00  0.00    +0.019 C 
ATOM     27  C   UNL     1      -3.952  -5.668  10.036  0.00  0.00    +0.003 C 
ATOM     28  C   UNL     1      -3.681  -6.367   8.702  0.00  0.00    +0.019 C 
ATOM     29  C   UNL     1      -2.291  -5.982   8.201  0.00  0.00    +0.106 C 
ENDBRANCH  13  24
TORSDOF 2
