REMARK  Name = CHEMBL199369
REMARK  10 active torsions:
REMARK  status: ('A' for Active; 'I' for Inactive)
REMARK    1  A    between atoms: C_1  and  N_2
REMARK    2  A    between atoms: N_2  and  C_3
REMARK    3  A    between atoms: N_2  and  C_4
REMARK    4  A    between atoms: C_7  and  C_10
REMARK    5  A    between atoms: N_12  and  C_13
REMARK    6  A    between atoms: C_16  and  C_21
REMARK    7  A    between atoms: C_18  and  O_19
REMARK    8  A    between atoms: O_19  and  C_20
REMARK    9  A    between atoms: N_28  and  C_30
REMARK   10  A    between atoms: N_33  and  C_36
REMARK                            x       y       z     vdW  Elec       q    Type
REMARK                         _______ _______ _______ _____ _____    ______ ____
ROOT
ATOM      1  C   UNL     1       0.001  -4.497 -11.194  0.00  0.00    +0.105 A 
ATOM      2  C   UNL     1       0.449  -5.852 -11.513  0.00  0.00    +0.086 A 
ATOM      3  C   UNL     1       1.031  -6.903 -10.785  0.00  0.00    +0.131 A 
ATOM      4  N   UNL     1       1.316  -8.032 -11.426  0.00  0.00    -0.220 NA
ATOM      5  C   UNL     1       1.060  -8.168 -12.715  0.00  0.00    +0.225 A 
ATOM      6  N   UNL     1       0.517  -7.212 -13.436  0.00  0.00    -0.216 NA
ATOM      7  C   UNL     1       0.195  -6.043 -12.884  0.00  0.00    +0.164 A 
ATOM      8  N   UNL     1      -0.363  -4.889 -13.348  0.00  0.00    -0.243 N 
ATOM      9  N   UNL     1      -0.473  -3.970 -12.298  0.00  0.00    -0.168 NA
ATOM     10  N   UNL     1       1.301  -6.766  -9.437  0.00  0.00    -0.342 N 
ATOM     11  H   UNL     1       1.109  -5.929  -8.986  0.00  0.00    +0.144 HD
ATOM     12  H   UNL     1       1.683  -7.507  -8.942  0.00  0.00    +0.144 HD
ENDROOT
BRANCH   8  13
ATOM     13  C   UNL     1      -0.786  -4.649 -14.730  0.00  0.00    +0.106 C 
ATOM     14  C   UNL     1      -0.018  -3.454 -15.301  0.00  0.00    +0.008 C 
ATOM     15  C   UNL     1      -0.521  -3.160 -16.716  0.00  0.00    -0.076 C 
ATOM     16  N   UNL     1      -1.954  -2.848 -16.674  0.00  0.00    +0.382 N 
ATOM     17  C   UNL     1      -2.705  -4.015 -16.195  0.00  0.00    -0.076 C 
ATOM     18  C   UNL     1      -2.286  -4.342 -14.760  0.00  0.00    +0.008 C 
ATOM     19  H   UNL     1      -2.110  -2.070 -16.050  0.00  0.00    -0.081 HD
BRANCH  16  20
ATOM     20  C   UNL     1      -2.416  -2.491 -18.022  0.00  0.00    -0.064 C 
ATOM     21  C   UNL     1      -1.649  -1.260 -18.517  0.00  0.00    +0.013 C 
ATOM     22  C   UNL     1      -2.191  -0.849 -19.889  0.00  0.00    +0.158 C 
ATOM     23  O   UNL     1      -3.592  -0.589 -19.787  0.00  0.00    -0.380 OA
ATOM     24  C   UNL     1      -4.366  -1.717 -19.374  0.00  0.00    +0.158 C 
ATOM     25  C   UNL     1      -3.912  -2.164 -17.982  0.00  0.00    +0.013 C 
ENDBRANCH  16  20
ENDBRANCH   8  13
BRANCH   1  29
ATOM     26  C   UNL     1       0.188  -2.615  -7.380  0.00  0.00    +0.076 A 
ATOM     27  C   UNL     1       1.299  -3.280  -7.883  0.00  0.00    +0.027 A 
ATOM     28  C   UNL     1       1.240  -3.891  -9.118  0.00  0.00    +0.012 A 
ATOM     29  C   UNL     1       0.064  -3.841  -9.866  0.00  0.00    +0.006 A 
ATOM     30  C   UNL     1      -1.052  -3.174  -9.363  0.00  0.00    +0.057 A 
ATOM     31  C   UNL     1      -0.992  -2.567  -8.122  0.00  0.00    +0.142 A 
BRANCH  26  34
ATOM     32  C   UNL     1       1.407  -1.446  -5.704  0.00  0.00    +0.248 C 
ATOM     33  O   UNL     1       2.418  -1.572  -6.367  0.00  0.00    -0.270 OA
ATOM     34  N   UNL     1       0.251  -1.997  -6.127  0.00  0.00    -0.279 N 
ATOM     35  H   UNL     1      -0.536  -1.964  -5.561  0.00  0.00    +0.155 HD
BRANCH  32  39
ATOM     36  C   UNL     1       1.514   0.729  -2.059  0.00  0.00    +0.029 A 
ATOM     37  C   UNL     1       2.674   0.585  -2.817  0.00  0.00    +0.024 A 
ATOM     38  C   UNL     1       2.642  -0.119  -3.998  0.00  0.00    +0.015 A 
ATOM     39  C   UNL     1       1.444  -0.691  -4.438  0.00  0.00    +0.037 A 
ATOM     40  C   UNL     1       0.282  -0.545  -3.675  0.00  0.00    +0.015 A 
ATOM     41  C   UNL     1       0.321   0.156  -2.491  0.00  0.00    +0.024 A 
BRANCH  36  43
ATOM     42  C   UNL     1       0.332   1.589  -0.064  0.00  0.00    +0.129 C 
ATOM     43  N   UNL     1       1.550   1.442  -0.866  0.00  0.00    -0.336 N 
ATOM     44  C   UNL     1       2.804   2.045  -0.409  0.00  0.00    +0.129 C 
ENDBRANCH  36  43
ENDBRANCH  32  39
ENDBRANCH  26  34
BRANCH  31  45
ATOM     45  O   UNL     1      -2.081  -1.921  -7.626  0.00  0.00    -0.493 OA
ATOM     46  C   UNL     1      -3.256  -1.912  -8.440  0.00  0.00    +0.277 C 
ENDBRANCH  31  45
ENDBRANCH   1  29
TORSDOF 7
