REMARK  Name = CHEMBL595624
REMARK  10 active torsions:
REMARK  status: ('A' for Active; 'I' for Inactive)
REMARK    1  A    between atoms: C_1  and  N_2
REMARK    2  A    between atoms: N_2  and  C_3
REMARK    3  A    between atoms: N_2  and  C_4
REMARK    4  A    between atoms: C_4  and  C_5
REMARK    5  A    between atoms: C_5  and  O_6
REMARK    6  A    between atoms: O_6  and  C_7
REMARK    7  A    between atoms: C_17  and  C_33
REMARK    8  A    between atoms: C_18  and  C_20
REMARK    9  A    between atoms: C_23  and  N_26
REMARK   10  A    between atoms: N_26  and  C_27
REMARK                            x       y       z     vdW  Elec       q    Type
REMARK                         _______ _______ _______ _____ _____    ______ ____
ROOT
ATOM      1  C   UNL     1       4.335   0.036   0.236  0.00  0.00    +0.121 A 
ATOM      2  C   UNL     1       5.023   0.904  -0.599  0.00  0.00    +0.047 A 
ATOM      3  C   UNL     1       6.371   1.094  -0.397  0.00  0.00    +0.027 A 
ATOM      4  C   UNL     1       7.045   0.429   0.632  0.00  0.00    +0.036 A 
ATOM      5  C   UNL     1       6.375  -0.427   1.475  0.00  0.00    -0.021 A 
ATOM      6  C   UNL     1       5.001  -0.611   1.254  0.00  0.00    +0.051 A 
ATOM      7  C   UNL     1       6.884  -1.221   2.659  0.00  0.00    +0.060 C 
ATOM      8  C   UNL     1       8.257  -0.809   3.146  0.00  0.00    +0.150 C 
ATOM      9  N   UNL     1       9.270  -1.008   2.106  0.00  0.00    -0.249 N 
ATOM     10  C   UNL     1       9.317  -0.318   0.981  0.00  0.00    +0.134 A 
ATOM     11  C   UNL     1      10.375  -0.774   0.214  0.00  0.00    +0.104 A 
ATOM     12  C   UNL     1      11.004  -1.839   1.012  0.00  0.00    +0.107 A 
ATOM     13  N   UNL     1      10.316  -1.940   2.130  0.00  0.00    -0.169 NA
ATOM     14  N   UNL     1       8.415   0.691   0.724  0.00  0.00    -0.299 N 
ATOM     15  H   UNL     1       8.736   1.598   0.605  0.00  0.00    +0.154 HD
ENDROOT
BRANCH  12  16
ATOM     16  C   UNL     1      12.188  -2.645   0.631  0.00  0.00    +0.003 A 
ATOM     17  C   UNL     1      12.393  -2.996  -0.704  0.00  0.00    +0.012 A 
ATOM     18  C   UNL     1      13.495  -3.745  -1.056  0.00  0.00    +0.024 A 
ATOM     19  C   UNL     1      14.401  -4.151  -0.083  0.00  0.00    +0.031 A 
ATOM     20  C   UNL     1      14.198  -3.803   1.248  0.00  0.00    +0.024 A 
ATOM     21  C   UNL     1      13.101  -3.049   1.604  0.00  0.00    +0.012 A 
BRANCH  19  22
ATOM     22  N   UNL     1      15.516  -4.910  -0.443  0.00  0.00    -0.314 N 
ATOM     23  H   UNL     1      15.937  -5.492   0.209  0.00  0.00    +0.152 HD
BRANCH  22  24
ATOM     24  C   UNL     1      16.025  -4.832  -1.741  0.00  0.00    +0.031 A 
ATOM     25  C   UNL     1      15.946  -3.639  -2.449  0.00  0.00    +0.023 A 
ATOM     26  C   UNL     1      16.451  -3.564  -3.732  0.00  0.00    +0.002 A 
ATOM     27  C   UNL     1      17.034  -4.676  -4.313  0.00  0.00    +0.000 A 
ATOM     28  C   UNL     1      17.114  -5.865  -3.611  0.00  0.00    +0.002 A 
ATOM     29  C   UNL     1      16.617  -5.944  -2.326  0.00  0.00    +0.023 A 
ENDBRANCH  22  24
ENDBRANCH  19  22
ENDBRANCH  12  16
BRANCH  11  30
ATOM     30  C   UNL     1      10.783  -0.299  -1.112  0.00  0.00    +0.247 C 
ATOM     31  O   UNL     1      11.585   0.611  -1.212  0.00  0.00    -0.270 OA
ATOM     32  N   UNL     1      10.268  -0.869  -2.220  0.00  0.00    -0.325 N 
ATOM     33  H   UNL     1       9.629  -1.594  -2.139  0.00  0.00    +0.145 HD
ATOM     34  H   UNL     1      10.537  -0.555  -3.097  0.00  0.00    +0.145 HD
ENDBRANCH  11  30
BRANCH   1  35
ATOM     35  O   UNL     1       3.004  -0.174   0.053  0.00  0.00    -0.494 OA
BRANCH  35  36
ATOM     36  C   UNL     1       2.379   0.530  -1.022  0.00  0.00    +0.210 C 
BRANCH  36  37
ATOM     37  C   UNL     1       0.892   0.170  -1.071  0.00  0.00    -0.038 C 
BRANCH  37  39
ATOM     38  C   UNL     1       0.275   2.123   0.177  0.00  0.00    -0.096 C 
ATOM     39  N   UNL     1       0.231   0.655   0.148  0.00  0.00    +0.378 N 
ATOM     40  C   UNL     1      -1.168   0.207   0.158  0.00  0.00    -0.096 C 
ATOM     41  H   UNL     1       0.708   0.288   0.958  0.00  0.00    -0.082 HD
ENDBRANCH  37  39
ENDBRANCH  36  37
ENDBRANCH  35  36
ENDBRANCH   1  35
TORSDOF 8
