REMARK  Name = CHEMBL56569
REMARK  7 active torsions:
REMARK  status: ('A' for Active; 'I' for Inactive)
REMARK    1  A    between atoms: C_1  and  N_2
REMARK    2  A    between atoms: N_2  and  S_3
REMARK    3  A    between atoms: S_3  and  C_6
REMARK    4  A    between atoms: C_13  and  C_14
REMARK    5  A    between atoms: C_15  and  C_24
REMARK    6  A    between atoms: C_24  and  C_25
REMARK    7  A    between atoms: C_25  and  C_26
REMARK                            x       y       z     vdW  Elec       q    Type
REMARK                         _______ _______ _______ _____ _____    ______ ____
ROOT
ATOM      1  C   UNL     1      -0.533  -0.247   2.371  0.00  0.00    +0.106 A 
ATOM      2  C   UNL     1      -0.797   1.106   2.506  0.00  0.00    +0.030 A 
ATOM      3  C   UNL     1      -1.909   1.540   3.197  0.00  0.00    +0.026 A 
ATOM      4  C   UNL     1      -2.779   0.618   3.769  0.00  0.00    +0.042 A 
ATOM      5  C   UNL     1      -2.509  -0.750   3.631  0.00  0.00    +0.010 A 
ATOM      6  C   UNL     1      -1.388  -1.177   2.926  0.00  0.00    +0.039 A 
ATOM      7  C   UNL     1      -3.597  -1.463   4.335  0.00  0.00    +0.048 C 
ATOM      8  C   UNL     1      -3.758  -2.829   4.470  0.00  0.00    +0.039 C 
ATOM      9  C   UNL     1      -4.470  -0.405   4.861  0.00  0.00    +0.249 C 
ATOM     10  O   UNL     1      -5.489  -0.573   5.508  0.00  0.00    -0.270 OA
ATOM     11  N   UNL     1      -3.948   0.780   4.503  0.00  0.00    -0.281 N 
ATOM     12  H   UNL     1      -4.337   1.640   4.729  0.00  0.00    +0.155 HD
ENDROOT
BRANCH   8  13
ATOM     13  C   UNL     1      -4.770  -3.341   5.308  0.00  0.00    +0.044 A 
ATOM     14  C   UNL     1      -5.493  -4.508   5.104  0.00  0.00    -0.019 A 
ATOM     15  C   UNL     1      -6.380  -4.627   6.168  0.00  0.00    -0.023 A 
ATOM     16  C   UNL     1      -6.197  -3.559   6.993  0.00  0.00    +0.020 A 
ATOM     17  N   UNL     1      -5.218  -2.776   6.485  0.00  0.00    -0.358 N 
ATOM     18  H   UNL     1      -4.888  -1.954   6.880  0.00  0.00    +0.166 HD
ATOM     19  C   UNL     1      -6.984  -3.333   8.263  0.00  0.00    +0.053 C 
ATOM     20  C   UNL     1      -8.233  -4.222   8.223  0.00  0.00    +0.006 C 
ATOM     21  C   UNL     1      -7.829  -5.658   7.878  0.00  0.00    +0.005 C 
ATOM     22  C   UNL     1      -7.385  -5.725   6.412  0.00  0.00    +0.037 C 
BRANCH  14  23
ATOM     23  C   UNL     1      -5.346  -5.463   3.948  0.00  0.00    +0.047 C 
BRANCH  23  24
ATOM     24  C   UNL     1      -4.307  -6.530   4.298  0.00  0.00    +0.100 C 
BRANCH  24  25
ATOM     25  C   UNL     1      -4.160  -7.486   3.142  0.00  0.00    +0.211 C 
ATOM     26  O   UNL     1      -4.821  -7.329   2.138  0.00  0.00    -0.276 OA
ATOM     27  N   UNL     1      -3.293  -8.515   3.225  0.00  0.00    -0.329 N 
ATOM     28  H   UNL     1      -2.765  -8.641   4.029  0.00  0.00    +0.145 HD
ATOM     29  H   UNL     1      -3.199  -9.130   2.481  0.00  0.00    +0.145 HD
ENDBRANCH  24  25
ENDBRANCH  23  24
ENDBRANCH  14  23
ENDBRANCH   8  13
BRANCH   1  30
ATOM     30  S   UNL     1       0.892  -0.782   1.484  0.00  0.00    +0.058 S 
ATOM     31  O   UNL     1       1.204  -2.083   1.963  0.00  0.00    -0.153 OA
ATOM     32  O   UNL     1       1.824   0.290   1.529  0.00  0.00    -0.153 OA
BRANCH  30  34
ATOM     33  C   UNL     1       0.036   0.217  -0.879  0.00  0.00    +0.127 C 
ATOM     34  N   UNL     1       0.446  -0.955  -0.101  0.00  0.00    -0.193 NA
ATOM     35  H   UNL     1       0.456  -1.832  -0.515  0.00  0.00    +0.148 HD
ENDBRANCH  30  34
ENDBRANCH   1  30
TORSDOF 6
