REMARK  Name = CHEMBL255533
REMARK  9 active torsions:
REMARK  status: ('A' for Active; 'I' for Inactive)
REMARK    1  A    between atoms: C_1  and  C_2
REMARK    2  A    between atoms: C_5  and  C_21
REMARK    3  A    between atoms: C_7  and  N_8
REMARK    4  A    between atoms: C_9  and  C_11
REMARK    5  A    between atoms: C_16  and  O_17
REMARK    6  A    between atoms: O_17  and  C_18
REMARK    7  A    between atoms: N_19  and  C_20
REMARK    8  A    between atoms: N_23  and  C_24
REMARK    9  A    between atoms: C_28  and  C_31
REMARK                            x       y       z     vdW  Elec       q    Type
REMARK                         _______ _______ _______ _____ _____    ______ ____
ROOT
ATOM      1  C   UNL     1      -0.147   1.302  -0.219  0.00  0.00    +0.045 C 
ATOM      2  C   UNL     1      -0.119  -0.204  -0.160  0.00  0.00    -0.029 A 
ATOM      3  C   UNL     1      -0.150  -0.940  -1.330  0.00  0.00    +0.006 A 
ATOM      4  C   UNL     1      -0.125  -2.319  -1.284  0.00  0.00    +0.013 A 
ATOM      5  C   UNL     1      -0.066  -2.975  -0.053  0.00  0.00    +0.039 A 
ATOM      6  C   UNL     1      -0.034  -2.233   1.127  0.00  0.00    +0.036 A 
ATOM      7  C   UNL     1      -0.055  -0.848   1.070  0.00  0.00    +0.037 A 
ENDROOT
BRANCH   7   8
ATOM      8  N   UNL     1      -0.017  -0.098   2.251  0.00  0.00    -0.281 N 
ATOM      9  C   UNL     1      -0.634  -0.555   3.358  0.00  0.00    +0.255 C 
ATOM     10  O   UNL     1      -1.149  -1.657   3.357  0.00  0.00    -0.270 OA
ATOM     11  H   UNL     1       0.453   0.750   2.272  0.00  0.00    +0.155 HD
BRANCH   9  12
ATOM     12  C   UNL     1      -0.685   0.280   4.570  0.00  0.00    +0.117 A 
ATOM     13  C   UNL     1      -0.104   1.553   4.591  0.00  0.00    +0.132 A 
ATOM     14  N   UNL     1      -0.171   2.271   5.696  0.00  0.00    -0.222 NA
ATOM     15  C   UNL     1      -0.778   1.804   6.781  0.00  0.00    +0.218 A 
ATOM     16  N   UNL     1      -1.342   0.605   6.808  0.00  0.00    -0.179 NA
ATOM     17  C   UNL     1      -1.325  -0.178   5.739  0.00  0.00    +0.231 A 
ATOM     18  N   UNL     1      -0.822   2.590   7.913  0.00  0.00    -0.316 N 
ATOM     19  C   UNL     1      -0.205   3.919   7.907  0.00  0.00    +0.128 C 
ATOM     20  H   UNL     1      -1.262   2.263   8.714  0.00  0.00    +0.149 HD
BRANCH  17  21
ATOM     21  O   UNL     1      -1.908  -1.399   5.771  0.00  0.00    -0.479 OA
ATOM     22  C   UNL     1      -2.535  -1.787   6.995  0.00  0.00    +0.279 C 
ENDBRANCH  17  21
ENDBRANCH   9  12
ENDBRANCH   7   8
BRANCH   5  23
ATOM     23  C   UNL     1      -0.039  -4.452  -0.001  0.00  0.00    +0.248 C 
ATOM     24  O   UNL     1       0.012  -5.022   1.071  0.00  0.00    -0.270 OA
ATOM     25  N   UNL     1      -0.071  -5.168  -1.143  0.00  0.00    -0.279 N 
ATOM     26  H   UNL     1      -0.030  -4.715  -2.000  0.00  0.00    +0.155 HD
BRANCH  25  27
ATOM     27  C   UNL     1      -0.164  -6.563  -1.093  0.00  0.00    +0.070 A 
ATOM     28  C   UNL     1      -0.724  -7.184   0.016  0.00  0.00    +0.026 A 
ATOM     29  C   UNL     1      -0.814  -8.561   0.063  0.00  0.00    +0.003 A 
ATOM     30  C   UNL     1      -0.347  -9.324  -0.992  0.00  0.00    +0.015 A 
ATOM     31  C   UNL     1       0.212  -8.711  -2.098  0.00  0.00    +0.092 A 
ATOM     32  C   UNL     1       0.300  -7.332  -2.155  0.00  0.00    +0.156 A 
ATOM     33  F   UNL     1       0.842  -6.732  -3.238  0.00  0.00    -0.203 F 
BRANCH  31  34
ATOM     34  C   UNL     1       0.721  -9.546  -3.245  0.00  0.00    +0.420 C 
ATOM     35  F   UNL     1       0.519 -10.900  -2.961  0.00  0.00    -0.166 F 
ATOM     36  F   UNL     1       0.029  -9.205  -4.412  0.00  0.00    -0.166 F 
ATOM     37  F   UNL     1       2.087  -9.306  -3.426  0.00  0.00    -0.166 F 
ENDBRANCH  31  34
ENDBRANCH  25  27
ENDBRANCH   5  23
TORSDOF 6
