REMARK  Name = CHEMBL270692
REMARK  10 active torsions:
REMARK  status: ('A' for Active; 'I' for Inactive)
REMARK    1  A    between atoms: C_1  and  C_2
REMARK    2  A    between atoms: C_6  and  C_37
REMARK    3  A    between atoms: C_7  and  N_8
REMARK    4  A    between atoms: N_24  and  C_25
REMARK    5  A    between atoms: C_27  and  O_35
REMARK    6  A    between atoms: C_28  and  O_33
REMARK    7  A    between atoms: C_29  and  O_31
REMARK    8  A    between atoms: O_31  and  C_32
REMARK    9  A    between atoms: O_33  and  C_34
REMARK   10  A    between atoms: O_35  and  C_36
REMARK                            x       y       z     vdW  Elec       q    Type
REMARK                         _______ _______ _______ _____ _____    ______ ____
ROOT
ATOM      1  N   UNL     1       0.993  -0.056   2.461  0.00  0.00    -0.284 N 
ATOM      2  C   UNL     1       0.840  -0.743   3.647  0.00  0.00    +0.208 A 
ATOM      3  N   UNL     1       0.846  -2.046   3.769  0.00  0.00    -0.214 NA
ATOM      4  C   UNL     1       0.670  -2.386   5.074  0.00  0.00    +0.091 A 
ATOM      5  C   UNL     1       0.598  -3.609   5.744  0.00  0.00    +0.030 A 
ATOM      6  C   UNL     1       0.409  -3.632   7.108  0.00  0.00    +0.002 A 
ATOM      7  C   UNL     1       0.289  -2.449   7.821  0.00  0.00    +0.002 A 
ATOM      8  C   UNL     1       0.358  -1.232   7.173  0.00  0.00    +0.028 A 
ATOM      9  C   UNL     1       0.548  -1.191   5.801  0.00  0.00    +0.078 A 
ATOM     10  N   UNL     1       0.665  -0.162   4.877  0.00  0.00    -0.248 N 
ATOM     11  C   UNL     1       0.611   1.199   5.146  0.00  0.00    +0.242 A 
ATOM     12  N   UNL     1       0.441   1.624   6.395  0.00  0.00    -0.200 NA
ATOM     13  C   UNL     1       0.390   2.920   6.653  0.00  0.00    +0.228 A 
ATOM     14  N   UNL     1       0.506   3.797   5.672  0.00  0.00    -0.203 NA
ATOM     15  C   UNL     1       0.676   3.379   4.420  0.00  0.00    +0.224 A 
ATOM     16  N   UNL     1       0.734   2.077   4.158  0.00  0.00    -0.178 NA
ATOM     17  N   UNL     1       0.798   4.296   3.395  0.00  0.00    -0.283 N 
ATOM     18  H   UNL     1       0.901   0.910   2.444  0.00  0.00    +0.155 HD
ATOM     19  H   UNL     1       0.843   3.992   2.475  0.00  0.00    +0.155 HD
ENDROOT
BRANCH   1  26
ATOM     20  C   UNL     1       3.588   0.230   1.330  0.00  0.00    +0.045 C 
ATOM     21  C   UNL     1       2.534  -0.641   0.696  0.00  0.00    -0.029 A 
ATOM     22  C   UNL     1       2.816  -1.335  -0.464  0.00  0.00    +0.005 A 
ATOM     23  C   UNL     1       1.849  -2.134  -1.046  0.00  0.00    +0.001 A 
ATOM     24  C   UNL     1       0.597  -2.242  -0.468  0.00  0.00    +0.005 A 
ATOM     25  C   UNL     1       0.309  -1.551   0.692  0.00  0.00    -0.029 A 
ATOM     26  C   UNL     1       1.279  -0.752   1.282  0.00  0.00    +0.039 A 
ATOM     27  C   UNL     1      -1.056  -1.669   1.321  0.00  0.00    +0.045 C 
ENDBRANCH   1  26
BRANCH  17  28
ATOM     28  C   UNL     1       0.857   5.665   3.683  0.00  0.00    +0.041 A 
ATOM     29  C   UNL     1       1.459   6.101   4.856  0.00  0.00    +0.073 A 
ATOM     30  C   UNL     1       1.518   7.456   5.142  0.00  0.00    +0.167 A 
ATOM     31  C   UNL     1       0.974   8.378   4.255  0.00  0.00    +0.204 A 
ATOM     32  C   UNL     1       0.372   7.940   3.082  0.00  0.00    +0.167 A 
ATOM     33  C   UNL     1       0.318   6.585   2.794  0.00  0.00    +0.073 A 
BRANCH  32  34
ATOM     34  O   UNL     1      -0.161   8.841   2.213  0.00  0.00    -0.491 OA
ATOM     35  C   UNL     1      -0.764   8.321   1.027  0.00  0.00    +0.277 C 
ENDBRANCH  32  34
BRANCH  31  36
ATOM     36  O   UNL     1       1.031   9.709   4.536  0.00  0.00    -0.488 OA
ATOM     37  C   UNL     1       2.177  10.423   4.067  0.00  0.00    +0.277 C 
ENDBRANCH  31  36
BRANCH  30  38
ATOM     38  O   UNL     1       2.107   7.884   6.291  0.00  0.00    -0.491 OA
ATOM     39  C   UNL     1       2.644   6.881   7.156  0.00  0.00    +0.277 C 
ENDBRANCH  30  38
ENDBRANCH  17  28
TORSDOF 5
