REMARK  Name = CHEMBL568543
REMARK  7 active torsions:
REMARK  status: ('A' for Active; 'I' for Inactive)
REMARK    1  A    between atoms: C_1  and  C_2
REMARK    2  A    between atoms: C_2  and  C_3
REMARK    3  A    between atoms: C_2  and  N_17
REMARK    4  A    between atoms: N_5  and  C_10
REMARK    5  A    between atoms: N_8  and  C_9
REMARK    6  A    between atoms: C_10  and  C_11
REMARK    7  A    between atoms: C_22  and  N_24
REMARK                            x       y       z     vdW  Elec       q    Type
REMARK                         _______ _______ _______ _____ _____    ______ ____
ROOT
ATOM      1  C   UNL     1      -0.308   1.428   0.192  0.00  0.00    +0.029 C 
ATOM      2  C   UNL     1      -0.251  -0.074  -0.095  0.00  0.00    +0.085 C 
ENDROOT
BRANCH   2   3
ATOM      3  C   UNL     1      -1.651  -0.673   0.046  0.00  0.00    +0.060 C 
ATOM      4  C   UNL     1      -2.211  -0.344   1.431  0.00  0.00    -0.057 C 
ATOM      5  N   UNL     1      -1.341  -0.926   2.462  0.00  0.00    +0.384 N 
ATOM      6  C   UNL     1      -1.298  -2.385   2.302  0.00  0.00    -0.063 C 
ATOM      7  C   UNL     1      -0.730  -2.731   0.924  0.00  0.00    +0.066 C 
ATOM      8  N   UNL     1      -1.579  -2.132  -0.117  0.00  0.00    -0.304 NA
ATOM      9  C   UNL     1      -1.098  -2.490  -1.458  0.00  0.00    +0.105 C 
ATOM     10  H   UNL     1      -0.409  -0.550   2.367  0.00  0.00    -0.081 HD
BRANCH   5  11
ATOM     11  C   UNL     1      -1.869  -0.595   3.792  0.00  0.00    -0.043 C 
BRANCH  11  12
ATOM     12  C   UNL     1      -0.912  -1.085   4.848  0.00  0.00    -0.064 A 
ATOM     13  C   UNL     1      -1.045  -2.361   5.362  0.00  0.00    +0.002 A 
ATOM     14  C   UNL     1      -0.167  -2.811   6.331  0.00  0.00    +0.000 A 
ATOM     15  C   UNL     1       0.843  -1.984   6.786  0.00  0.00    +0.000 A 
ATOM     16  C   UNL     1       0.976  -0.708   6.271  0.00  0.00    +0.000 A 
ATOM     17  C   UNL     1       0.101  -0.260   5.299  0.00  0.00    +0.002 A 
ENDBRANCH  11  12
ENDBRANCH   5  11
ENDBRANCH   2   3
BRANCH   2  18
ATOM     18  N   UNL     1       0.239  -0.292  -1.458  0.00  0.00    -0.309 N 
ATOM     19  C   UNL     1       1.597  -0.418  -1.693  0.00  0.00    +0.217 A 
ATOM     20  N   UNL     1       2.439  -0.345  -0.673  0.00  0.00    -0.223 NA
ATOM     21  C   UNL     1       3.745  -0.462  -0.859  0.00  0.00    +0.118 A 
ATOM     22  C   UNL     1       4.230  -0.663  -2.138  0.00  0.00    +0.066 A 
ATOM     23  C   UNL     1       3.320  -0.736  -3.191  0.00  0.00    +0.144 A 
ATOM     24  N   UNL     1       2.023  -0.615  -2.932  0.00  0.00    -0.197 NA
ATOM     25  H   UNL     1      -0.388  -0.347  -2.196  0.00  0.00    +0.149 HD
BRANCH  23  26
ATOM     26  N   UNL     1       3.764  -0.937  -4.496  0.00  0.00    -0.283 N 
ATOM     27  C   UNL     1       5.059  -1.087  -4.897  0.00  0.00    +0.206 A 
ATOM     28  N   UNL     1       5.111  -1.256  -6.185  0.00  0.00    -0.235 NA
ATOM     29  C   UNL     1       3.856  -1.228  -6.702  0.00  0.00    +0.089 A 
ATOM     30  C   UNL     1       2.973  -1.028  -5.628  0.00  0.00    +0.075 A 
ATOM     31  C   UNL     1       1.606  -0.961  -5.857  0.00  0.00    +0.028 A 
ATOM     32  C   UNL     1       1.119  -1.093  -7.141  0.00  0.00    +0.002 A 
ATOM     33  C   UNL     1       1.986  -1.294  -8.205  0.00  0.00    +0.002 A 
ATOM     34  C   UNL     1       3.345  -1.356  -7.997  0.00  0.00    +0.030 A 
ENDBRANCH  23  26
ENDBRANCH   2  18
TORSDOF 5
