REMARK  Name = CHEMBL567880
REMARK  6 active torsions:
REMARK  status: ('A' for Active; 'I' for Inactive)
REMARK    1  A    between atoms: C_1  and  C_2
REMARK    2  A    between atoms: C_2  and  C_3
REMARK    3  A    between atoms: C_2  and  N_18
REMARK    4  A    between atoms: C_9  and  O_11
REMARK    5  A    between atoms: O_11  and  C_12
REMARK    6  A    between atoms: C_23  and  N_25
REMARK                            x       y       z     vdW  Elec       q    Type
REMARK                         _______ _______ _______ _____ _____    ______ ____
ROOT
ATOM      1  C   UNL     1       0.078   1.437  -0.038  0.00  0.00    +0.028 C 
ATOM      2  C   UNL     1       0.066  -0.093  -0.065  0.00  0.00    +0.075 C 
ENDROOT
BRANCH   2   3
ATOM      3  C   UNL     1      -1.379  -0.592  -0.025  0.00  0.00    +0.027 C 
ATOM      4  C   UNL     1      -2.138  -0.059  -1.242  0.00  0.00    +0.008 C 
ATOM      5  C   UNL     1      -3.593  -0.531  -1.186  0.00  0.00    +0.019 C 
ATOM      6  C   UNL     1      -3.630  -2.062  -1.226  0.00  0.00    +0.111 C 
ATOM      7  N   UNL     1      -2.784  -2.584  -0.144  0.00  0.00    -0.267 N 
ATOM      8  C   UNL     1      -1.392  -2.124  -0.051  0.00  0.00    +0.116 C 
ATOM      9  C   UNL     1      -3.276  -3.467   0.747  0.00  0.00    +0.408 C 
ATOM     10  O   UNL     1      -2.566  -3.892   1.637  0.00  0.00    -0.226 OA
BRANCH   9  11
ATOM     11  O   UNL     1      -4.555  -3.880   0.650  0.00  0.00    -0.411 OA
BRANCH  11  12
ATOM     12  C   UNL     1      -4.979  -4.847   1.506  0.00  0.00    +0.133 A 
ATOM     13  C   UNL     1      -5.115  -6.155   1.064  0.00  0.00    +0.046 A 
ATOM     14  C   UNL     1      -5.547  -7.136   1.936  0.00  0.00    +0.004 A 
ATOM     15  C   UNL     1      -5.844  -6.815   3.248  0.00  0.00    +0.000 A 
ATOM     16  C   UNL     1      -5.710  -5.512   3.690  0.00  0.00    +0.004 A 
ATOM     17  C   UNL     1      -5.273  -4.529   2.824  0.00  0.00    +0.046 A 
ENDBRANCH  11  12
ENDBRANCH   9  11
ENDBRANCH   2   3
BRANCH   2  18
ATOM     18  N   UNL     1       0.793  -0.607   1.099  0.00  0.00    -0.311 N 
ATOM     19  C   UNL     1       2.169  -0.749   1.048  0.00  0.00    +0.217 A 
ATOM     20  N   UNL     1       2.813  -0.410  -0.059  0.00  0.00    -0.223 NA
ATOM     21  C   UNL     1       4.129  -0.531  -0.144  0.00  0.00    +0.118 A 
ATOM     22  C   UNL     1       4.834  -1.020   0.940  0.00  0.00    +0.066 A 
ATOM     23  C   UNL     1       4.129  -1.368   2.091  0.00  0.00    +0.144 A 
ATOM     24  N   UNL     1       2.809  -1.216   2.109  0.00  0.00    -0.197 NA
ATOM     25  H   UNL     1       0.310  -0.848   1.905  0.00  0.00    +0.149 HD
BRANCH  23  26
ATOM     26  N   UNL     1       4.798  -1.865   3.207  0.00  0.00    -0.283 N 
ATOM     27  C   UNL     1       6.144  -2.059   3.324  0.00  0.00    +0.206 A 
ATOM     28  N   UNL     1       6.425  -2.535   4.501  0.00  0.00    -0.235 NA
ATOM     29  C   UNL     1       5.283  -2.679   5.223  0.00  0.00    +0.089 A 
ATOM     30  C   UNL     1       4.224  -2.247   4.407  0.00  0.00    +0.075 A 
ATOM     31  C   UNL     1       2.923  -2.275   4.887  0.00  0.00    +0.028 A 
ATOM     32  C   UNL     1       2.674  -2.725   6.167  0.00  0.00    +0.002 A 
ATOM     33  C   UNL     1       3.716  -3.150   6.978  0.00  0.00    +0.002 A 
ATOM     34  C   UNL     1       5.013  -3.136   6.515  0.00  0.00    +0.030 A 
ENDBRANCH  23  26
ENDBRANCH   2  18
TORSDOF 5
