REMARK  Name = CHEMBL1085564
REMARK  8 active torsions:
REMARK  status: ('A' for Active; 'I' for Inactive)
REMARK    1  A    between atoms: C_1  and  N_2
REMARK    2  A    between atoms: N_5  and  C_8
REMARK    3  A    between atoms: C_12  and  C_14
REMARK    4  A    between atoms: C_21  and  C_24
REMARK    5  A    between atoms: C_22  and  N_23
REMARK    6  A    between atoms: C_27  and  N_30
REMARK    7  A    between atoms: C_31  and  O_33
REMARK    8  A    between atoms: O_33  and  C_34
REMARK                            x       y       z     vdW  Elec       q    Type
REMARK                         _______ _______ _______ _____ _____    ______ ____
ROOT
ATOM      1  C   UNL     1       0.235  -6.033   4.282  0.00  0.00    +0.046 A 
ATOM      2  C   UNL     1       1.548  -6.474   4.076  0.00  0.00    +0.145 A 
ATOM      3  N   UNL     1       2.011  -6.964   5.199  0.00  0.00    -0.171 NA
ATOM      4  N   UNL     1       1.024  -6.865   6.186  0.00  0.00    -0.200 N 
ATOM      5  C   UNL     1      -0.080  -6.282   5.624  0.00  0.00    +0.165 A 
ATOM      6  N   UNL     1      -1.184  -6.057   6.345  0.00  0.00    -0.235 NA
ATOM      7  C   UNL     1      -1.250  -6.384   7.616  0.00  0.00    +0.125 A 
ATOM      8  C   UNL     1      -0.147  -6.982   8.249  0.00  0.00    +0.040 A 
ATOM      9  C   UNL     1       1.004  -7.227   7.507  0.00  0.00    +0.129 A 
ENDROOT
BRANCH   1  14
ATOM     10  C   UNL     1      -1.027  -3.775   1.549  0.00  0.00    +0.030 A 
ATOM     11  C   UNL     1      -2.321  -4.256   1.382  0.00  0.00    +0.023 A 
ATOM     12  C   UNL     1      -2.778  -5.307   2.154  0.00  0.00    +0.002 A 
ATOM     13  C   UNL     1      -1.952  -5.887   3.096  0.00  0.00    +0.009 A 
ATOM     14  C   UNL     1      -0.652  -5.412   3.271  0.00  0.00    -0.011 A 
ATOM     15  C   UNL     1      -0.189  -4.355   2.489  0.00  0.00    +0.031 A 
BRANCH  10  20
ATOM     16  C   UNL     1      -0.148   1.380  -0.059  0.00  0.00    +0.105 C 
ATOM     17  N   UNL     1      -0.120  -0.088  -0.055  0.00  0.00    -0.302 NA
ATOM     18  C   UNL     1      -1.479  -0.641  -0.141  0.00  0.00    +0.103 C 
ATOM     19  C   UNL     1      -1.398  -2.161  -0.316  0.00  0.00    +0.120 C 
ATOM     20  N   UNL     1      -0.569  -2.713   0.766  0.00  0.00    -0.327 N 
ATOM     21  C   UNL     1       0.754  -2.117   1.002  0.00  0.00    +0.120 C 
ATOM     22  C   UNL     1       0.589  -0.598   1.126  0.00  0.00    +0.103 C 
ENDBRANCH  10  20
ENDBRANCH   1  14
BRANCH   8  23
ATOM     23  C   UNL     1      -0.212  -7.353   9.683  0.00  0.00    -0.013 A 
ATOM     24  C   UNL     1      -0.139  -8.693  10.062  0.00  0.00    +0.010 A 
ATOM     25  C   UNL     1      -0.199  -9.036  11.396  0.00  0.00    +0.024 A 
ATOM     26  C   UNL     1      -0.333  -8.047  12.363  0.00  0.00    +0.036 A 
ATOM     27  C   UNL     1      -0.407  -6.711  11.989  0.00  0.00    +0.024 A 
ATOM     28  C   UNL     1      -0.340  -6.363  10.656  0.00  0.00    +0.010 A 
BRANCH  26  29
ATOM     29  N   UNL     1      -0.395  -8.397  13.717  0.00  0.00    -0.251 N 
ATOM     30  C   UNL     1       0.320  -9.444  14.175  0.00  0.00    +0.410 C 
ATOM     31  O   UNL     1       1.093 -10.022  13.437  0.00  0.00    -0.226 OA
ATOM     32  H   UNL     1      -0.951  -7.887  14.325  0.00  0.00    +0.158 HD
BRANCH  30  33
ATOM     33  O   UNL     1       0.176  -9.851  15.451  0.00  0.00    -0.411 OA
BRANCH  33  34
ATOM     34  C   UNL     1       0.837 -10.972  15.842  0.00  0.00    +0.133 A 
ATOM     35  C   UNL     1       0.145 -12.163  16.012  0.00  0.00    +0.046 A 
ATOM     36  C   UNL     1       0.820 -13.302  16.408  0.00  0.00    +0.004 A 
ATOM     37  C   UNL     1       2.182 -13.255  16.636  0.00  0.00    +0.000 A 
ATOM     38  C   UNL     1       2.874 -12.070  16.468  0.00  0.00    +0.004 A 
ATOM     39  C   UNL     1       2.206 -10.930  16.067  0.00  0.00    +0.046 A 
ENDBRANCH  33  34
ENDBRANCH  30  33
ENDBRANCH  26  29
ENDBRANCH   8  23
BRANCH   9  40
ATOM     40  N   UNL     1       2.105  -7.809   8.091  0.00  0.00    -0.343 N 
ATOM     41  H   UNL     1       2.905  -7.968   7.567  0.00  0.00    +0.144 HD
ATOM     42  H   UNL     1       2.080  -8.062   9.027  0.00  0.00    +0.144 HD
ENDBRANCH   9  40
TORSDOF 7
