REMARK  Name = CHEMBL1075628
REMARK  12 active torsions:
REMARK  status: ('A' for Active; 'I' for Inactive)
REMARK    1  A    between atoms: C_1  and  C_2
REMARK    2  A    between atoms: C_5  and  N_25
REMARK    3  A    between atoms: C_7  and  N_8
REMARK    4  A    between atoms: C_20  and  N_24
REMARK    5  A    between atoms: C_26  and  C_28
REMARK    6  A    between atoms: C_30  and  C_37
REMARK    7  A    between atoms: N_31  and  C_33
REMARK    8  A    between atoms: C_33  and  C_34
REMARK    9  A    between atoms: C_33  and  C_35
REMARK   10  A    between atoms: C_33  and  C_36
REMARK   11  A    between atoms: C_37  and  N_38
REMARK   12  A    between atoms: N_41  and  C_44
REMARK                            x       y       z     vdW  Elec       q    Type
REMARK                         _______ _______ _______ _____ _____    ______ ____
ROOT
ATOM      1  C   UNL     1      -2.621   0.955   3.750  0.00  0.00    +0.045 C 
ATOM      2  C   UNL     1      -2.450  -0.531   3.566  0.00  0.00    -0.029 A 
ATOM      3  C   UNL     1      -3.425  -1.262   2.914  0.00  0.00    +0.007 A 
ATOM      4  C   UNL     1      -3.272  -2.624   2.744  0.00  0.00    +0.024 A 
ATOM      5  C   UNL     1      -2.137  -3.264   3.227  0.00  0.00    +0.035 A 
ATOM      6  C   UNL     1      -1.156  -2.533   3.881  0.00  0.00    +0.047 A 
ATOM      7  C   UNL     1      -1.310  -1.163   4.046  0.00  0.00    +0.038 A 
ENDROOT
BRANCH   7   8
ATOM      8  N   UNL     1      -0.322  -0.422   4.701  0.00  0.00    -0.284 N 
ATOM      9  C   UNL     1       0.885  -1.010   5.019  0.00  0.00    +0.207 A 
ATOM     10  N   UNL     1       1.254  -2.213   4.657  0.00  0.00    -0.214 NA
ATOM     11  C   UNL     1       2.498  -2.476   5.140  0.00  0.00    +0.091 A 
ATOM     12  C   UNL     1       3.346  -3.582   5.053  0.00  0.00    +0.030 A 
ATOM     13  C   UNL     1       4.579  -3.548   5.665  0.00  0.00    +0.002 A 
ATOM     14  C   UNL     1       4.986  -2.423   6.366  0.00  0.00    +0.002 A 
ATOM     15  C   UNL     1       4.160  -1.322   6.460  0.00  0.00    +0.028 A 
ATOM     16  C   UNL     1       2.915  -1.339   5.851  0.00  0.00    +0.077 A 
ATOM     17  N   UNL     1       1.878  -0.421   5.755  0.00  0.00    -0.264 N 
ATOM     18  C   UNL     1       1.851   0.858   6.308  0.00  0.00    +0.145 A 
ATOM     19  C   UNL     1       1.407   1.940   5.557  0.00  0.00    +0.090 A 
ATOM     20  C   UNL     1       1.400   3.198   6.155  0.00  0.00    +0.121 A 
ATOM     21  N   UNL     1       1.815   3.317   7.414  0.00  0.00    -0.221 NA
ATOM     22  C   UNL     1       2.229   2.266   8.091  0.00  0.00    +0.225 A 
ATOM     23  N   UNL     1       2.245   1.059   7.562  0.00  0.00    -0.218 NA
ATOM     24  H   UNL     1      -0.484   0.506   4.931  0.00  0.00    +0.155 HD
BRANCH  20  25
ATOM     25  N   UNL     1       0.967   4.309   5.449  0.00  0.00    -0.343 N 
ATOM     26  H   UNL     1       0.666   4.214   4.532  0.00  0.00    +0.144 HD
ATOM     27  H   UNL     1       0.964   5.182   5.872  0.00  0.00    +0.144 HD
ENDBRANCH  20  25
ENDBRANCH   7   8
BRANCH   5  28
ATOM     28  N   UNL     1      -1.984  -4.644   3.055  0.00  0.00    -0.280 N 
ATOM     29  C   UNL     1      -2.491  -5.246   1.961  0.00  0.00    +0.268 C 
ATOM     30  O   UNL     1      -2.999  -4.580   1.080  0.00  0.00    -0.268 OA
ATOM     31  H   UNL     1      -1.512  -5.166   3.722  0.00  0.00    +0.155 HD
BRANCH  29  32
ATOM     32  C   UNL     1      -2.430  -6.716   1.833  0.00  0.00    +0.148 A 
ATOM     33  C   UNL     1      -2.912  -7.488   0.749  0.00  0.00    +0.059 A 
ATOM     34  C   UNL     1      -2.639  -8.774   1.071  0.00  0.00    +0.055 A 
ATOM     35  N   UNL     1      -2.031  -8.764   2.277  0.00  0.00    -0.261 N 
ATOM     36  N   UNL     1      -1.911  -7.559   2.704  0.00  0.00    -0.166 NA
BRANCH  35  37
ATOM     37  C   UNL     1      -1.568  -9.956   2.991  0.00  0.00    +0.056 C 
ATOM     38  C   UNL     1      -0.667 -10.784   2.072  0.00  0.00    +0.036 C 
ATOM     39  C   UNL     1      -0.779  -9.533   4.232  0.00  0.00    +0.036 C 
ATOM     40  C   UNL     1      -2.773 -10.797   3.416  0.00  0.00    +0.036 C 
ENDBRANCH  35  37
BRANCH  34  41
ATOM     41  C   UNL     1      -2.955  -9.990   0.239  0.00  0.00    +0.139 C 
BRANCH  41  42
ATOM     42  N   UNL     1      -1.788 -10.339  -0.581  0.00  0.00    -0.300 NA
ATOM     43  C   UNL     1      -1.518  -9.298  -1.583  0.00  0.00    +0.066 C 
ATOM     44  C   UNL     1      -0.262  -9.670  -2.375  0.00  0.00    -0.064 C 
ATOM     45  N   UNL     1      -0.466 -10.967  -3.034  0.00  0.00    +0.379 N 
ATOM     46  C   UNL     1      -0.710 -12.001  -2.020  0.00  0.00    -0.064 C 
ATOM     47  C   UNL     1      -1.969 -11.648  -1.225  0.00  0.00    +0.066 C 
ATOM     48  C   UNL     1       0.733 -11.315  -3.809  0.00  0.00    -0.096 C 
ATOM     49  H   UNL     1      -1.260 -10.908  -3.653  0.00  0.00    -0.082 HD
ENDBRANCH  41  42
ENDBRANCH  34  41
ENDBRANCH  29  32
ENDBRANCH   5  28
TORSDOF 7
