REMARK  Name = CHEMBL271650
REMARK  10 active torsions:
REMARK  status: ('A' for Active; 'I' for Inactive)
REMARK    1  A    between atoms: C_1  and  C_2
REMARK    2  A    between atoms: C_5  and  C_27
REMARK    3  A    between atoms: C_7  and  N_8
REMARK    4  A    between atoms: C_9  and  C_11
REMARK    5  A    between atoms: C_16  and  O_17
REMARK    6  A    between atoms: O_17  and  C_18
REMARK    7  A    between atoms: N_19  and  C_20
REMARK    8  A    between atoms: N_23  and  C_26
REMARK    9  A    between atoms: N_29  and  C_30
REMARK   10  A    between atoms: C_34  and  C_36
REMARK                            x       y       z     vdW  Elec       q    Type
REMARK                         _______ _______ _______ _____ _____    ______ ____
ROOT
ATOM      1  N   UNL     1       0.047   0.029   2.477  0.00  0.00    -0.281 N 
ATOM      2  C   UNL     1      -0.019  -0.554   3.691  0.00  0.00    +0.255 C 
ATOM      3  O   UNL     1      -0.017  -1.767   3.783  0.00  0.00    -0.270 OA
ATOM      4  H   UNL     1       0.114   0.994   2.406  0.00  0.00    +0.155 HD
ENDROOT
BRANCH   2   5
ATOM      5  C   UNL     1      -0.092   0.276   4.904  0.00  0.00    +0.117 A 
ATOM      6  C   UNL     1      -0.101   1.673   4.819  0.00  0.00    +0.132 A 
ATOM      7  N   UNL     1      -0.168   2.383   5.931  0.00  0.00    -0.222 NA
ATOM      8  C   UNL     1      -0.226   1.792   7.118  0.00  0.00    +0.218 A 
ATOM      9  N   UNL     1      -0.220   0.473   7.248  0.00  0.00    -0.179 NA
ATOM     10  C   UNL     1      -0.161  -0.314   6.182  0.00  0.00    +0.231 A 
ATOM     11  N   UNL     1      -0.294   2.575   8.252  0.00  0.00    -0.311 N 
ATOM     12  H   UNL     1      -0.337   2.158   9.127  0.00  0.00    +0.149 HD
BRANCH  11  13
ATOM     13  C   UNL     1      -0.301   4.035   8.134  0.00  0.00    +0.070 C 
ATOM     14  C   UNL     1       1.139   4.549   8.055  0.00  0.00    +0.003 C 
ATOM     15  C   UNL     1       1.127   6.079   8.012  0.00  0.00    -0.077 C 
ATOM     16  N   UNL     1       0.486   6.601   9.225  0.00  0.00    +0.378 N 
ATOM     17  C   UNL     1      -0.917   6.170   9.271  0.00  0.00    -0.077 C 
ATOM     18  C   UNL     1      -0.983   4.644   9.362  0.00  0.00    +0.003 C 
ATOM     19  C   UNL     1       0.546   8.068   9.217  0.00  0.00    -0.096 C 
ATOM     20  H   UNL     1       0.971   6.251  10.038  0.00  0.00    -0.082 HD
ENDBRANCH  11  13
BRANCH  10  21
ATOM     21  O   UNL     1      -0.162  -1.660   6.319  0.00  0.00    -0.479 OA
ATOM     22  C   UNL     1      -0.235  -2.176   7.650  0.00  0.00    +0.279 C 
ENDBRANCH  10  21
ENDBRANCH   2   5
BRANCH   1  29
ATOM     23  C   UNL     1      -1.278   1.067   0.187  0.00  0.00    +0.045 C 
ATOM     24  C   UNL     1      -0.619  -0.288   0.178  0.00  0.00    -0.029 A 
ATOM     25  C   UNL     1      -0.645  -1.059  -0.970  0.00  0.00    +0.006 A 
ATOM     26  C   UNL     1      -0.044  -2.301  -0.986  0.00  0.00    +0.013 A 
ATOM     27  C   UNL     1       0.594  -2.783   0.158  0.00  0.00    +0.039 A 
ATOM     28  C   UNL     1       0.621  -2.006   1.316  0.00  0.00    +0.036 A 
ATOM     29  C   UNL     1       0.018  -0.757   1.321  0.00  0.00    +0.037 A 
BRANCH  27  30
ATOM     30  C   UNL     1       1.238  -4.114   0.143  0.00  0.00    +0.248 C 
ATOM     31  O   UNL     1       1.792  -4.532   1.141  0.00  0.00    -0.270 OA
ATOM     32  N   UNL     1       1.210  -4.863  -0.976  0.00  0.00    -0.281 N 
ATOM     33  H   UNL     1       0.843  -4.497  -1.796  0.00  0.00    +0.155 HD
BRANCH  32  34
ATOM     34  C   UNL     1       1.711  -6.169  -0.956  0.00  0.00    +0.034 A 
ATOM     35  C   UNL     1       2.193  -6.748  -2.123  0.00  0.00    +0.023 A 
ATOM     36  C   UNL     1       2.687  -8.037  -2.100  0.00  0.00    +0.002 A 
ATOM     37  C   UNL     1       2.702  -8.752  -0.916  0.00  0.00    +0.012 A 
ATOM     38  C   UNL     1       2.222  -8.179   0.247  0.00  0.00    +0.057 A 
ATOM     39  C   UNL     1       1.732  -6.888   0.232  0.00  0.00    +0.035 A 
BRANCH  38  40
ATOM     40  C   UNL     1       2.240  -8.962   1.535  0.00  0.00    +0.417 C 
ATOM     41  F   UNL     1       2.782 -10.231   1.302  0.00  0.00    -0.166 F 
ATOM     42  F   UNL     1       3.020  -8.288   2.480  0.00  0.00    -0.166 F 
ATOM     43  F   UNL     1       0.934  -9.095   2.018  0.00  0.00    -0.166 F 
ENDBRANCH  38  40
ENDBRANCH  32  34
ENDBRANCH  27  30
ENDBRANCH   1  29
TORSDOF 7
