REMARK  Name = CHEMBL232334
REMARK  13 active torsions:
REMARK  status: ('A' for Active; 'I' for Inactive)
REMARK    1  A    between atoms: C_1  and  N_2
REMARK    2  A    between atoms: C_10  and  C_11
REMARK    3  A    between atoms: N_13  and  C_14
REMARK    4  A    between atoms: C_17  and  C_22
REMARK    5  A    between atoms: C_19  and  O_20
REMARK    6  A    between atoms: O_20  and  C_21
REMARK    7  A    between atoms: C_27  and  N_39
REMARK    8  A    between atoms: C_30  and  C_31
REMARK    9  A    between atoms: N_33  and  C_34
REMARK   10  A    between atoms: C_34  and  C_35
REMARK   11  A    between atoms: C_35  and  N_36
REMARK   12  A    between atoms: N_36  and  C_37
REMARK   13  A    between atoms: N_36  and  C_38
REMARK                            x       y       z     vdW  Elec       q    Type
REMARK                         _______ _______ _______ _____ _____    ______ ____
ROOT
ATOM      1  C   UNL     1      -0.705  -0.004   4.640  0.00  0.00    +0.076 A 
ATOM      2  C   UNL     1      -0.007  -0.635   5.661  0.00  0.00    +0.027 A 
ATOM      3  C   UNL     1       0.010  -0.089   6.928  0.00  0.00    +0.010 A 
ATOM      4  C   UNL     1      -0.675   1.099   7.186  0.00  0.00    -0.013 A 
ATOM      5  C   UNL     1      -1.376   1.733   6.161  0.00  0.00    +0.056 A 
ATOM      6  C   UNL     1      -1.387   1.186   4.891  0.00  0.00    +0.142 A 
ENDROOT
BRANCH   4   7
ATOM      7  C   UNL     1      -0.657   1.685   8.547  0.00  0.00    +0.000 A 
ATOM      8  C   UNL     1      -1.814   1.920   9.210  0.00  0.00    +0.055 A 
ATOM      9  S   UNL     1      -1.270   2.611  10.761  0.00  0.00    -0.095 S 
ATOM     10  C   UNL     1       0.480   2.568  10.486  0.00  0.00    +0.037 A 
ATOM     11  C   UNL     1       0.608   2.013   9.199  0.00  0.00    +0.037 A 
ATOM     12  C   UNL     1       1.935   1.857   8.719  0.00  0.00    +0.125 A 
ATOM     13  N   UNL     1       2.974   2.211   9.451  0.00  0.00    -0.239 NA
ATOM     14  C   UNL     1       2.869   2.727  10.660  0.00  0.00    +0.127 A 
ATOM     15  C   UNL     1       1.609   2.934  11.226  0.00  0.00    +0.069 A 
BRANCH  15  16
ATOM     16  C   UNL     1       1.472   3.509  12.574  0.00  0.00    +0.247 C 
ATOM     17  O   UNL     1       0.368   3.669  13.058  0.00  0.00    -0.270 OA
ATOM     18  N   UNL     1       2.571   3.856  13.272  0.00  0.00    -0.313 N 
ATOM     19  H   UNL     1       3.452   3.728  12.886  0.00  0.00    +0.149 HD
BRANCH  18  20
ATOM     20  C   UNL     1       2.436   4.428  14.614  0.00  0.00    +0.086 C 
BRANCH  20  21
ATOM     21  C   UNL     1       3.824   4.731  15.182  0.00  0.00    -0.061 C 
BRANCH  21  22
ATOM     22  N   UNL     1       3.688   5.304  16.528  0.00  0.00    +0.377 N 
ATOM     23  C   UNL     1       3.111   4.301  17.431  0.00  0.00    -0.097 C 
ATOM     24  C   UNL     1       5.011   5.707  17.024  0.00  0.00    -0.097 C 
ATOM     25  H   UNL     1       3.084   6.111  16.490  0.00  0.00    -0.083 HD
ENDBRANCH  21  22
ENDBRANCH  20  21
ENDBRANCH  18  20
ENDBRANCH  15  16
BRANCH  12  26
ATOM     26  N   UNL     1       2.143   1.323   7.461  0.00  0.00    -0.343 N 
ATOM     27  H   UNL     1       1.498   1.483   6.754  0.00  0.00    +0.144 HD
ATOM     28  H   UNL     1       2.933   0.788   7.286  0.00  0.00    +0.144 HD
ENDBRANCH  12  26
ENDBRANCH   4   7
BRANCH   1  31
ATOM     29  C   UNL     1       0.274  -1.383   2.966  0.00  0.00    +0.265 C 
ATOM     30  O   UNL     1       1.183  -1.645   3.732  0.00  0.00    -0.268 OA
ATOM     31  N   UNL     1      -0.720  -0.561   3.356  0.00  0.00    -0.277 N 
ATOM     32  H   UNL     1      -1.446  -0.355   2.746  0.00  0.00    +0.155 HD
BRANCH  29  42
ATOM     33  C   UNL     1       2.293  -3.450   1.881  0.00  0.00    +0.149 C 
ATOM     34  N   UNL     1       1.166  -2.889   1.133  0.00  0.00    -0.339 N 
ATOM     35  C   UNL     1       0.831  -3.201  -0.164  0.00  0.00    +0.049 A 
ATOM     36  C   UNL     1       1.384  -4.061  -1.110  0.00  0.00    +0.026 A 
ATOM     37  C   UNL     1       0.812  -4.163  -2.358  0.00  0.00    +0.002 A 
ATOM     38  C   UNL     1      -0.314  -3.417  -2.685  0.00  0.00    +0.001 A 
ATOM     39  C   UNL     1      -0.873  -2.568  -1.775  0.00  0.00    +0.010 A 
ATOM     40  C   UNL     1      -0.310  -2.446  -0.498  0.00  0.00    +0.001 A 
ATOM     41  C   UNL     1      -0.643  -1.675   0.642  0.00  0.00    +0.041 A 
ATOM     42  C   UNL     1       0.260  -1.965   1.615  0.00  0.00    +0.105 A 
ENDBRANCH  29  42
ENDBRANCH   1  31
BRANCH   6  43
ATOM     43  O   UNL     1      -2.066   1.805   3.889  0.00  0.00    -0.493 OA
ATOM     44  C   UNL     1      -2.741   3.021   4.218  0.00  0.00    +0.277 C 
ENDBRANCH   6  43
TORSDOF 9
