REMARK  Name = CHEMBL413118
REMARK  5 active torsions:
REMARK  status: ('A' for Active; 'I' for Inactive)
REMARK    1  A    between atoms: C_1  and  O_2
REMARK    2  A    between atoms: O_2  and  C_3
REMARK    3  A    between atoms: C_3  and  C_5
REMARK    4  A    between atoms: C_10  and  O_16
REMARK    5  A    between atoms: C_11  and  O_15
REMARK                            x       y       z     vdW  Elec       q    Type
REMARK                         _______ _______ _______ _____ _____    ______ ____
ROOT
ATOM      1  C   UNL     1       0.659  -2.076  -1.122  0.00  0.00    +0.148 A 
ATOM      2  C   UNL     1       1.282  -2.675  -2.204  0.00  0.00    +0.043 A 
ATOM      3  C   UNL     1       1.328  -4.078  -2.259  0.00  0.00    -0.010 A 
ATOM      4  C   UNL     1       1.942  -4.760  -3.320  0.00  0.00    +0.012 A 
ATOM      5  C   UNL     1       1.961  -6.122  -3.330  0.00  0.00    +0.050 A 
ATOM      6  C   UNL     1       1.378  -6.856  -2.296  0.00  0.00    +0.159 A 
ATOM      7  C   UNL     1       0.764  -6.218  -1.233  0.00  0.00    +0.168 A 
ATOM      8  C   UNL     1       0.731  -4.814  -1.200  0.00  0.00    +0.045 A 
ATOM      9  C   UNL     1       0.121  -4.112  -0.145  0.00  0.00    +0.124 A 
ATOM     10  N   UNL     1       0.113  -2.803  -0.142  0.00  0.00    -0.248 NA
ENDROOT
BRANCH   1  11
ATOM     11  C   UNL     1       0.601  -0.602  -1.047  0.00  0.00    +0.357 C 
ATOM     12  O   UNL     1       1.093   0.071  -1.930  0.00  0.00    -0.243 OA
BRANCH  11  14
ATOM     13  C   UNL     1      -0.017   1.425   0.010  0.00  0.00    +0.280 C 
ATOM     14  O   UNL     1       0.002  -0.004   0.002  0.00  0.00    -0.463 OA
ENDBRANCH  11  14
ENDBRANCH   1  11
BRANCH   7  15
ATOM     15  O   UNL     1       0.199  -6.941  -0.231  0.00  0.00    -0.503 OA
ATOM     16  H   UNL     1       0.802  -7.143   0.497  0.00  0.00    +0.292 HD
ENDBRANCH   7  15
BRANCH   6  17
ATOM     17  O   UNL     1       1.414  -8.215  -2.334  0.00  0.00    -0.503 OA
ATOM     18  H   UNL     1       2.191  -8.600  -1.907  0.00  0.00    +0.292 HD
ENDBRANCH   6  17
TORSDOF 4
