REMARK  Name = CHEMBL566373
REMARK  6 active torsions:
REMARK  status: ('A' for Active; 'I' for Inactive)
REMARK    1  A    between atoms: C_1  and  C_2
REMARK    2  A    between atoms: C_2  and  N_3
REMARK    3  A    between atoms: N_6  and  C_9
REMARK    4  A    between atoms: N_24  and  C_25
REMARK    5  A    between atoms: C_25  and  C_27
REMARK    6  A    between atoms: C_25  and  C_28
REMARK                            x       y       z     vdW  Elec       q    Type
REMARK                         _______ _______ _______ _____ _____    ______ ____
ROOT
ATOM      1  C   UNL     1       3.695  -1.472  -2.885  0.00  0.00    +0.040 A 
ATOM      2  C   UNL     1       3.948  -1.997  -4.151  0.00  0.00    +0.026 A 
ATOM      3  C   UNL     1       5.233  -2.321  -4.526  0.00  0.00    +0.030 A 
ATOM      4  C   UNL     1       6.284  -2.124  -3.641  0.00  0.00    +0.075 A 
ATOM      5  C   UNL     1       6.037  -1.596  -2.363  0.00  0.00    +0.091 A 
ATOM      6  C   UNL     1       4.731  -1.266  -1.994  0.00  0.00    +0.053 A 
ATOM      7  N   UNL     1       7.236  -1.517  -1.728  0.00  0.00    -0.235 NA
ATOM      8  C   UNL     1       8.178  -1.951  -2.512  0.00  0.00    +0.206 A 
ATOM      9  N   UNL     1       7.650  -2.340  -3.708  0.00  0.00    -0.283 N 
ATOM     10  C   UNL     1       8.354  -2.858  -4.793  0.00  0.00    +0.144 A 
ATOM     11  C   UNL     1       9.736  -3.029  -4.723  0.00  0.00    +0.066 A 
ATOM     12  C   UNL     1      10.393  -3.547  -5.824  0.00  0.00    +0.118 A 
ATOM     13  N   UNL     1       9.696  -3.863  -6.905  0.00  0.00    -0.223 NA
ATOM     14  C   UNL     1       8.383  -3.689  -6.942  0.00  0.00    +0.217 A 
ATOM     15  N   UNL     1       7.717  -3.201  -5.907  0.00  0.00    -0.197 NA
ATOM     16  N   UNL     1       7.690  -4.031  -8.090  0.00  0.00    -0.307 N 
ATOM     17  H   UNL     1       6.728  -3.909  -8.131  0.00  0.00    +0.149 HD
ENDROOT
BRANCH   1  21
ATOM     18  N   UNL     1       0.169  -0.835  -2.728  0.00  0.00    -0.284 N 
ATOM     19  C   UNL     1       0.442  -0.481  -1.327  0.00  0.00    +0.128 C 
ATOM     20  C   UNL     1       1.961  -0.695  -1.181  0.00  0.00    +0.134 C 
ATOM     21  N   UNL     1       2.383  -1.147  -2.515  0.00  0.00    -0.254 N 
ATOM     22  C   UNL     1       1.313  -1.202  -3.319  0.00  0.00    +0.309 C 
ATOM     23  O   UNL     1       1.376  -1.551  -4.482  0.00  0.00    -0.252 OA
BRANCH  18  25
ATOM     24  C   UNL     1      -1.837  -2.153  -3.199  0.00  0.00    +0.024 C 
ATOM     25  C   UNL     1      -1.146  -0.798  -3.372  0.00  0.00    +0.106 C 
ENDBRANCH  18  25
ENDBRANCH   1  21
BRANCH  16  26
ATOM     26  C   UNL     1       8.408  -4.578  -9.244  0.00  0.00    +0.100 C 
ATOM     27  C   UNL     1       8.576  -6.089  -9.071  0.00  0.00    +0.033 C 
BRANCH  26  28
ATOM     28  C   UNL     1       7.625  -4.301 -10.501  0.00  0.00    -0.027 A 
ATOM     29  C   UNL     1       6.247  -4.413 -10.496  0.00  0.00    +0.005 A 
ATOM     30  C   UNL     1       5.528  -4.158 -11.649  0.00  0.00    +0.000 A 
ATOM     31  C   UNL     1       6.187  -3.791 -12.807  0.00  0.00    +0.000 A 
ATOM     32  C   UNL     1       7.565  -3.678 -12.812  0.00  0.00    +0.000 A 
ATOM     33  C   UNL     1       8.283  -3.928 -11.658  0.00  0.00    +0.005 A 
ENDBRANCH  26  28
ENDBRANCH  16  26
TORSDOF 4
