REMARK  Name = CHEMBL1336
REMARK  7 active torsions:
REMARK  status: ('A' for Active; 'I' for Inactive)
REMARK    1  A    between atoms: C_1  and  N_2
REMARK    2  A    between atoms: C_3  and  C_5
REMARK    3  A    between atoms: C_7  and  O_11
REMARK    4  A    between atoms: O_11  and  C_12
REMARK    5  A    between atoms: C_15  and  N_18
REMARK    6  A    between atoms: N_21  and  C_22
REMARK    7  A    between atoms: C_26  and  C_28
REMARK                            x       y       z     vdW  Elec       q    Type
REMARK                         _______ _______ _______ _____ _____    ______ ____
ROOT
ATOM      1  C   UNL     1      -3.446  -6.357  -0.038  0.00  0.00    +0.129 A 
ATOM      2  C   UNL     1      -2.245  -7.051  -0.018  0.00  0.00    +0.048 A 
ATOM      3  C   UNL     1      -2.243  -8.431  -0.058  0.00  0.00    +0.027 A 
ATOM      4  C   UNL     1      -3.444  -9.125  -0.118  0.00  0.00    +0.035 A 
ATOM      5  C   UNL     1      -4.646  -8.430  -0.138  0.00  0.00    +0.027 A 
ATOM      6  C   UNL     1      -4.647  -7.050  -0.093  0.00  0.00    +0.048 A 
ENDROOT
BRANCH   4   7
ATOM      7  N   UNL     1      -3.443 -10.525  -0.159  0.00  0.00    -0.269 N 
ATOM      8  C   UNL     1      -2.511 -11.219   0.524  0.00  0.00    +0.308 C 
ATOM      9  O   UNL     1      -1.622 -10.630   1.108  0.00  0.00    -0.252 OA
ATOM     10  N   UNL     1      -2.564 -12.565   0.559  0.00  0.00    -0.269 N 
ATOM     11  H   UNL     1      -4.114 -10.996  -0.678  0.00  0.00    +0.156 HD
ATOM     12  H   UNL     1      -3.225 -13.038   0.030  0.00  0.00    +0.156 HD
BRANCH  10  13
ATOM     13  C   UNL     1      -1.665 -13.280   1.360  0.00  0.00    +0.035 A 
ATOM     14  C   UNL     1      -1.253 -12.758   2.579  0.00  0.00    +0.025 A 
ATOM     15  C   UNL     1      -0.367 -13.466   3.367  0.00  0.00    +0.022 A 
ATOM     16  C   UNL     1       0.110 -14.694   2.943  0.00  0.00    +0.053 A 
ATOM     17  C   UNL     1      -0.299 -15.216   1.729  0.00  0.00    +0.075 A 
ATOM     18  C   UNL     1      -1.190 -14.515   0.939  0.00  0.00    +0.037 A 
ATOM     19 CL   UNL     1       1.223 -15.581   3.937  0.00  0.00    -0.083 Cl
BRANCH  17  20
ATOM     20  C   UNL     1       0.222 -16.553   1.270  0.00  0.00    +0.419 C 
ATOM     21  F   UNL     1      -0.330 -16.866   0.023  0.00  0.00    -0.166 F 
ATOM     22  F   UNL     1       1.616 -16.498   1.163  0.00  0.00    -0.166 F 
ATOM     23  F   UNL     1      -0.135 -17.537   2.199  0.00  0.00    -0.166 F 
ENDBRANCH  17  20
ENDBRANCH  10  13
ENDBRANCH   4   7
BRANCH   1  24
ATOM     24  O   UNL     1      -3.447  -4.998   0.001  0.00  0.00    -0.456 OA
BRANCH  24  27
ATOM     25  C   UNL     1      -2.345  -4.288  -3.403  0.00  0.00    +0.129 A 
ATOM     26  C   UNL     1      -2.679  -5.013  -2.264  0.00  0.00    +0.079 A 
ATOM     27  C   UNL     1      -3.111  -4.328  -1.131  0.00  0.00    +0.132 A 
ATOM     28  C   UNL     1      -3.190  -2.939  -1.188  0.00  0.00    +0.066 A 
ATOM     29  C   UNL     1      -2.840  -2.288  -2.357  0.00  0.00    +0.115 A 
ATOM     30  N   UNL     1      -2.430  -2.963  -3.410  0.00  0.00    -0.250 NA
BRANCH  25  33
ATOM     31  C   UNL     1      -1.095  -5.008  -6.923  0.00  0.00    +0.128 C 
ATOM     32  N   UNL     1      -1.552  -4.304  -5.723  0.00  0.00    -0.313 N 
ATOM     33  C   UNL     1      -1.883  -5.000  -4.617  0.00  0.00    +0.262 C 
ATOM     34  O   UNL     1      -1.802  -6.213  -4.617  0.00  0.00    -0.269 OA
ATOM     35  H   UNL     1      -1.616  -3.336  -5.723  0.00  0.00    +0.149 HD
ENDBRANCH  25  33
ENDBRANCH  24  27
ENDBRANCH   1  24
TORSDOF 6
