REMARK  Name = CHEMBL213478
REMARK  5 active torsions:
REMARK  status: ('A' for Active; 'I' for Inactive)
REMARK    1  A    between atoms: C_1  and  C_2
REMARK    2  A    between atoms: C_5  and  N_20
REMARK    3  A    between atoms: C_7  and  C_8
REMARK    4  A    between atoms: N_18  and  C_19
REMARK    5  A    between atoms: C_27  and  C_31
REMARK                            x       y       z     vdW  Elec       q    Type
REMARK                         _______ _______ _______ _____ _____    ______ ____
ROOT
ATOM      1  C   UNL     1      -0.764   1.419   0.489  0.00  0.00    +0.044 C 
ATOM      2  C   UNL     1      -0.546  -0.066   0.353  0.00  0.00    -0.043 A 
ATOM      3  C   UNL     1      -0.457  -0.639  -0.900  0.00  0.00    +0.006 A 
ATOM      4  C   UNL     1      -0.257  -2.000  -1.029  0.00  0.00    +0.023 A 
ATOM      5  C   UNL     1      -0.144  -2.800   0.102  0.00  0.00    +0.034 A 
ATOM      6  C   UNL     1      -0.232  -2.232   1.364  0.00  0.00    +0.032 A 
ATOM      7  C   UNL     1      -0.428  -0.859   1.493  0.00  0.00    -0.013 A 
ENDROOT
BRANCH   7   8
ATOM      8  C   UNL     1      -0.518  -0.244   2.840  0.00  0.00    -0.017 A 
ATOM      9  C   UNL     1       0.256   0.888   3.142  0.00  0.00    +0.010 A 
ATOM     10  C   UNL     1       0.194   1.472   4.368  0.00  0.00    +0.029 A 
ATOM     11  C   UNL     1      -0.655   0.942   5.353  0.00  0.00    +0.076 A 
ATOM     12  C   UNL     1      -1.442  -0.202   5.058  0.00  0.00    +0.019 A 
ATOM     13  C   UNL     1      -1.367  -0.787   3.788  0.00  0.00    +0.020 A 
ATOM     14  C   UNL     1      -2.284  -0.712   6.064  0.00  0.00    +0.124 A 
ATOM     15  N   UNL     1      -2.304  -0.106   7.233  0.00  0.00    -0.222 NA
ATOM     16  C   UNL     1      -1.552   0.966   7.475  0.00  0.00    +0.215 A 
ATOM     17  N   UNL     1      -0.745   1.488   6.572  0.00  0.00    -0.215 NA
ATOM     18  N   UNL     1      -1.620   1.556   8.724  0.00  0.00    -0.317 N 
ATOM     19  C   UNL     1      -2.507   1.000   9.749  0.00  0.00    +0.128 C 
ATOM     20  H   UNL     1      -1.081   2.337   8.921  0.00  0.00    +0.149 HD
ENDBRANCH   7   8
BRANCH   5  21
ATOM     21  N   UNL     1       0.058  -4.177  -0.032  0.00  0.00    -0.285 N 
ATOM     22  C   UNL     1       0.758  -4.870   0.935  0.00  0.00    +0.198 A 
ATOM     23  N   UNL     1       0.931  -6.224   0.960  0.00  0.00    -0.326 N 
ATOM     24  H   UNL     1       0.590  -6.859   0.311  0.00  0.00    +0.169 HD
ATOM     25  C   UNL     1       1.685  -6.521   2.083  0.00  0.00    +0.067 A 
ATOM     26  C   UNL     1       2.171  -7.699   2.630  0.00  0.00    +0.028 A 
ATOM     27  C   UNL     1       2.912  -7.661   3.794  0.00  0.00    +0.014 A 
ATOM     28  C   UNL     1       3.172  -6.452   4.422  0.00  0.00    +0.057 A 
ATOM     29  C   UNL     1       2.696  -5.273   3.893  0.00  0.00    +0.042 A 
ATOM     30  C   UNL     1       1.946  -5.294   2.715  0.00  0.00    +0.091 A 
ATOM     31  N   UNL     1       1.359  -4.325   1.964  0.00  0.00    -0.214 NA
ATOM     32  H   UNL     1      -0.293  -4.645  -0.805  0.00  0.00    +0.155 HD
BRANCH  28  33
ATOM     33  C   UNL     1       3.982  -6.428   5.692  0.00  0.00    +0.417 C 
ATOM     34  F   UNL     1       4.352  -7.733   6.034  0.00  0.00    -0.166 F 
ATOM     35  F   UNL     1       5.130  -5.653   5.499  0.00  0.00    -0.166 F 
ATOM     36  F   UNL     1       3.215  -5.876   6.724  0.00  0.00    -0.166 F 
ENDBRANCH  28  33
ENDBRANCH   5  21
TORSDOF 3
