REMARK  Name = CHEMBL584044
REMARK  5 active torsions:
REMARK  status: ('A' for Active; 'I' for Inactive)
REMARK    1  A    between atoms: C_1  and  C_2
REMARK    2  A    between atoms: C_2  and  C_3
REMARK    3  A    between atoms: C_2  and  N_13
REMARK    4  A    between atoms: N_11  and  C_12
REMARK    5  A    between atoms: C_18  and  N_20
REMARK                            x       y       z     vdW  Elec       q    Type
REMARK                         _______ _______ _______ _____ _____    ______ ____
ROOT
ATOM      1  N   UNL     1      -1.373  -0.515   0.012  0.00  0.00    -0.311 N 
ATOM      2  C   UNL     1      -2.069  -0.651  -1.176  0.00  0.00    +0.217 A 
ATOM      3  N   UNL     1      -1.476  -0.323  -2.314  0.00  0.00    -0.223 NA
ATOM      4  C   UNL     1      -2.111  -0.440  -3.471  0.00  0.00    +0.118 A 
ATOM      5  C   UNL     1      -3.410  -0.911  -3.483  0.00  0.00    +0.066 A 
ATOM      6  C   UNL     1      -4.008  -1.248  -2.269  0.00  0.00    +0.144 A 
ATOM      7  N   UNL     1      -3.311  -1.110  -1.147  0.00  0.00    -0.197 NA
ATOM      8  H   UNL     1      -1.794  -0.755   0.852  0.00  0.00    +0.149 HD
ENDROOT
BRANCH   6   9
ATOM      9  N   UNL     1      -5.317  -1.726  -2.235  0.00  0.00    -0.283 N 
ATOM     10  C   UNL     1      -6.135  -1.924  -3.308  0.00  0.00    +0.206 A 
ATOM     11  N   UNL     1      -7.287  -2.379  -2.912  0.00  0.00    -0.235 NA
ATOM     12  C   UNL     1      -7.291  -2.506  -1.560  0.00  0.00    +0.089 A 
ATOM     13  C   UNL     1      -6.026  -2.095  -1.105  0.00  0.00    +0.075 A 
ATOM     14  C   UNL     1      -5.735  -2.122   0.251  0.00  0.00    +0.028 A 
ATOM     15  C   UNL     1      -6.688  -2.556   1.148  0.00  0.00    +0.002 A 
ATOM     16  C   UNL     1      -7.936  -2.967   0.705  0.00  0.00    +0.002 A 
ATOM     17  C   UNL     1      -8.246  -2.939  -0.637  0.00  0.00    +0.030 A 
ENDBRANCH   6   9
BRANCH   1  19
ATOM     18  C   UNL     1      -0.018   1.521   0.008  0.00  0.00    +0.028 C 
ATOM     19  C   UNL     1       0.002  -0.009   0.001  0.00  0.00    +0.075 C 
BRANCH  19  20
ATOM     20  C   UNL     1       0.742  -0.514   1.241  0.00  0.00    +0.026 C 
ATOM     21  C   UNL     1       2.177   0.017   1.232  0.00  0.00    +0.008 C 
ATOM     22  C   UNL     1       2.928  -0.515   2.455  0.00  0.00    +0.019 C 
ATOM     23  C   UNL     1       2.236  -0.019   3.729  0.00  0.00    +0.109 C 
ATOM     24  N   UNL     1       0.819  -0.403   3.677  0.00  0.00    -0.285 N 
ATOM     25  C   UNL     1       0.026  -0.019   2.501  0.00  0.00    +0.114 C 
ATOM     26  C   UNL     1       0.257  -1.093   4.689  0.00  0.00    +0.302 C 
ATOM     27  O   UNL     1      -0.937  -1.325   4.678  0.00  0.00    -0.253 OA
ATOM     28  N   UNL     1       1.018  -1.526   5.714  0.00  0.00    -0.302 N 
ATOM     29  C   UNL     1       0.430  -2.371   6.757  0.00  0.00    +0.129 C 
ATOM     30  H   UNL     1       1.954  -1.279   5.761  0.00  0.00    +0.150 HD
ENDBRANCH  19  20
ENDBRANCH   1  19
TORSDOF 3
