REMARK  Name = CHEMBL457099
REMARK  6 active torsions:
REMARK  status: ('A' for Active; 'I' for Inactive)
REMARK    1  A    between atoms: C_1  and  N_2
REMARK    2  A    between atoms: C_7  and  C_9
REMARK    3  A    between atoms: C_14  and  O_15
REMARK    4  A    between atoms: O_15  and  C_16
REMARK    5  A    between atoms: C_19  and  N_26
REMARK    6  A    between atoms: N_29  and  C_30
REMARK                            x       y       z     vdW  Elec       q    Type
REMARK                         _______ _______ _______ _____ _____    ______ ____
ROOT
ATOM      1  C   UNL     1      -0.529  -4.992  -1.061  0.00  0.00    +0.138 A 
ATOM      2  C   UNL     1      -0.486  -6.362  -0.931  0.00  0.00    +0.049 A 
ATOM      3  C   UNL     1      -1.052  -7.189  -1.896  0.00  0.00    +0.027 A 
ATOM      4  C   UNL     1      -1.669  -6.658  -3.007  0.00  0.00    +0.043 A 
ATOM      5  C   UNL     1      -1.730  -5.258  -3.169  0.00  0.00    +0.007 A 
ATOM      6  C   UNL     1      -1.159  -4.417  -2.183  0.00  0.00    +0.026 A 
ATOM      7  C   UNL     1      -1.225  -3.023  -2.345  0.00  0.00    +0.012 A 
ATOM      8  C   UNL     1      -1.840  -2.500  -3.441  0.00  0.00    +0.001 A 
ATOM      9  C   UNL     1      -2.407  -3.328  -4.408  0.00  0.00    +0.001 A 
ATOM     10  C   UNL     1      -2.352  -4.683  -4.290  0.00  0.00    +0.010 A 
ENDROOT
BRANCH   4  11
ATOM     11  N   UNL     1      -2.233  -7.503  -3.969  0.00  0.00    -0.269 N 
ATOM     12  C   UNL     1      -2.809  -8.662  -3.593  0.00  0.00    +0.308 C 
ATOM     13  O   UNL     1      -2.772  -9.010  -2.429  0.00  0.00    -0.252 OA
ATOM     14  N   UNL     1      -3.425  -9.436  -4.509  0.00  0.00    -0.269 N 
ATOM     15  H   UNL     1      -2.210  -7.254  -4.906  0.00  0.00    +0.156 HD
ATOM     16  H   UNL     1      -3.382  -9.202  -5.449  0.00  0.00    +0.156 HD
BRANCH  14  17
ATOM     17  C   UNL     1      -4.127 -10.576  -4.102  0.00  0.00    +0.035 A 
ATOM     18  C   UNL     1      -4.142 -11.708  -4.907  0.00  0.00    +0.023 A 
ATOM     19  C   UNL     1      -4.836 -12.832  -4.503  0.00  0.00    +0.002 A 
ATOM     20  C   UNL     1      -5.515 -12.831  -3.299  0.00  0.00    +0.000 A 
ATOM     21  C   UNL     1      -5.502 -11.706  -2.495  0.00  0.00    +0.002 A 
ATOM     22  C   UNL     1      -4.805 -10.581  -2.891  0.00  0.00    +0.023 A 
ENDBRANCH  14  17
ENDBRANCH   4  11
BRANCH   1  23
ATOM     23  O   UNL     1       0.028  -4.198  -0.109  0.00  0.00    -0.437 OA
BRANCH  23  29
ATOM     24  C   UNL     1      -0.209  -3.030   1.956  0.00  0.00    +0.062 A 
ATOM     25  C   UNL     1      -1.045  -2.587   2.983  0.00  0.00    +0.017 A 
ATOM     26  C   UNL     1      -2.393  -2.896   2.914  0.00  0.00    +0.021 A 
ATOM     27  C   UNL     1      -2.868  -3.627   1.841  0.00  0.00    +0.114 A 
ATOM     28  N   UNL     1      -2.059  -4.036   0.883  0.00  0.00    -0.220 NA
ATOM     29  C   UNL     1      -0.766  -3.763   0.900  0.00  0.00    +0.230 A 
BRANCH  24  36
ATOM     30  C   UNL     1       5.568  -3.045  -0.012  0.00  0.00    +0.128 C 
ATOM     31  N   UNL     1       4.131  -3.328  -0.018  0.00  0.00    -0.317 N 
ATOM     32  C   UNL     1       3.332  -2.877   1.018  0.00  0.00    +0.215 A 
ATOM     33  N   UNL     1       3.884  -2.187   2.006  0.00  0.00    -0.223 NA
ATOM     34  C   UNL     1       3.155  -1.738   3.015  0.00  0.00    +0.116 A 
ATOM     35  C   UNL     1       1.796  -1.996   3.035  0.00  0.00    +0.048 A 
ATOM     36  C   UNL     1       1.241  -2.727   1.980  0.00  0.00    +0.081 A 
ATOM     37  N   UNL     1       2.036  -3.142   0.995  0.00  0.00    -0.214 NA
ATOM     38  H   UNL     1       3.739  -3.831  -0.749  0.00  0.00    +0.149 HD
ENDBRANCH  24  36
ENDBRANCH  23  29
ENDBRANCH   1  23
TORSDOF 5
