REMARK  Name = CHEMBL247880
REMARK  6 active torsions:
REMARK  status: ('A' for Active; 'I' for Inactive)
REMARK    1  A    between atoms: C_4  and  C_7
REMARK    2  A    between atoms: C_15  and  C_16
REMARK    3  A    between atoms: C_19  and  N_22
REMARK    4  A    between atoms: N_28  and  C_29
REMARK    5  A    between atoms: C_29  and  C_30
REMARK    6  A    between atoms: C_30  and  N_31
REMARK                            x       y       z     vdW  Elec       q    Type
REMARK                         _______ _______ _______ _____ _____    ______ ____
ROOT
ATOM      1  C   UNL     1       3.687  -0.705  -0.025  0.00  0.00    +0.041 A 
ATOM      2  C   UNL     1       4.174  -1.629  -1.057  0.00  0.00    +0.088 A 
ATOM      3  C   UNL     1       3.660  -2.144  -2.254  0.00  0.00    +0.134 A 
ATOM      4  N   UNL     1       4.415  -2.989  -2.953  0.00  0.00    -0.220 NA
ATOM      5  C   UNL     1       5.617  -3.333  -2.529  0.00  0.00    +0.227 A 
ATOM      6  N   UNL     1       6.136  -2.872  -1.410  0.00  0.00    -0.200 NA
ATOM      7  C   UNL     1       5.458  -2.022  -0.644  0.00  0.00    +0.233 A 
ATOM      8  O   UNL     1       5.722  -1.401   0.519  0.00  0.00    -0.436 OA
ATOM      9  C   UNL     1       4.694  -0.616   0.898  0.00  0.00    +0.146 A 
ATOM     10  N   UNL     1       2.400  -1.785  -2.699  0.00  0.00    -0.327 N 
ATOM     11  H   UNL     1       1.861  -1.168  -2.179  0.00  0.00    +0.148 HD
ENDROOT
BRANCH   1  15
ATOM     12  C   UNL     1      -0.063   1.292   0.067  0.00  0.00    +0.000 A 
ATOM     13  C   UNL     1       1.101   2.020  -0.102  0.00  0.00    +0.001 A 
ATOM     14  C   UNL     1       2.322   1.378  -0.133  0.00  0.00    +0.008 A 
ATOM     15  C   UNL     1       2.381  -0.009   0.007  0.00  0.00    -0.014 A 
ATOM     16  C   UNL     1       1.203  -0.738   0.178  0.00  0.00    +0.008 A 
ATOM     17  C   UNL     1      -0.011  -0.083   0.207  0.00  0.00    +0.001 A 
ENDBRANCH   1  15
BRANCH   9  18
ATOM     18  C   UNL     1       4.658   0.210   2.119  0.00  0.00    +0.018 A 
ATOM     19  C   UNL     1       3.546   0.162   2.965  0.00  0.00    +0.013 A 
ATOM     20  C   UNL     1       3.517   0.934   4.106  0.00  0.00    +0.024 A 
ATOM     21  C   UNL     1       4.592   1.760   4.416  0.00  0.00    +0.030 A 
ATOM     22  C   UNL     1       5.700   1.810   3.577  0.00  0.00    +0.024 A 
ATOM     23  C   UNL     1       5.739   1.037   2.438  0.00  0.00    +0.013 A 
BRANCH  21  24
ATOM     24  N   UNL     1       4.559   2.540   5.572  0.00  0.00    -0.326 N 
ATOM     25  C   UNL     1       5.622   3.516   5.858  0.00  0.00    +0.133 C 
ATOM     26  C   UNL     1       4.967   4.863   6.187  0.00  0.00    +0.178 C 
ATOM     27  O   UNL     1       3.988   4.673   7.211  0.00  0.00    -0.377 OA
ATOM     28  C   UNL     1       2.909   3.813   6.836  0.00  0.00    +0.178 C 
ATOM     29  C   UNL     1       3.455   2.416   6.538  0.00  0.00    +0.133 C 
ENDBRANCH  21  24
ENDBRANCH   9  18
BRANCH  10  30
ATOM     30  C   UNL     1       1.881  -2.335  -3.953  0.00  0.00    +0.118 C 
BRANCH  30  31
ATOM     31  C   UNL     1       0.479  -1.780  -4.212  0.00  0.00    +0.103 C 
BRANCH  31  32
ATOM     32  N   UNL     1      -0.041  -2.332  -5.470  0.00  0.00    -0.304 NA
ATOM     33  C   UNL     1      -0.259  -3.781  -5.359  0.00  0.00    +0.065 C 
ATOM     34  C   UNL     1      -0.743  -4.326  -6.705  0.00  0.00    -0.067 C 
ATOM     35  N   UNL     1      -1.992  -3.653  -7.084  0.00  0.00    +0.381 N 
ATOM     36  C   UNL     1      -1.754  -2.210  -7.215  0.00  0.00    -0.067 C 
ATOM     37  C   UNL     1      -1.278  -1.648  -5.873  0.00  0.00    +0.065 C 
ATOM     38  H   UNL     1      -2.318  -4.021  -7.966  0.00  0.00    -0.086 HD
ATOM     39  H   UNL     1      -2.691  -3.816  -6.374  0.00  0.00    -0.086 HD
ENDBRANCH  31  32
ENDBRANCH  30  31
ENDBRANCH  10  30
TORSDOF 6
