REMARK  Name = CHEMBL572199
REMARK  7 active torsions:
REMARK  status: ('A' for Active; 'I' for Inactive)
REMARK    1  A    between atoms: C_1  and  C_2
REMARK    2  A    between atoms: C_2  and  C_3
REMARK    3  A    between atoms: C_2  and  N_29
REMARK    4  A    between atoms: N_8  and  C_9
REMARK    5  A    between atoms: C_9  and  C_10
REMARK    6  A    between atoms: N_18  and  C_19
REMARK    7  A    between atoms: C_34  and  N_36
REMARK                            x       y       z     vdW  Elec       q    Type
REMARK                         _______ _______ _______ _____ _____    ______ ____
ROOT
ATOM      1  C   UNL     1      -1.558  -1.006  -0.345  0.00  0.00    +0.094 C 
ATOM      2  C   UNL     1      -2.024  -0.637   1.068  0.00  0.00    +0.130 C 
ATOM      3  N   UNL     1      -3.488  -0.772   1.127  0.00  0.00    -0.283 N 
ATOM      4  C   UNL     1      -4.291  -0.103   0.092  0.00  0.00    +0.124 C 
ATOM      5  C   UNL     1      -3.736  -0.492  -1.282  0.00  0.00    +0.104 C 
ATOM      6  N   UNL     1      -2.297  -0.199  -1.326  0.00  0.00    -0.291 NA
ATOM      7  C   UNL     1      -4.077  -1.491   2.104  0.00  0.00    +0.307 C 
ATOM      8  O   UNL     1      -3.397  -2.114   2.896  0.00  0.00    -0.252 OA
ATOM      9  N   UNL     1      -5.421  -1.518   2.202  0.00  0.00    -0.269 N 
ATOM     10  H   UNL     1      -5.966  -1.075   1.533  0.00  0.00    +0.156 HD
ENDROOT
BRANCH   9  11
ATOM     11  C   UNL     1      -6.029  -2.185   3.268  0.00  0.00    +0.042 A 
ATOM     12  C   UNL     1      -5.308  -2.484   4.403  0.00  0.00    +0.024 A 
ATOM     13  C   UNL     1      -5.905  -3.149   5.471  0.00  0.00    +0.002 A 
ATOM     14  C   UNL     1      -7.214  -3.521   5.424  0.00  0.00    +0.008 A 
ATOM     15  C   UNL     1      -7.984  -3.234   4.284  0.00  0.00    -0.016 A 
ATOM     16  C   UNL     1      -7.390  -2.553   3.194  0.00  0.00    +0.003 A 
ATOM     17  C   UNL     1      -8.162  -2.262   2.058  0.00  0.00    +0.010 A 
ATOM     18  C   UNL     1      -9.472  -2.632   2.022  0.00  0.00    +0.001 A 
ATOM     19  C   UNL     1     -10.060  -3.296   3.097  0.00  0.00    +0.001 A 
ATOM     20  C   UNL     1      -9.338  -3.606   4.208  0.00  0.00    +0.008 A 
ENDBRANCH   9  11
BRANCH   1  22
ATOM     21  C   UNL     1       0.191   0.778  -0.344  0.00  0.00    +0.029 C 
ATOM     22  C   UNL     1      -0.060  -0.725  -0.477  0.00  0.00    +0.089 C 
BRANCH  22  23
ATOM     23  N   UNL     1       0.665  -1.437   0.578  0.00  0.00    -0.309 N 
ATOM     24  C   UNL     1       1.994  -1.777   0.396  0.00  0.00    +0.217 A 
ATOM     25  N   UNL     1       2.596  -1.447  -0.738  0.00  0.00    -0.223 NA
ATOM     26  C   UNL     1       3.867  -1.755  -0.948  0.00  0.00    +0.118 A 
ATOM     27  C   UNL     1       4.569  -2.431   0.032  0.00  0.00    +0.066 A 
ATOM     28  C   UNL     1       3.909  -2.765   1.214  0.00  0.00    +0.144 A 
ATOM     29  N   UNL     1       2.634  -2.420   1.360  0.00  0.00    -0.197 NA
ATOM     30  H   UNL     1       0.214  -1.669   1.405  0.00  0.00    +0.149 HD
BRANCH  28  31
ATOM     31  N   UNL     1       4.577  -3.447   2.229  0.00  0.00    -0.283 N 
ATOM     32  C   UNL     1       5.881  -3.849   2.212  0.00  0.00    +0.206 A 
ATOM     33  N   UNL     1       6.175  -4.457   3.323  0.00  0.00    -0.235 NA
ATOM     34  C   UNL     1       5.083  -4.489   4.131  0.00  0.00    +0.089 A 
ATOM     35  C   UNL     1       4.044  -3.838   3.445  0.00  0.00    +0.075 A 
ATOM     36  C   UNL     1       2.796  -3.712   4.036  0.00  0.00    +0.028 A 
ATOM     37  C   UNL     1       2.579  -4.225   5.297  0.00  0.00    +0.002 A 
ATOM     38  C   UNL     1       3.602  -4.866   5.981  0.00  0.00    +0.002 A 
ATOM     39  C   UNL     1       4.845  -5.007   5.407  0.00  0.00    +0.030 A 
ENDBRANCH  28  31
ENDBRANCH  22  23
ENDBRANCH   1  22
BRANCH   6  40
ATOM     40  C   UNL     1      -1.761  -0.397  -2.679  0.00  0.00    +0.120 C 
BRANCH  40  41
ATOM     41  C   UNL     1      -2.369   0.617  -3.613  0.00  0.00    -0.033 A 
ATOM     42  C   UNL     1      -3.544   0.325  -4.280  0.00  0.00    +0.005 A 
ATOM     43  C   UNL     1      -4.103   1.255  -5.137  0.00  0.00    +0.000 A 
ATOM     44  C   UNL     1      -3.486   2.478  -5.327  0.00  0.00    +0.000 A 
ATOM     45  C   UNL     1      -2.312   2.771  -4.659  0.00  0.00    +0.000 A 
ATOM     46  C   UNL     1      -1.756   1.842  -3.799  0.00  0.00    +0.005 A 
ENDBRANCH  40  41
ENDBRANCH   6  40
TORSDOF 6
