REMARK  Name = CHEMBL572199
REMARK  7 active torsions:
REMARK  status: ('A' for Active; 'I' for Inactive)
REMARK    1  A    between atoms: C_1  and  C_2
REMARK    2  A    between atoms: C_2  and  C_3
REMARK    3  A    between atoms: C_2  and  N_29
REMARK    4  A    between atoms: N_8  and  C_9
REMARK    5  A    between atoms: C_9  and  C_10
REMARK    6  A    between atoms: N_18  and  C_19
REMARK    7  A    between atoms: C_34  and  N_36
REMARK                            x       y       z     vdW  Elec       q    Type
REMARK                         _______ _______ _______ _____ _____    ______ ____
ROOT
ATOM      1  C   UNL     1      -1.022  -0.056  -0.015  0.00  0.00    +0.094 C 
ATOM      2  C   UNL     1      -1.237  -1.507   0.427  0.00  0.00    +0.130 C 
ATOM      3  N   UNL     1      -0.708  -2.397  -0.618  0.00  0.00    -0.283 N 
ATOM      4  C   UNL     1      -1.142  -2.175  -2.006  0.00  0.00    +0.124 C 
ATOM      5  C   UNL     1      -0.931  -0.698  -2.352  0.00  0.00    +0.104 C 
ATOM      6  N   UNL     1      -1.605   0.138  -1.349  0.00  0.00    -0.291 NA
ATOM      7  C   UNL     1       0.151  -3.389  -0.312  0.00  0.00    +0.307 C 
ATOM      8  O   UNL     1       0.416  -3.627   0.851  0.00  0.00    -0.252 OA
ATOM      9  N   UNL     1       0.717  -4.118  -1.295  0.00  0.00    -0.269 N 
ATOM     10  H   UNL     1       0.532  -3.905  -2.223  0.00  0.00    +0.156 HD
ENDROOT
BRANCH   9  11
ATOM     11  C   UNL     1       1.567  -5.178  -0.976  0.00  0.00    +0.042 A 
ATOM     12  C   UNL     1       1.474  -5.800   0.250  0.00  0.00    +0.024 A 
ATOM     13  C   UNL     1       2.318  -6.857   0.577  0.00  0.00    +0.002 A 
ATOM     14  C   UNL     1       3.256  -7.306  -0.302  0.00  0.00    +0.008 A 
ATOM     15  C   UNL     1       3.383  -6.700  -1.563  0.00  0.00    -0.016 A 
ATOM     16  C   UNL     1       2.526  -5.626  -1.910  0.00  0.00    +0.003 A 
ATOM     17  C   UNL     1       2.651  -5.025  -3.172  0.00  0.00    +0.010 A 
ATOM     18  C   UNL     1       3.587  -5.484  -4.048  0.00  0.00    +0.001 A 
ATOM     19  C   UNL     1       4.426  -6.544  -3.710  0.00  0.00    +0.001 A 
ATOM     20  C   UNL     1       4.342  -7.142  -2.490  0.00  0.00    +0.008 A 
ENDBRANCH   9  11
BRANCH   1  22
ATOM     21  C   UNL     1       0.689   1.736  -0.341  0.00  0.00    +0.029 C 
ATOM     22  C   UNL     1       0.477   0.246  -0.064  0.00  0.00    +0.089 C 
BRANCH  22  23
ATOM     23  N   UNL     1       1.089  -0.103   1.221  0.00  0.00    -0.309 N 
ATOM     24  C   UNL     1       2.435  -0.419   1.284  0.00  0.00    +0.217 A 
ATOM     25  N   UNL     1       3.157  -0.394   0.173  0.00  0.00    -0.223 NA
ATOM     26  C   UNL     1       4.447  -0.689   0.195  0.00  0.00    +0.118 A 
ATOM     27  C   UNL     1       5.044  -1.027   1.395  0.00  0.00    +0.066 A 
ATOM     28  C   UNL     1       4.258  -1.044   2.547  0.00  0.00    +0.144 A 
ATOM     29  N   UNL     1       2.970  -0.732   2.454  0.00  0.00    -0.197 NA
ATOM     30  H   UNL     1       0.550  -0.114   2.027  0.00  0.00    +0.149 HD
BRANCH  28  31
ATOM     31  N   UNL     1       4.817  -1.379   3.779  0.00  0.00    -0.283 N 
ATOM     32  C   UNL     1       6.120  -1.707   4.014  0.00  0.00    +0.206 A 
ATOM     33  N   UNL     1       6.294  -1.962   5.277  0.00  0.00    -0.235 NA
ATOM     34  C   UNL     1       5.118  -1.816   5.942  0.00  0.00    +0.089 A 
ATOM     35  C   UNL     1       4.155  -1.435   4.993  0.00  0.00    +0.075 A 
ATOM     36  C   UNL     1       2.845  -1.206   5.388  0.00  0.00    +0.028 A 
ATOM     37  C   UNL     1       2.494  -1.351   6.714  0.00  0.00    +0.002 A 
ATOM     38  C   UNL     1       3.442  -1.724   7.656  0.00  0.00    +0.002 A 
ATOM     39  C   UNL     1       4.745  -1.963   7.280  0.00  0.00    +0.030 A 
ENDBRANCH  28  31
ENDBRANCH  22  23
ENDBRANCH   1  22
BRANCH   6  40
ATOM     40  C   UNL     1      -1.573   1.555  -1.737  0.00  0.00    +0.120 C 
BRANCH  40  41
ATOM     41  C   UNL     1      -2.657   1.823  -2.749  0.00  0.00    -0.033 A 
ATOM     42  C   UNL     1      -2.393   1.681  -4.098  0.00  0.00    +0.005 A 
ATOM     43  C   UNL     1      -3.387   1.927  -5.027  0.00  0.00    +0.000 A 
ATOM     44  C   UNL     1      -4.645   2.315  -4.605  0.00  0.00    +0.000 A 
ATOM     45  C   UNL     1      -4.909   2.456  -3.256  0.00  0.00    +0.000 A 
ATOM     46  C   UNL     1      -3.916   2.206  -2.327  0.00  0.00    +0.005 A 
ENDBRANCH  40  41
ENDBRANCH   6  40
TORSDOF 6
