REMARK  Name = CHEMBL1084302
REMARK  8 active torsions:
REMARK  status: ('A' for Active; 'I' for Inactive)
REMARK    1  A    between atoms: C_1  and  N_2
REMARK    2  A    between atoms: N_5  and  C_8
REMARK    3  A    between atoms: C_12  and  C_14
REMARK    4  A    between atoms: C_21  and  C_24
REMARK    5  A    between atoms: C_22  and  N_23
REMARK    6  A    between atoms: C_27  and  N_30
REMARK    7  A    between atoms: N_33  and  C_34
REMARK    8  A    between atoms: N_33  and  C_35
REMARK                            x       y       z     vdW  Elec       q    Type
REMARK                         _______ _______ _______ _____ _____    ______ ____
ROOT
ATOM      1  C   UNL     1       0.255  -5.745   4.559  0.00  0.00    +0.046 A 
ATOM      2  C   UNL     1       1.627  -5.968   4.383  0.00  0.00    +0.145 A 
ATOM      3  N   UNL     1       2.146  -6.337   5.528  0.00  0.00    -0.171 NA
ATOM      4  N   UNL     1       1.140  -6.370   6.500  0.00  0.00    -0.200 N 
ATOM      5  C   UNL     1      -0.036  -5.998   5.905  0.00  0.00    +0.165 A 
ATOM      6  N   UNL     1      -1.174  -5.936   6.606  0.00  0.00    -0.235 NA
ATOM      7  C   UNL     1      -1.205  -6.226   7.888  0.00  0.00    +0.125 A 
ATOM      8  C   UNL     1      -0.029  -6.611   8.553  0.00  0.00    +0.040 A 
ATOM      9  C   UNL     1       1.159  -6.687   7.832  0.00  0.00    +0.129 A 
ENDROOT
BRANCH   1  14
ATOM     10  C   UNL     1      -1.319  -3.821   1.734  0.00  0.00    +0.030 A 
ATOM     11  C   UNL     1      -2.513  -4.515   1.571  0.00  0.00    +0.023 A 
ATOM     12  C   UNL     1      -2.801  -5.602   2.375  0.00  0.00    +0.002 A 
ATOM     13  C   UNL     1      -1.906  -6.004   3.346  0.00  0.00    +0.009 A 
ATOM     14  C   UNL     1      -0.706  -5.315   3.518  0.00  0.00    -0.011 A 
ATOM     15  C   UNL     1      -0.412  -4.223   2.703  0.00  0.00    +0.031 A 
BRANCH  10  20
ATOM     16  C   UNL     1      -1.299   1.341  -0.034  0.00  0.00    -0.096 C 
ATOM     17  N   UNL     1      -0.991  -0.095  -0.028  0.00  0.00    +0.380 N 
ATOM     18  C   UNL     1      -2.242  -0.862  -0.085  0.00  0.00    -0.060 C 
ATOM     19  C   UNL     1      -1.919  -2.356  -0.195  0.00  0.00    +0.086 C 
ATOM     20  N   UNL     1      -1.032  -2.724   0.919  0.00  0.00    -0.333 N 
ATOM     21  C   UNL     1       0.167  -1.903   1.151  0.00  0.00    +0.086 C 
ATOM     22  C   UNL     1      -0.254  -0.430   1.197  0.00  0.00    -0.060 C 
ATOM     23  H   UNL     1      -0.424  -0.320  -0.832  0.00  0.00    -0.082 HD
ENDBRANCH  10  20
ENDBRANCH   1  14
BRANCH   8  24
ATOM     24  C   UNL     1      -0.054  -6.939   9.999  0.00  0.00    -0.013 A 
ATOM     25  C   UNL     1       0.234  -8.235  10.426  0.00  0.00    +0.010 A 
ATOM     26  C   UNL     1       0.210  -8.537  11.771  0.00  0.00    +0.024 A 
ATOM     27  C   UNL     1      -0.102  -7.553  12.701  0.00  0.00    +0.035 A 
ATOM     28  C   UNL     1      -0.390  -6.261  12.278  0.00  0.00    +0.024 A 
ATOM     29  C   UNL     1      -0.361  -5.952  10.934  0.00  0.00    +0.010 A 
BRANCH  27  30
ATOM     30  N   UNL     1      -0.126  -7.862  14.066  0.00  0.00    -0.269 N 
ATOM     31  C   UNL     1       0.289  -6.954  14.970  0.00  0.00    +0.306 C 
ATOM     32  O   UNL     1       0.606  -5.837  14.609  0.00  0.00    -0.252 OA
ATOM     33  N   UNL     1       0.351  -7.283  16.276  0.00  0.00    -0.285 N 
ATOM     34  C   UNL     1      -0.031  -8.629  16.711  0.00  0.00    +0.134 C 
ATOM     35  H   UNL     1      -0.442  -8.731  14.360  0.00  0.00    +0.156 HD
BRANCH  33  36
ATOM     36  C   UNL     1       0.802  -6.295  17.260  0.00  0.00    +0.077 C 
ATOM     37  C   UNL     1       2.048  -6.821  17.976  0.00  0.00    +0.022 C 
ATOM     38  C   UNL     1       2.519  -5.789  19.003  0.00  0.00    +0.002 C 
ATOM     39  C   UNL     1       1.408  -5.545  20.026  0.00  0.00    +0.000 C 
ATOM     40  C   UNL     1       0.162  -5.019  19.310  0.00  0.00    +0.002 C 
ATOM     41  C   UNL     1      -0.309  -6.051  18.283  0.00  0.00    +0.022 C 
ENDBRANCH  33  36
ENDBRANCH  27  30
ENDBRANCH   8  24
BRANCH   9  42
ATOM     42  N   UNL     1       2.331  -7.058   8.448  0.00  0.00    -0.343 N 
ATOM     43  H   UNL     1       3.155  -7.098   7.939  0.00  0.00    +0.144 HD
ATOM     44  H   UNL     1       2.333  -7.280   9.393  0.00  0.00    +0.144 HD
ENDBRANCH   9  42
TORSDOF 6
