REMARK  Name = CHEMBL185851
REMARK  5 active torsions:
REMARK  status: ('A' for Active; 'I' for Inactive)
REMARK    1  A    between atoms: C_1  and  C_2
REMARK    2  A    between atoms: C_7  and  N_8
REMARK    3  A    between atoms: C_9  and  C_11
REMARK    4  A    between atoms: C_21  and  N_23
REMARK    5  A    between atoms: C_27  and  C_30
REMARK                            x       y       z     vdW  Elec       q    Type
REMARK                         _______ _______ _______ _____ _____    ______ ____
ROOT
ATOM      1  C   UNL     1       1.175   6.213   6.074  0.00  0.00    +0.095 A 
ATOM      2  C   UNL     1       1.112   6.206   7.460  0.00  0.00    +0.133 A 
ATOM      3  N   UNL     1       0.878   5.050   8.027  0.00  0.00    -0.232 NA
ATOM      4  C   UNL     1       0.711   3.952   7.310  0.00  0.00    +0.164 A 
ATOM      5  S   UNL     1       0.871   4.488   5.723  0.00  0.00    -0.047 S 
ATOM      6  N   UNL     1       0.460   2.670   7.758  0.00  0.00    -0.279 N 
ATOM      7  C   UNL     1       0.247   2.435   9.113  0.00  0.00    +0.126 A 
ATOM      8  C   UNL     1      -0.113   1.163   9.542  0.00  0.00    +0.044 A 
ATOM      9  C   UNL     1      -0.322   0.939  10.893  0.00  0.00    +0.007 A 
ATOM     10  C   UNL     1      -0.164   1.996  11.773  0.00  0.00    +0.044 A 
ATOM     11  C   UNL     1       0.198   3.244  11.278  0.00  0.00    +0.123 A 
ATOM     12  N   UNL     1       0.395   3.425   9.981  0.00  0.00    -0.217 NA
ATOM     13  H   UNL     1       0.431   1.933   7.127  0.00  0.00    +0.155 HD
ENDROOT
BRANCH  11  14
ATOM     14  N   UNL     1       0.359   4.311  12.154  0.00  0.00    -0.318 N 
ATOM     15  C   UNL     1       0.503   5.686  11.652  0.00  0.00    +0.087 C 
ATOM     16  C   UNL     1       1.732   6.318  12.314  0.00  0.00    -0.063 C 
ATOM     17  N   UNL     1       1.608   6.216  13.773  0.00  0.00    +0.383 N 
ATOM     18  C   UNL     1       1.623   4.804  14.178  0.00  0.00    -0.057 C 
ATOM     19  C   UNL     1       0.383   4.098  13.609  0.00  0.00    +0.090 C 
ATOM     20  C   UNL     1       1.605   4.712  15.706  0.00  0.00    -0.012 C 
ATOM     21  H   UNL     1       2.380   6.698  14.210  0.00  0.00    -0.085 HD
ATOM     22  H   UNL     1       0.741   6.639  14.066  0.00  0.00    -0.085 HD
ENDBRANCH  11  14
BRANCH   1  24
ATOM     23  N   UNL     1       1.430   7.108   3.825  0.00  0.00    -0.280 N 
ATOM     24  C   UNL     1       1.417   7.324   5.155  0.00  0.00    +0.256 C 
ATOM     25  O   UNL     1       1.605   8.445   5.591  0.00  0.00    -0.269 OA
ATOM     26  H   UNL     1       1.201   6.233   3.473  0.00  0.00    +0.155 HD
BRANCH  23  33
ATOM     27  C   UNL     1       3.466   6.619   1.897  0.00  0.00    +0.046 C 
ATOM     28  C   UNL     1       2.763   7.949   1.995  0.00  0.00    -0.028 A 
ATOM     29  C   UNL     1       3.098   8.973   1.130  0.00  0.00    +0.005 A 
ATOM     30  C   UNL     1       2.454  10.193   1.218  0.00  0.00    +0.002 A 
ATOM     31  C   UNL     1       1.474  10.394   2.173  0.00  0.00    +0.022 A 
ATOM     32  C   UNL     1       1.134   9.374   3.042  0.00  0.00    +0.062 A 
ATOM     33  C   UNL     1       1.775   8.144   2.951  0.00  0.00    +0.055 A 
ATOM     34 CL   UNL     1      -0.096   9.627   4.240  0.00  0.00    -0.082 Cl
ENDBRANCH  23  33
ENDBRANCH   1  24
TORSDOF 3
