REMARK  Name = CHEMBL220874
REMARK  6 active torsions:
REMARK  status: ('A' for Active; 'I' for Inactive)
REMARK    1  A    between atoms: C_1  and  C_2
REMARK    2  A    between atoms: C_5  and  C_17
REMARK    3  A    between atoms: C_7  and  C_8
REMARK    4  A    between atoms: C_9  and  C_10
REMARK    5  A    between atoms: N_19  and  C_20
REMARK    6  A    between atoms: C_24  and  C_26
REMARK                            x       y       z     vdW  Elec       q    Type
REMARK                         _______ _______ _______ _____ _____    ______ ____
ROOT
ATOM      1  C   UNL     1      -0.048   1.502   0.010  0.00  0.00    +0.045 C 
ATOM      2  C   UNL     1      -0.020  -0.004   0.002  0.00  0.00    -0.035 A 
ATOM      3  C   UNL     1      -0.018  -0.687  -1.198  0.00  0.00    +0.005 A 
ATOM      4  C   UNL     1       0.009  -2.067  -1.215  0.00  0.00    +0.013 A 
ATOM      5  C   UNL     1       0.033  -2.784  -0.016  0.00  0.00    +0.038 A 
ATOM      6  C   UNL     1       0.032  -2.103   1.199  0.00  0.00    +0.030 A 
ATOM      7  C   UNL     1       0.011  -0.708   1.209  0.00  0.00    +0.029 A 
ENDROOT
BRANCH   5   8
ATOM      8  C   UNL     1       0.060  -4.262  -0.037  0.00  0.00    +0.248 C 
ATOM      9  O   UNL     1       0.082  -4.884   1.007  0.00  0.00    -0.270 OA
ATOM     10  N   UNL     1       0.061  -4.919  -1.214  0.00  0.00    -0.281 N 
ATOM     11  H   UNL     1      -0.024  -4.426  -2.045  0.00  0.00    +0.155 HD
BRANCH  10  12
ATOM     12  C   UNL     1       0.185  -6.312  -1.236  0.00  0.00    +0.034 A 
ATOM     13  C   UNL     1       0.889  -6.932  -2.260  0.00  0.00    +0.023 A 
ATOM     14  C   UNL     1       1.010  -8.307  -2.280  0.00  0.00    +0.002 A 
ATOM     15  C   UNL     1       0.430  -9.068  -1.281  0.00  0.00    +0.012 A 
ATOM     16  C   UNL     1      -0.272  -8.454  -0.260  0.00  0.00    +0.057 A 
ATOM     17  C   UNL     1      -0.392  -7.078  -0.232  0.00  0.00    +0.035 A 
BRANCH  16  18
ATOM     18  C   UNL     1      -0.902  -9.287   0.827  0.00  0.00    +0.417 C 
ATOM     19  F   UNL     1      -0.643 -10.640   0.587  0.00  0.00    -0.166 F 
ATOM     20  F   UNL     1      -0.365  -8.921   2.066  0.00  0.00    -0.166 F 
ATOM     21  F   UNL     1      -2.285  -9.072   0.836  0.00  0.00    -0.166 F 
ENDBRANCH  16  18
ENDBRANCH  10  12
ENDBRANCH   5   8
BRANCH   7  22
ATOM     22  C   UNL     1       0.016   0.001   2.454  0.00  0.00    -0.061 C 
ATOM     23  C   UNL     1       0.019   0.582   3.474  0.00  0.00    -0.060 C 
BRANCH  23  24
ATOM     24  C   UNL     1       0.024   1.291   4.718  0.00  0.00    +0.041 A 
ATOM     25  C   UNL     1      -0.008   2.694   4.738  0.00  0.00    +0.021 A 
ATOM     26  C   UNL     1      -0.002   3.330   5.951  0.00  0.00    +0.042 A 
ATOM     27  C   UNL     1       0.035   2.573   7.120  0.00  0.00    +0.094 A 
ATOM     28  N   UNL     1       0.065   1.249   7.073  0.00  0.00    -0.349 N 
ATOM     29  C   UNL     1       0.055   0.597   5.928  0.00  0.00    +0.101 A 
ATOM     30  N   UNL     1       0.041   3.215   8.351  0.00  0.00    -0.345 N 
ATOM     31  H   UNL     1       0.020   4.184   8.393  0.00  0.00    +0.144 HD
ATOM     32  H   UNL     1       0.067   2.695   9.169  0.00  0.00    +0.144 HD
ATOM     33  H   UNL     1       0.091   0.748   7.903  0.00  0.00    +0.167 HD
ENDBRANCH  23  24
ENDBRANCH   7  22
TORSDOF 5
