REMARK  Name = CHEMBL297363
REMARK  9 active torsions:
REMARK  status: ('A' for Active; 'I' for Inactive)
REMARK    1  A    between atoms: C_1  and  N_2
REMARK    2  A    between atoms: N_5  and  C_8
REMARK    3  A    between atoms: C_11  and  N_14
REMARK    4  A    between atoms: C_17  and  C_19
REMARK    5  A    between atoms: C_22  and  N_27
REMARK    6  A    between atoms: C_23  and  O_25
REMARK    7  A    between atoms: O_25  and  C_26
REMARK    8  A    between atoms: C_28  and  C_30
REMARK    9  A    between atoms: C_36  and  N_40
REMARK                            x       y       z     vdW  Elec       q    Type
REMARK                         _______ _______ _______ _____ _____    ______ ____
ROOT
ATOM      1  N   UNL     1      -2.255  -7.887   2.150  0.00  0.00    -0.243 N 
ATOM      2  C   UNL     1      -2.486  -8.723   3.201  0.00  0.00    +0.164 A 
ATOM      3  C   UNL     1      -2.272 -10.034   2.735  0.00  0.00    +0.086 A 
ATOM      4  C   UNL     1      -1.895  -9.916   1.327  0.00  0.00    +0.105 A 
ATOM      5  N   UNL     1      -1.903  -8.640   1.024  0.00  0.00    -0.168 NA
ATOM      6  C   UNL     1      -2.446 -11.101   3.631  0.00  0.00    +0.131 A 
ATOM      7  N   UNL     1      -2.807 -10.824   4.881  0.00  0.00    -0.220 NA
ATOM      8  C   UNL     1      -2.997  -9.578   5.275  0.00  0.00    +0.225 A 
ATOM      9  N   UNL     1      -2.845  -8.548   4.473  0.00  0.00    -0.216 NA
ENDROOT
BRANCH   1  13
ATOM     10  C   UNL     1      -2.182  -3.818   0.869  0.00  0.00    +0.057 C 
ATOM     11  C   UNL     1      -3.533  -4.440   1.229  0.00  0.00    +0.021 C 
ATOM     12  C   UNL     1      -3.420  -5.965   1.186  0.00  0.00    +0.028 C 
ATOM     13  C   UNL     1      -2.363  -6.426   2.191  0.00  0.00    +0.110 C 
ATOM     14  C   UNL     1      -1.012  -5.805   1.831  0.00  0.00    +0.028 C 
ATOM     15  C   UNL     1      -1.125  -4.279   1.874  0.00  0.00    +0.021 C 
BRANCH  10  20
ATOM     16  C   UNL     1      -2.247   1.729  -0.117  0.00  0.00    -0.096 C 
ATOM     17  N   UNL     1      -2.123   0.269  -0.211  0.00  0.00    +0.379 N 
ATOM     18  C   UNL     1      -3.424  -0.352   0.071  0.00  0.00    -0.064 C 
ATOM     19  C   UNL     1      -3.300  -1.873  -0.045  0.00  0.00    +0.066 C 
ATOM     20  N   UNL     1      -2.291  -2.353   0.910  0.00  0.00    -0.303 NA
ATOM     21  C   UNL     1      -0.988  -1.722   0.655  0.00  0.00    +0.066 C 
ATOM     22  C   UNL     1      -1.132  -0.202   0.765  0.00  0.00    -0.064 C 
ATOM     23  H   UNL     1      -1.825   0.015  -1.141  0.00  0.00    -0.082 HD
ENDBRANCH  10  20
ENDBRANCH   1  13
BRANCH   4  24
ATOM     24  C   UNL     1      -1.569 -11.034   0.409  0.00  0.00    +0.006 A 
ATOM     25  C   UNL     1      -2.354 -12.187   0.407  0.00  0.00    +0.012 A 
ATOM     26  C   UNL     1      -2.051 -13.227  -0.447  0.00  0.00    +0.027 A 
ATOM     27  C   UNL     1      -0.965 -13.129  -1.306  0.00  0.00    +0.076 A 
ATOM     28  C   UNL     1      -0.177 -11.978  -1.308  0.00  0.00    +0.142 A 
ATOM     29  C   UNL     1      -0.482 -10.931  -0.457  0.00  0.00    +0.057 A 
BRANCH  27  30
ATOM     30  N   UNL     1      -0.660 -14.186  -2.171  0.00  0.00    -0.279 N 
ATOM     31  C   UNL     1      -1.602 -15.100  -2.476  0.00  0.00    +0.248 C 
ATOM     32  O   UNL     1      -2.742 -14.953  -2.080  0.00  0.00    -0.270 OA
ATOM     33  H   UNL     1       0.230 -14.261  -2.550  0.00  0.00    +0.155 HD
BRANCH  31  34
ATOM     34  C   UNL     1      -1.249 -16.280  -3.293  0.00  0.00    +0.037 A 
ATOM     35  C   UNL     1       0.060 -16.455  -3.744  0.00  0.00    +0.013 A 
ATOM     36  C   UNL     1       0.383 -17.559  -4.506  0.00  0.00    +0.001 A 
ATOM     37  C   UNL     1      -0.589 -18.492  -4.822  0.00  0.00    +0.000 A 
ATOM     38  C   UNL     1      -1.889 -18.325  -4.379  0.00  0.00    +0.001 A 
ATOM     39  C   UNL     1      -2.223 -17.229  -3.611  0.00  0.00    +0.013 A 
ENDBRANCH  31  34
ENDBRANCH  27  30
BRANCH  28  40
ATOM     40  O   UNL     1       0.887 -11.883  -2.149  0.00  0.00    -0.493 OA
ATOM     41  C   UNL     1       1.650 -10.676  -2.097  0.00  0.00    +0.277 C 
ENDBRANCH  28  40
ENDBRANCH   4  24
BRANCH   6  42
ATOM     42  N   UNL     1      -2.249 -12.407   3.224  0.00  0.00    -0.342 N 
ATOM     43  H   UNL     1      -1.798 -12.590   2.385  0.00  0.00    +0.144 HD
ATOM     44  H   UNL     1      -2.562 -13.140   3.777  0.00  0.00    +0.144 HD
ENDBRANCH   6  42
TORSDOF 7
