REMARK  Name = CHEMBL46785
REMARK  7 active torsions:
REMARK  status: ('A' for Active; 'I' for Inactive)
REMARK    1  A    between atoms: C_1  and  N_2
REMARK    2  A    between atoms: N_5  and  C_8
REMARK    3  A    between atoms: C_11  and  N_14
REMARK    4  A    between atoms: C_17  and  C_19
REMARK    5  A    between atoms: C_22  and  N_25
REMARK    6  A    between atoms: N_25  and  C_26
REMARK    7  A    between atoms: C_32  and  N_36
REMARK                            x       y       z     vdW  Elec       q    Type
REMARK                         _______ _______ _______ _____ _____    ______ ____
ROOT
ATOM      1  N   UNL     1      -1.315  -7.806   1.657  0.00  0.00    -0.243 N 
ATOM      2  C   UNL     1      -1.462  -8.515   2.812  0.00  0.00    +0.164 A 
ATOM      3  C   UNL     1      -1.341  -9.876   2.473  0.00  0.00    +0.086 A 
ATOM      4  C   UNL     1      -1.110  -9.925   1.030  0.00  0.00    +0.105 A 
ATOM      5  N   UNL     1      -1.108  -8.688   0.592  0.00  0.00    -0.168 NA
ATOM      6  C   UNL     1      -1.455 -10.834   3.494  0.00  0.00    +0.131 A 
ATOM      7  N   UNL     1      -1.673 -10.411   4.735  0.00  0.00    -0.220 NA
ATOM      8  C   UNL     1      -1.780  -9.123   5.008  0.00  0.00    +0.225 A 
ATOM      9  N   UNL     1      -1.681  -8.191   4.086  0.00  0.00    -0.216 NA
ENDROOT
BRANCH   1  13
ATOM     10  C   UNL     1      -1.244  -3.902  -0.063  0.00  0.00    +0.057 C 
ATOM     11  C   UNL     1      -2.570  -4.423   0.496  0.00  0.00    +0.021 C 
ATOM     12  C   UNL     1      -2.512  -5.947   0.610  0.00  0.00    +0.028 C 
ATOM     13  C   UNL     1      -1.371  -6.346   1.548  0.00  0.00    +0.110 C 
ATOM     14  C   UNL     1      -0.045  -5.825   0.989  0.00  0.00    +0.028 C 
ATOM     15  C   UNL     1      -0.103  -4.301   0.875  0.00  0.00    +0.021 C 
BRANCH  10  20
ATOM     16  C   UNL     1      -1.231   1.507  -1.640  0.00  0.00    -0.096 C 
ATOM     17  N   UNL     1      -1.165   0.041  -1.585  0.00  0.00    +0.379 N 
ATOM     18  C   UNL     1      -2.449  -0.489  -1.107  0.00  0.00    -0.064 C 
ATOM     19  C   UNL     1      -2.387  -2.018  -1.067  0.00  0.00    +0.066 C 
ATOM     20  N   UNL     1      -1.300  -2.438  -0.172  0.00  0.00    -0.303 NA
ATOM     21  C   UNL     1      -0.012  -1.894  -0.624  0.00  0.00    +0.066 C 
ATOM     22  C   UNL     1      -0.093  -0.367  -0.667  0.00  0.00    -0.064 C 
ATOM     23  H   UNL     1      -0.974  -0.322  -2.507  0.00  0.00    -0.082 HD
ENDBRANCH  10  20
ENDBRANCH   1  13
BRANCH   4  24
ATOM     24  C   UNL     1      -0.918 -11.146   0.212  0.00  0.00    +0.003 A 
ATOM     25  C   UNL     1      -1.752 -12.249   0.398  0.00  0.00    +0.012 A 
ATOM     26  C   UNL     1      -1.572 -13.384  -0.363  0.00  0.00    +0.024 A 
ATOM     27  C   UNL     1      -0.560 -13.430  -1.316  0.00  0.00    +0.031 A 
ATOM     28  C   UNL     1       0.272 -12.332  -1.503  0.00  0.00    +0.024 A 
ATOM     29  C   UNL     1       0.092 -11.192  -0.749  0.00  0.00    +0.012 A 
BRANCH  27  30
ATOM     30  N   UNL     1      -0.380 -14.580  -2.086  0.00  0.00    -0.314 N 
ATOM     31  H   UNL     1       0.506 -14.818  -2.402  0.00  0.00    +0.152 HD
BRANCH  30  32
ATOM     32  C   UNL     1      -1.475 -15.389  -2.401  0.00  0.00    +0.031 A 
ATOM     33  C   UNL     1      -2.736 -14.825  -2.553  0.00  0.00    +0.023 A 
ATOM     34  C   UNL     1      -3.816 -15.627  -2.865  0.00  0.00    +0.002 A 
ATOM     35  C   UNL     1      -3.643 -16.990  -3.026  0.00  0.00    +0.000 A 
ATOM     36  C   UNL     1      -2.390 -17.554  -2.876  0.00  0.00    +0.002 A 
ATOM     37  C   UNL     1      -1.304 -16.757  -2.570  0.00  0.00    +0.023 A 
ENDBRANCH  30  32
ENDBRANCH  27  30
ENDBRANCH   4  24
BRANCH   6  38
ATOM     38  N   UNL     1      -1.344 -12.183   3.215  0.00  0.00    -0.342 N 
ATOM     39  H   UNL     1      -1.007 -12.473   2.353  0.00  0.00    +0.144 HD
ATOM     40  H   UNL     1      -1.602 -12.839   3.881  0.00  0.00    +0.144 HD
ENDBRANCH   6  38
TORSDOF 6
