REMARK  Name = CHEMBL350710
REMARK  19 active torsions:
REMARK  status: ('A' for Active; 'I' for Inactive)
REMARK    1  A    between atoms: C_1  and  C_2
REMARK    2  A    between atoms: C_2  and  C_4
REMARK    3  A    between atoms: C_2  and  N_13
REMARK    4  A    between atoms: C_7  and  C_10
REMARK    5  A    between atoms: C_10  and  C_11
REMARK    6  A    between atoms: C_10  and  C_12
REMARK    7  A    between atoms: C_14  and  C_16
REMARK    8  A    between atoms: C_16  and  C_18
REMARK    9  A    between atoms: C_16  and  N_22
REMARK   10  A    between atoms: C_18  and  C_19
REMARK   11  A    between atoms: C_19  and  C_20
REMARK   12  A    between atoms: C_19  and  C_21
REMARK   13  A    between atoms: C_23  and  C_25
REMARK   14  A    between atoms: C_25  and  C_27
REMARK   15  A    between atoms: C_25  and  N_39
REMARK   16  A    between atoms: C_27  and  C_28
REMARK   17  A    between atoms: C_31  and  O_34
REMARK   18  A    between atoms: O_34  and  P_35
REMARK   19  A    between atoms: C_40  and  C_42
REMARK                            x       y       z     vdW  Elec       q    Type
REMARK                         _______ _______ _______ _____ _____    ______ ____
ROOT
ATOM      1  N   UNL     1      -3.978  -1.213  -2.505  0.00  0.00    -0.302 N 
ATOM      2  C   UNL     1      -5.305  -1.151  -2.731  0.00  0.00    +0.234 C 
ATOM      3  O   UNL     1      -6.075  -1.054  -1.799  0.00  0.00    -0.274 OA
ATOM      4  H   UNL     1      -3.362  -1.290  -3.251  0.00  0.00    +0.150 HD
ENDROOT
BRANCH   1   5
ATOM      5  C   UNL     1      -3.465  -1.164  -1.134  0.00  0.00    +0.159 C 
BRANCH   5   7
ATOM      6  N   UNL     1      -1.372  -0.511   0.012  0.00  0.00    -0.307 N 
ATOM      7  C   UNL     1      -2.051  -0.643  -1.145  0.00  0.00    +0.234 C 
ATOM      8  O   UNL     1      -1.524  -0.341  -2.194  0.00  0.00    -0.274 OA
ATOM      9  H   UNL     1      -1.794  -0.752   0.852  0.00  0.00    +0.149 HD
BRANCH   6  11
ATOM     10  C   UNL     1      -0.019   1.526   0.010  0.00  0.00    +0.033 C 
ATOM     11  C   UNL     1       0.002  -0.004   0.002  0.00  0.00    +0.100 C 
BRANCH  11  12
ATOM     12  C   UNL     1       0.731  -0.503   1.223  0.00  0.00    -0.027 A 
ATOM     13  C   UNL     1       0.081  -0.558   2.442  0.00  0.00    +0.006 A 
ATOM     14  C   UNL     1       0.749  -1.016   3.562  0.00  0.00    +0.004 A 
ATOM     15  C   UNL     1       2.068  -1.420   3.463  0.00  0.00    -0.045 A 
ATOM     16  C   UNL     1       2.718  -1.365   2.244  0.00  0.00    +0.004 A 
ATOM     17  C   UNL     1       2.048  -0.911   1.123  0.00  0.00    +0.006 A 
BRANCH  15  18
ATOM     18  C   UNL     1       2.797  -1.918   4.684  0.00  0.00    +0.013 C 
ATOM     19  C   UNL     1       3.262  -3.357   4.449  0.00  0.00    +0.012 C 
ATOM     20  C   UNL     1       4.012  -1.027   4.951  0.00  0.00    +0.012 C 
ENDBRANCH  15  18
ENDBRANCH  11  12
ENDBRANCH   6  11
ENDBRANCH   5   7
BRANCH   5  21
ATOM     21  C   UNL     1      -3.485  -2.571  -0.532  0.00  0.00    +0.034 C 
BRANCH  21  22
ATOM     22  C   UNL     1      -4.932  -3.051  -0.406  0.00  0.00    -0.015 C 
ATOM     23  C   UNL     1      -4.948  -4.502   0.079  0.00  0.00    +0.007 C 
ATOM     24  C   UNL     1      -5.676  -2.169   0.599  0.00  0.00    +0.007 C 
ENDBRANCH  21  22
ENDBRANCH   5  21
ENDBRANCH   1   5
BRANCH   2  25
ATOM     25  C   UNL     1      -5.832  -1.201  -4.142  0.00  0.00    +0.163 C 
BRANCH  25  26
ATOM     26  N   UNL     1      -7.244  -1.593  -4.122  0.00  0.00    -0.304 N 
ATOM     27  C   UNL     1      -8.145  -0.837  -3.464  0.00  0.00    +0.211 C 
ATOM     28  O   UNL     1      -7.787   0.169  -2.889  0.00  0.00    -0.276 OA
ATOM     29  C   UNL     1      -9.596  -1.241  -3.443  0.00  0.00    +0.109 C 
ATOM     30  H   UNL     1      -7.530  -2.398  -4.582  0.00  0.00    +0.149 HD
ENDBRANCH  25  26
BRANCH  25  31
ATOM     31  C   UNL     1      -5.697   0.180  -4.786  0.00  0.00    +0.067 C 
BRANCH  31  32
ATOM     32  C   UNL     1      -6.109   0.102  -6.234  0.00  0.00    -0.045 A 
ATOM     33  C   UNL     1      -5.170  -0.195  -7.204  0.00  0.00    +0.007 A 
ATOM     34  C   UNL     1      -5.546  -0.267  -8.531  0.00  0.00    +0.046 A 
ATOM     35  C   UNL     1      -6.867  -0.042  -8.890  0.00  0.00    +0.132 A 
ATOM     36  C   UNL     1      -7.807   0.255  -7.915  0.00  0.00    +0.046 A 
ATOM     37  C   UNL     1      -7.428   0.321  -6.588  0.00  0.00    +0.007 A 
BRANCH  35  38
ATOM     38  O   UNL     1      -7.239  -0.112 -10.196  0.00  0.00    -0.401 OA
BRANCH  38  39
ATOM     39  P   UNL     1      -7.705  -1.579 -10.666  0.00  0.00    +0.589 P 
ATOM     40  O   UNL     1      -6.572  -2.614 -10.349  0.00  0.00    -0.211 OA
ATOM     41  O   UNL     1      -9.011  -1.983  -9.900  0.00  0.00    -0.104 OA
ATOM     42  O   UNL     1      -7.986  -1.569 -12.207  0.00  0.00    -0.104 OA
ENDBRANCH  38  39
ENDBRANCH  35  38
ENDBRANCH  31  32
ENDBRANCH  25  31
ENDBRANCH   2  25
TORSDOF 13
