REMARK  Name = CHEMBL248079
REMARK  6 active torsions:
REMARK  status: ('A' for Active; 'I' for Inactive)
REMARK    1  A    between atoms: C_1  and  N_2
REMARK    2  A    between atoms: C_10  and  C_12
REMARK    3  A    between atoms: C_13  and  C_30
REMARK    4  A    between atoms: N_21  and  C_22
REMARK    5  A    between atoms: C_22  and  C_23
REMARK    6  A    between atoms: C_23  and  N_24
REMARK                            x       y       z     vdW  Elec       q    Type
REMARK                         _______ _______ _______ _____ _____    ______ ____
ROOT
ATOM      1  C   UNL     1       4.888  -2.842  -0.001  0.00  0.00    +0.146 A 
ATOM      2  C   UNL     1       6.091  -2.337  -0.414  0.00  0.00    +0.041 A 
ATOM      3  C   UNL     1       7.042  -3.453  -0.322  0.00  0.00    +0.088 A 
ATOM      4  C   UNL     1       8.408  -3.620  -0.586  0.00  0.00    +0.134 A 
ATOM      5  N   UNL     1       8.949  -4.818  -0.378  0.00  0.00    -0.220 NA
ATOM      6  C   UNL     1       8.217  -5.824   0.065  0.00  0.00    +0.227 A 
ATOM      7  N   UNL     1       6.932  -5.709   0.325  0.00  0.00    -0.200 NA
ATOM      8  C   UNL     1       6.302  -4.550   0.149  0.00  0.00    +0.233 A 
ATOM      9  O   UNL     1       5.034  -4.141   0.329  0.00  0.00    -0.436 OA
ATOM     10  N   UNL     1       9.175  -2.567  -1.050  0.00  0.00    -0.327 N 
ATOM     11  H   UNL     1       8.769  -1.698  -1.198  0.00  0.00    +0.148 HD
ENDROOT
BRANCH   1  21
ATOM     12  C   UNL     1      -0.940  -0.222   1.333  0.00  0.00    +0.129 C 
ATOM     13  N   UNL     1       0.054   0.066   0.295  0.00  0.00    -0.327 N 
ATOM     14  C   UNL     1      -0.171   1.125  -0.702  0.00  0.00    +0.146 C 
ATOM     15  C   UNL     1       0.287   0.585  -2.064  0.00  0.00    +0.248 C 
ATOM     16  O   UNL     1       1.665   0.215  -1.973  0.00  0.00    -0.489 OA
ATOM     17  C   UNL     1       2.042  -0.570  -0.928  0.00  0.00    +0.142 A 
ATOM     18  C   UNL     1       1.256  -0.654   0.223  0.00  0.00    +0.072 A 
ATOM     19  C   UNL     1       1.652  -1.449   1.289  0.00  0.00    +0.027 A 
ATOM     20  C   UNL     1       2.831  -2.161   1.221  0.00  0.00    +0.013 A 
ATOM     21  C   UNL     1       3.627  -2.082   0.075  0.00  0.00    +0.022 A 
ATOM     22  C   UNL     1       3.221  -1.287  -1.006  0.00  0.00    +0.059 A 
ENDBRANCH   1  21
BRANCH   2  23
ATOM     23  C   UNL     1       6.375  -0.955  -0.860  0.00  0.00    -0.014 A 
ATOM     24  C   UNL     1       6.713  -0.703  -2.190  0.00  0.00    +0.008 A 
ATOM     25  C   UNL     1       6.976   0.588  -2.599  0.00  0.00    +0.001 A 
ATOM     26  C   UNL     1       6.906   1.632  -1.694  0.00  0.00    +0.000 A 
ATOM     27  C   UNL     1       6.572   1.389  -0.373  0.00  0.00    +0.001 A 
ATOM     28  C   UNL     1       6.301   0.103   0.047  0.00  0.00    +0.008 A 
ENDBRANCH   2  23
BRANCH  10  29
ATOM     29  C   UNL     1      10.602  -2.763  -1.320  0.00  0.00    +0.118 C 
BRANCH  29  30
ATOM     30  C   UNL     1      11.211  -1.451  -1.820  0.00  0.00    +0.103 C 
BRANCH  30  31
ATOM     31  N   UNL     1      12.642  -1.648  -2.091  0.00  0.00    -0.304 NA
ATOM     32  C   UNL     1      12.843  -2.572  -3.216  0.00  0.00    +0.065 C 
ATOM     33  C   UNL     1      14.342  -2.796  -3.426  0.00  0.00    -0.067 C 
ATOM     34  N   UNL     1      14.995  -1.510  -3.704  0.00  0.00    +0.381 N 
ATOM     35  C   UNL     1      14.806  -0.606  -2.562  0.00  0.00    -0.067 C 
ATOM     36  C   UNL     1      13.311  -0.364  -2.344  0.00  0.00    +0.065 C 
ATOM     37  H   UNL     1      15.981  -1.659  -3.855  0.00  0.00    -0.086 HD
ATOM     38  H   UNL     1      14.587  -1.097  -4.530  0.00  0.00    -0.086 HD
ENDBRANCH  30  31
ENDBRANCH  29  30
ENDBRANCH  10  29
TORSDOF 5
