REMARK  Name = CHEMBL215863
REMARK  7 active torsions:
REMARK  status: ('A' for Active; 'I' for Inactive)
REMARK    1  A    between atoms: C_1  and  C_2
REMARK    2  A    between atoms: C_5  and  C_25
REMARK    3  A    between atoms: C_7  and  C_8
REMARK    4  A    between atoms: N_18  and  C_19
REMARK    5  A    between atoms: N_27  and  C_28
REMARK    6  A    between atoms: C_32  and  C_35
REMARK    7  A    between atoms: C_33  and  C_34
REMARK                            x       y       z     vdW  Elec       q    Type
REMARK                         _______ _______ _______ _____ _____    ______ ____
ROOT
ATOM      1  C   UNL     1      -0.018   0.862   0.373  0.00  0.00    +0.044 C 
ATOM      2  C   UNL     1      -0.069  -0.639   0.259  0.00  0.00    -0.043 A 
ATOM      3  C   UNL     1      -0.141  -1.234  -0.986  0.00  0.00    +0.005 A 
ATOM      4  C   UNL     1      -0.189  -2.609  -1.098  0.00  0.00    +0.013 A 
ATOM      5  C   UNL     1      -0.164  -3.407   0.048  0.00  0.00    +0.038 A 
ATOM      6  C   UNL     1      -0.092  -2.812   1.306  0.00  0.00    +0.021 A 
ATOM      7  C   UNL     1      -0.039  -1.425   1.411  0.00  0.00    -0.014 A 
ENDROOT
BRANCH   7   8
ATOM      8  C   UNL     1       0.044  -0.784   2.746  0.00  0.00    -0.017 A 
ATOM      9  C   UNL     1       1.018   0.198   2.987  0.00  0.00    +0.010 A 
ATOM     10  C   UNL     1       1.116   0.802   4.201  0.00  0.00    +0.029 A 
ATOM     11  C   UNL     1       0.235   0.444   5.234  0.00  0.00    +0.076 A 
ATOM     12  C   UNL     1      -0.752  -0.548   5.001  0.00  0.00    +0.019 A 
ATOM     13  C   UNL     1      -0.842  -1.155   3.742  0.00  0.00    +0.020 A 
ATOM     14  C   UNL     1      -1.623  -0.887   6.054  0.00  0.00    +0.124 A 
ATOM     15  N   UNL     1      -1.482  -0.270   7.208  0.00  0.00    -0.222 NA
ATOM     16  C   UNL     1      -0.543   0.657   7.393  0.00  0.00    +0.220 A 
ATOM     17  N   UNL     1       0.299   1.015   6.443  0.00  0.00    -0.214 NA
ATOM     18  N   UNL     1      -0.448   1.269   8.631  0.00  0.00    -0.284 N 
ATOM     19  H   UNL     1       0.260   1.909   8.802  0.00  0.00    +0.155 HD
BRANCH  18  20
ATOM     20  C   UNL     1      -1.373   0.964   9.634  0.00  0.00    +0.034 A 
ATOM     21  C   UNL     1      -1.863  -0.330   9.760  0.00  0.00    +0.023 A 
ATOM     22  C   UNL     1      -2.776  -0.627  10.752  0.00  0.00    +0.002 A 
ATOM     23  C   UNL     1      -3.204   0.361  11.619  0.00  0.00    +0.000 A 
ATOM     24  C   UNL     1      -2.719   1.650  11.497  0.00  0.00    +0.002 A 
ATOM     25  C   UNL     1      -1.800   1.953  10.511  0.00  0.00    +0.023 A 
ENDBRANCH  18  20
ENDBRANCH   7   8
BRANCH   5  26
ATOM     26  C   UNL     1      -0.216  -4.880  -0.073  0.00  0.00    +0.248 C 
ATOM     27  O   UNL     1      -0.195  -5.573   0.925  0.00  0.00    -0.270 OA
ATOM     28  N   UNL     1      -0.287  -5.454  -1.291  0.00  0.00    -0.281 N 
ATOM     29  H   UNL     1      -0.247  -4.904  -2.089  0.00  0.00    +0.155 HD
BRANCH  28  30
ATOM     30  C   UNL     1      -0.417  -6.841  -1.403  0.00  0.00    +0.037 A 
ATOM     31  C   UNL     1       0.200  -7.676  -0.479  0.00  0.00    +0.023 A 
ATOM     32  C   UNL     1       0.069  -9.045  -0.593  0.00  0.00    +0.002 A 
ATOM     33  C   UNL     1      -0.676  -9.587  -1.625  0.00  0.00    +0.013 A 
ATOM     34  C   UNL     1      -1.291  -8.760  -2.546  0.00  0.00    +0.059 A 
ATOM     35  C   UNL     1      -1.168  -7.388  -2.435  0.00  0.00    -0.018 A 
ATOM     36  C   UNL     1      -1.844  -6.487  -3.436  0.00  0.00    +0.046 C 
BRANCH  34  37
ATOM     37  C   UNL     1      -2.100  -9.355  -3.669  0.00  0.00    +0.418 C 
ATOM     38  F   UNL     1      -2.082 -10.750  -3.569  0.00  0.00    -0.166 F 
ATOM     39  F   UNL     1      -3.420  -8.898  -3.586  0.00  0.00    -0.166 F 
ATOM     40  F   UNL     1      -1.550  -8.968  -4.896  0.00  0.00    -0.166 F 
ENDBRANCH  34  37
ENDBRANCH  28  30
ENDBRANCH   5  26
TORSDOF 5
