REMARK  Name = CHEMBL211460
REMARK  10 active torsions:
REMARK  status: ('A' for Active; 'I' for Inactive)
REMARK    1  A    between atoms: C_1  and  C_2
REMARK    2  A    between atoms: C_6  and  C_40
REMARK    3  A    between atoms: C_7  and  O_8
REMARK    4  A    between atoms: O_8  and  C_9
REMARK    5  A    between atoms: N_11  and  C_12
REMARK    6  A    between atoms: C_17  and  O_18
REMARK    7  A    between atoms: O_18  and  C_19
REMARK    8  A    between atoms: N_26  and  C_27
REMARK    9  A    between atoms: C_30  and  N_33
REMARK   10  A    between atoms: N_36  and  C_39
REMARK                            x       y       z     vdW  Elec       q    Type
REMARK                         _______ _______ _______ _____ _____    ______ ____
ROOT
ATOM      1  C   UNL     1      -0.684  -0.004   4.144  0.00  0.00    +0.418 C 
ATOM      2  O   UNL     1      -1.224  -0.810   4.877  0.00  0.00    -0.225 OA
ATOM      3  N   UNL     1      -1.268   1.188   3.908  0.00  0.00    -0.186 N 
ATOM      4  C   UNL     1      -2.534   1.456   4.417  0.00  0.00    +0.140 A 
ATOM      5  C   UNL     1      -3.676   1.060   3.718  0.00  0.00    +0.064 A 
ATOM      6  C   UNL     1      -4.914   1.347   4.261  0.00  0.00    +0.118 A 
ATOM      7  N   UNL     1      -4.981   1.983   5.421  0.00  0.00    -0.223 NA
ATOM      8  C   UNL     1      -3.880   2.346   6.063  0.00  0.00    +0.221 A 
ATOM      9  N   UNL     1      -2.675   2.086   5.578  0.00  0.00    -0.198 NA
ATOM     10  N   UNL     1      -3.992   3.010   7.273  0.00  0.00    -0.284 N 
ATOM     11  H   UNL     1      -3.198   3.348   7.716  0.00  0.00    +0.155 HD
ENDROOT
BRANCH   3  12
ATOM     12  C   UNL     1      -0.597   2.159   3.149  0.00  0.00    +0.087 A 
ATOM     13  C   UNL     1      -0.764   2.203   1.773  0.00  0.00    +0.028 A 
ATOM     14  C   UNL     1      -0.102   3.160   1.027  0.00  0.00    +0.002 A 
ATOM     15  C   UNL     1       0.727   4.075   1.650  0.00  0.00    +0.004 A 
ATOM     16  C   UNL     1       0.899   4.037   3.021  0.00  0.00    +0.047 A 
ATOM     17  C   UNL     1       0.234   3.084   3.776  0.00  0.00    +0.142 A 
BRANCH  17  18
ATOM     18  O   UNL     1       0.397   3.049   5.126  0.00  0.00    -0.493 OA
ATOM     19  C   UNL     1       1.264   4.029   5.700  0.00  0.00    +0.277 C 
ENDBRANCH  17  18
ENDBRANCH   3  12
BRANCH  10  20
ATOM     20  C   UNL     1      -5.251   3.192   7.858  0.00  0.00    +0.034 A 
ATOM     21  C   UNL     1      -6.239   2.230   7.695  0.00  0.00    +0.025 A 
ATOM     22  C   UNL     1      -7.480   2.410   8.272  0.00  0.00    +0.025 A 
ATOM     23  C   UNL     1      -7.742   3.553   9.015  0.00  0.00    +0.030 A 
ATOM     24  C   UNL     1      -6.754   4.516   9.178  0.00  0.00    +0.025 A 
ATOM     25  C   UNL     1      -5.511   4.333   8.606  0.00  0.00    +0.025 A 
BRANCH  23  26
ATOM     26  N   UNL     1      -9.000   3.736   9.599  0.00  0.00    -0.327 N 
ATOM     27  C   UNL     1      -9.342   4.995  10.279  0.00  0.00    +0.120 C 
ATOM     28  C   UNL     1     -10.674   5.504   9.719  0.00  0.00    +0.103 C 
ATOM     29  N   UNL     1     -11.685   4.445   9.830  0.00  0.00    -0.302 NA
ATOM     30  C   UNL     1     -11.323   3.275   9.018  0.00  0.00    +0.103 C 
ATOM     31  C   UNL     1     -10.019   2.677   9.544  0.00  0.00    +0.120 C 
ATOM     32  C   UNL     1     -13.017   4.947   9.465  0.00  0.00    +0.105 C 
ENDBRANCH  23  26
ENDBRANCH  10  20
BRANCH   1  33
ATOM     33  O   UNL     1       0.496  -0.302   3.569  0.00  0.00    -0.410 OA
BRANCH  33  40
ATOM     34  C   UNL     1      -0.181  -2.445   1.857  0.00  0.00    +0.047 C 
ATOM     35  C   UNL     1       0.752  -2.605   3.029  0.00  0.00    -0.008 A 
ATOM     36  C   UNL     1       1.318  -3.836   3.299  0.00  0.00    +0.007 A 
ATOM     37  C   UNL     1       2.174  -3.984   4.375  0.00  0.00    +0.001 A 
ATOM     38  C   UNL     1       2.466  -2.901   5.183  0.00  0.00    +0.007 A 
ATOM     39  C   UNL     1       1.903  -1.667   4.917  0.00  0.00    -0.008 A 
ATOM     40  C   UNL     1       1.048  -1.515   3.835  0.00  0.00    +0.139 A 
ATOM     41  C   UNL     1       2.221  -0.487   5.799  0.00  0.00    +0.047 C 
ENDBRANCH  33  40
ENDBRANCH   1  33
TORSDOF 6
