REMARK  Name = CHEMBL460702
REMARK  9 active torsions:
REMARK  status: ('A' for Active; 'I' for Inactive)
REMARK    1  A    between atoms: C_1  and  C_2
REMARK    2  A    between atoms: C_2  and  O_3
REMARK    3  A    between atoms: O_3  and  C_4
REMARK    4  A    between atoms: N_7  and  C_30
REMARK    5  A    between atoms: C_10  and  C_11
REMARK    6  A    between atoms: N_13  and  C_14
REMARK    7  A    between atoms: C_17  and  O_21
REMARK    8  A    between atoms: O_21  and  C_22
REMARK    9  A    between atoms: C_26  and  N_29
REMARK                            x       y       z     vdW  Elec       q    Type
REMARK                         _______ _______ _______ _____ _____    ______ ____
ROOT
ATOM      1  C   UNL     1      -0.660  -2.137  -0.695  0.00  0.00    +0.257 C 
ATOM      2  O   UNL     1      -1.057  -0.991  -0.790  0.00  0.00    -0.270 OA
ATOM      3  N   UNL     1      -0.859  -3.006  -1.706  0.00  0.00    -0.281 N 
ATOM      4  H   UNL     1      -0.600  -3.935  -1.605  0.00  0.00    +0.155 HD
ENDROOT
BRANCH   1  11
ATOM      5  C   UNL     1       1.429  -2.444   0.633  0.00  0.00    +0.139 A 
ATOM      6  C   UNL     1       2.054  -2.869   1.816  0.00  0.00    +0.064 A 
ATOM      7  C   UNL     1       1.317  -3.397   2.819  0.00  0.00    +0.098 A 
ATOM      8  N   UNL     1      -0.031  -3.528   2.711  0.00  0.00    -0.283 N 
ATOM      9  C   UNL     1      -0.684  -3.138   1.601  0.00  0.00    +0.271 A 
ATOM     10  O   UNL     1      -1.894  -3.265   1.528  0.00  0.00    -0.266 OA
ATOM     11  C   UNL     1       0.036  -2.573   0.521  0.00  0.00    +0.143 A 
BRANCH   8  12
ATOM     12  C   UNL     1      -0.755  -4.082   3.776  0.00  0.00    +0.050 A 
ATOM     13  C   UNL     1      -1.385  -5.309   3.624  0.00  0.00    +0.029 A 
ATOM     14  C   UNL     1      -2.098  -5.853   4.674  0.00  0.00    +0.040 A 
ATOM     15  C   UNL     1      -2.186  -5.174   5.878  0.00  0.00    +0.124 A 
ATOM     16  C   UNL     1      -1.558  -3.949   6.032  0.00  0.00    +0.040 A 
ATOM     17  C   UNL     1      -0.839  -3.405   4.986  0.00  0.00    +0.029 A 
ATOM     18  F   UNL     1      -2.885  -5.707   6.904  0.00  0.00    -0.205 F 
ENDBRANCH   8  12
BRANCH   5  19
ATOM     19  O   UNL     1       2.154  -1.914  -0.377  0.00  0.00    -0.491 OA
BRANCH  19  21
ATOM     20  C   UNL     1       2.411  -0.847  -2.530  0.00  0.00    +0.048 C 
ATOM     21  C   UNL     1       1.433  -1.449  -1.520  0.00  0.00    +0.226 C 
ENDBRANCH  19  21
ENDBRANCH   5  19
ENDBRANCH   1  11
BRANCH   3  22
ATOM     22  C   UNL     1      -1.439  -2.566  -2.902  0.00  0.00    +0.037 A 
ATOM     23  C   UNL     1      -1.331  -1.234  -3.278  0.00  0.00    +0.027 A 
ATOM     24  C   UNL     1      -1.904  -0.800  -4.458  0.00  0.00    +0.051 A 
ATOM     25  C   UNL     1      -2.587  -1.695  -5.268  0.00  0.00    +0.164 A 
ATOM     26  C   UNL     1      -2.696  -3.029  -4.893  0.00  0.00    +0.167 A 
ATOM     27  C   UNL     1      -2.118  -3.464  -3.715  0.00  0.00    +0.065 A 
ATOM     28  F   UNL     1      -3.362  -3.900  -5.682  0.00  0.00    -0.202 F 
BRANCH  25  29
ATOM     29  O   UNL     1      -3.151  -1.267  -6.429  0.00  0.00    -0.452 OA
BRANCH  29  30
ATOM     30  C   UNL     1      -4.465  -0.926  -6.412  0.00  0.00    +0.151 A 
ATOM     31  C   UNL     1      -5.183  -0.910  -5.216  0.00  0.00    +0.065 A 
ATOM     32  C   UNL     1      -6.516  -0.559  -5.235  0.00  0.00    +0.088 A 
ATOM     33  N   UNL     1      -7.118  -0.240  -6.366  0.00  0.00    -0.349 N 
ATOM     34  C   UNL     1      -6.474  -0.243  -7.524  0.00  0.00    +0.116 A 
ATOM     35  C   UNL     1      -5.127  -0.580  -7.585  0.00  0.00    +0.121 A 
ATOM     36 CL   UNL     1      -4.285  -0.576  -9.102  0.00  0.00    -0.076 Cl
ATOM     37  H   UNL     1      -8.057   0.003  -6.349  0.00  0.00    +0.167 HD
BRANCH  34  38
ATOM     38  N   UNL     1      -7.151   0.100  -8.690  0.00  0.00    -0.343 N 
ATOM     39  H   UNL     1      -8.090   0.340  -8.653  0.00  0.00    +0.144 HD
ATOM     40  H   UNL     1      -6.684   0.099  -9.540  0.00  0.00    +0.144 HD
ENDBRANCH  34  38
ENDBRANCH  29  30
ENDBRANCH  25  29
ENDBRANCH   3  22
TORSDOF 8
