REMARK  Name = CHEMBL282587
REMARK  1 active torsions:
REMARK  status: ('A' for Active; 'I' for Inactive)
REMARK    1  A    between atoms: C_5  and  C_7
REMARK                            x       y       z     vdW  Elec       q    Type
REMARK                         _______ _______ _______ _____ _____    ______ ____
ROOT
ATOM      1  C   UNL     1       1.250  -2.160  -0.022  0.00  0.00    +0.250 C 
ATOM      2  O   UNL     1       2.314  -2.748  -0.036  0.00  0.00    -0.270 OA
ATOM      3  N   UNL     1       0.096  -2.856  -0.015  0.00  0.00    -0.265 N 
ATOM      4  C   UNL     1       0.122  -4.241  -0.023  0.00  0.00    +0.151 A 
ATOM      5  C   UNL     1      -1.129  -4.996  -0.021  0.00  0.00    +0.106 A 
ATOM      6  C   UNL     1      -2.458  -4.653  -0.013  0.00  0.00    +0.142 A 
ATOM      7  N   UNL     1      -3.165  -5.786  -0.016  0.00  0.00    -0.243 NA
ATOM      8  C   UNL     1      -2.354  -6.815  -0.026  0.00  0.00    +0.204 A 
ATOM      9  N   UNL     1      -1.083  -6.379  -0.030  0.00  0.00    -0.294 N 
ATOM     10  C   UNL     1       0.156  -7.008  -0.040  0.00  0.00    +0.073 A 
ATOM     11  C   UNL     1       0.240  -8.393  -0.049  0.00  0.00    +0.028 A 
ATOM     12  C   UNL     1       1.474  -9.011  -0.059  0.00  0.00    +0.002 A 
ATOM     13  C   UNL     1       2.636  -8.255  -0.061  0.00  0.00    +0.002 A 
ATOM     14  C   UNL     1       2.573  -6.879  -0.051  0.00  0.00    +0.030 A 
ATOM     15  C   UNL     1       1.329  -6.236  -0.042  0.00  0.00    +0.090 A 
ATOM     16  N   UNL     1       1.271  -4.878  -0.038  0.00  0.00    -0.228 NA
ATOM     17  H   UNL     1      -0.753  -2.386  -0.004  0.00  0.00    +0.157 HD
ENDROOT
BRANCH   1  22
ATOM     18  C   UNL     1      -0.017   1.375   0.010  0.00  0.00    +0.001 A 
ATOM     19  C   UNL     1       1.170   2.087   0.002  0.00  0.00    +0.001 A 
ATOM     20  C   UNL     1       2.383   1.422  -0.013  0.00  0.00    +0.016 A 
ATOM     21  C   UNL     1       2.417   0.042  -0.021  0.00  0.00    +0.030 A 
ATOM     22  C   UNL     1       1.222  -0.683  -0.014  0.00  0.00    +0.051 A 
ATOM     23  C   UNL     1       0.002  -0.004   0.002  0.00  0.00    +0.014 A 
ATOM     24 BR   UNL     1       4.076  -0.866  -0.043  0.00  0.00    -0.050 Br
ENDBRANCH   1  22
TORSDOF 1
