REMARK  Name = CHEMBL568543
REMARK  7 active torsions:
REMARK  status: ('A' for Active; 'I' for Inactive)
REMARK    1  A    between atoms: C_1  and  C_2
REMARK    2  A    between atoms: C_2  and  C_3
REMARK    3  A    between atoms: C_2  and  N_17
REMARK    4  A    between atoms: N_5  and  C_10
REMARK    5  A    between atoms: N_8  and  C_9
REMARK    6  A    between atoms: C_10  and  C_11
REMARK    7  A    between atoms: C_22  and  N_24
REMARK                            x       y       z     vdW  Elec       q    Type
REMARK                         _______ _______ _______ _____ _____    ______ ____
ROOT
ATOM      1  C   UNL     1      -1.890  -1.285   0.130  0.00  0.00    +0.029 C 
ATOM      2  C   UNL     1      -0.614  -0.443   0.163  0.00  0.00    +0.085 C 
ENDROOT
BRANCH   2   3
ATOM      3  C   UNL     1       0.280  -0.825  -1.018  0.00  0.00    +0.060 C 
ATOM      4  C   UNL     1       0.487  -2.341  -1.033  0.00  0.00    -0.057 C 
ATOM      5  N   UNL     1       1.144  -2.758   0.212  0.00  0.00    +0.384 N 
ATOM      6  C   UNL     1       2.454  -2.102   0.321  0.00  0.00    -0.063 C 
ATOM      7  C   UNL     1       2.264  -0.584   0.347  0.00  0.00    +0.066 C 
ATOM      8  N   UNL     1       1.583  -0.157  -0.884  0.00  0.00    -0.304 NA
ATOM      9  C   UNL     1       1.432   1.304  -0.922  0.00  0.00    +0.105 C 
ATOM     10  H   UNL     1       0.570  -2.495   1.000  0.00  0.00    -0.081 HD
BRANCH   5  11
ATOM     11  C   UNL     1       1.326  -4.216   0.205  0.00  0.00    -0.043 C 
BRANCH  11  12
ATOM     12  C   UNL     1       1.876  -4.660   1.536  0.00  0.00    -0.064 A 
ATOM     13  C   UNL     1       3.238  -4.832   1.698  0.00  0.00    +0.002 A 
ATOM     14  C   UNL     1       3.743  -5.240   2.919  0.00  0.00    +0.000 A 
ATOM     15  C   UNL     1       2.886  -5.474   3.978  0.00  0.00    +0.000 A 
ATOM     16  C   UNL     1       1.524  -5.301   3.816  0.00  0.00    +0.000 A 
ATOM     17  C   UNL     1       1.020  -4.889   2.596  0.00  0.00    +0.002 A 
ENDBRANCH  11  12
ENDBRANCH   5  11
ENDBRANCH   2   3
BRANCH   2  18
ATOM     18  N   UNL     1       0.102  -0.691   1.417  0.00  0.00    -0.309 N 
ATOM     19  C   UNL     1      -0.269  -0.021   2.570  0.00  0.00    +0.217 A 
ATOM     20  N   UNL     1      -1.335   0.765   2.546  0.00  0.00    -0.223 NA
ATOM     21  C   UNL     1      -1.720   1.422   3.629  0.00  0.00    +0.118 A 
ATOM     22  C   UNL     1      -0.996   1.281   4.798  0.00  0.00    +0.066 A 
ATOM     23  C   UNL     1       0.121   0.447   4.793  0.00  0.00    +0.144 A 
ATOM     24  N   UNL     1       0.448  -0.186   3.672  0.00  0.00    -0.197 NA
ATOM     25  H   UNL     1       0.836  -1.325   1.440  0.00  0.00    +0.149 HD
BRANCH  23  26
ATOM     26  N   UNL     1       0.881   0.275   5.948  0.00  0.00    -0.283 N 
ATOM     27  C   UNL     1       0.588   0.761   7.189  0.00  0.00    +0.206 A 
ATOM     28  N   UNL     1       1.513   0.412   8.034  0.00  0.00    -0.235 NA
ATOM     29  C   UNL     1       2.463  -0.321   7.398  0.00  0.00    +0.089 A 
ATOM     30  C   UNL     1       2.070  -0.424   6.053  0.00  0.00    +0.075 A 
ATOM     31  C   UNL     1       2.856  -1.131   5.154  0.00  0.00    +0.028 A 
ATOM     32  C   UNL     1       4.019  -1.732   5.585  0.00  0.00    +0.002 A 
ATOM     33  C   UNL     1       4.410  -1.636   6.912  0.00  0.00    +0.002 A 
ATOM     34  C   UNL     1       3.647  -0.932   7.817  0.00  0.00    +0.030 A 
ENDBRANCH  23  26
ENDBRANCH   2  18
TORSDOF 5
