REMARK  Name = CHEMBL215726
REMARK  9 active torsions:
REMARK  status: ('A' for Active; 'I' for Inactive)
REMARK    1  A    between atoms: C_1  and  C_2
REMARK    2  A    between atoms: C_6  and  C_44
REMARK    3  A    between atoms: C_7  and  O_8
REMARK    4  A    between atoms: O_8  and  C_9
REMARK    5  A    between atoms: N_11  and  C_12
REMARK    6  A    between atoms: C_16  and  C_18
REMARK    7  A    between atoms: N_30  and  C_31
REMARK    8  A    between atoms: C_34  and  N_37
REMARK    9  A    between atoms: N_40  and  C_43
REMARK                            x       y       z     vdW  Elec       q    Type
REMARK                         _______ _______ _______ _____ _____    ______ ____
ROOT
ATOM      1  C   UNL     1      -1.276   0.227   3.010  0.00  0.00    +0.418 C 
ATOM      2  O   UNL     1      -2.362   0.002   2.514  0.00  0.00    -0.225 OA
ATOM      3  N   UNL     1      -1.189   0.962   4.136  0.00  0.00    -0.189 N 
ATOM      4  C   UNL     1       0.042   1.133   4.761  0.00  0.00    +0.140 A 
ATOM      5  C   UNL     1       0.515   0.181   5.665  0.00  0.00    +0.064 A 
ATOM      6  C   UNL     1       1.744   0.392   6.262  0.00  0.00    +0.118 A 
ATOM      7  N   UNL     1       2.431   1.483   5.962  0.00  0.00    -0.223 NA
ATOM      8  C   UNL     1       1.958   2.370   5.099  0.00  0.00    +0.221 A 
ATOM      9  N   UNL     1       0.787   2.202   4.502  0.00  0.00    -0.198 NA
ATOM     10  N   UNL     1       2.707   3.499   4.812  0.00  0.00    -0.284 N 
ATOM     11  H   UNL     1       2.393   4.132   4.147  0.00  0.00    +0.155 HD
ENDROOT
BRANCH   3  12
ATOM     12  C   UNL     1      -2.337   1.555   4.676  0.00  0.00    +0.046 A 
ATOM     13  C   UNL     1      -3.356   0.759   5.186  0.00  0.00    +0.024 A 
ATOM     14  C   UNL     1      -4.490   1.339   5.720  0.00  0.00    +0.002 A 
ATOM     15  C   UNL     1      -4.618   2.714   5.750  0.00  0.00    +0.008 A 
ATOM     16  C   UNL     1      -3.602   3.520   5.241  0.00  0.00    -0.016 A 
ATOM     17  C   UNL     1      -2.456   2.936   4.708  0.00  0.00    +0.032 A 
BRANCH  16  18
ATOM     18  C   UNL     1      -3.738   4.997   5.272  0.00  0.00    -0.018 A 
ATOM     19  C   UNL     1      -2.725   5.804   4.758  0.00  0.00    +0.008 A 
ATOM     20  C   UNL     1      -2.857   7.177   4.789  0.00  0.00    +0.001 A 
ATOM     21  C   UNL     1      -3.993   7.753   5.329  0.00  0.00    +0.000 A 
ATOM     22  C   UNL     1      -5.001   6.958   5.842  0.00  0.00    +0.001 A 
ATOM     23  C   UNL     1      -4.882   5.583   5.810  0.00  0.00    +0.008 A 
ENDBRANCH  16  18
ENDBRANCH   3  12
BRANCH  10  24
ATOM     24  C   UNL     1       3.917   3.726   5.480  0.00  0.00    +0.034 A 
ATOM     25  C   UNL     1       4.739   2.656   5.810  0.00  0.00    +0.025 A 
ATOM     26  C   UNL     1       5.932   2.880   6.468  0.00  0.00    +0.025 A 
ATOM     27  C   UNL     1       6.309   4.174   6.801  0.00  0.00    +0.030 A 
ATOM     28  C   UNL     1       5.487   5.244   6.471  0.00  0.00    +0.025 A 
ATOM     29  C   UNL     1       4.297   5.020   5.808  0.00  0.00    +0.025 A 
BRANCH  27  30
ATOM     30  N   UNL     1       7.518   4.400   7.468  0.00  0.00    -0.327 N 
ATOM     31  C   UNL     1       7.871   5.742   7.957  0.00  0.00    +0.120 C 
ATOM     32  C   UNL     1       8.271   5.634   9.432  0.00  0.00    +0.103 C 
ATOM     33  N   UNL     1       9.326   4.623   9.577  0.00  0.00    -0.302 NA
ATOM     34  C   UNL     1       8.846   3.291   9.186  0.00  0.00    +0.103 C 
ATOM     35  C   UNL     1       8.467   3.302   7.706  0.00  0.00    +0.120 C 
ATOM     36  C   UNL     1       9.858   4.609  10.947  0.00  0.00    +0.105 C 
ENDBRANCH  27  30
ENDBRANCH  10  24
BRANCH   1  37
ATOM     37  O   UNL     1      -0.160  -0.259   2.434  0.00  0.00    -0.410 OA
BRANCH  37  44
ATOM     38  C   UNL     1      -0.092   1.121  -0.030  0.00  0.00    +0.047 C 
ATOM     39  C   UNL     1      -0.270  -0.373   0.060  0.00  0.00    -0.008 A 
ATOM     40  C   UNL     1      -0.402  -1.124  -1.092  0.00  0.00    +0.007 A 
ATOM     41  C   UNL     1      -0.565  -2.495  -1.009  0.00  0.00    +0.001 A 
ATOM     42  C   UNL     1      -0.596  -3.117   0.225  0.00  0.00    +0.007 A 
ATOM     43  C   UNL     1      -0.464  -2.370   1.380  0.00  0.00    -0.008 A 
ATOM     44  C   UNL     1      -0.295  -0.995   1.300  0.00  0.00    +0.139 A 
ATOM     45  C   UNL     1      -0.498  -3.048   2.725  0.00  0.00    +0.047 C 
ENDBRANCH  37  44
ENDBRANCH   1  37
TORSDOF 6
