REMARK  Name = CHEMBL562724
REMARK  8 active torsions:
REMARK  status: ('A' for Active; 'I' for Inactive)
REMARK    1  A    between atoms: C_1  and  C_2
REMARK    2  A    between atoms: C_4  and  N_32
REMARK    3  A    between atoms: C_10  and  C_12
REMARK    4  A    between atoms: C_13  and  N_20
REMARK    5  A    between atoms: N_20  and  C_21
REMARK    6  A    between atoms: C_21  and  C_22
REMARK    7  A    between atoms: C_22  and  C_24
REMARK    8  A    between atoms: C_22  and  O_31
REMARK                            x       y       z     vdW  Elec       q    Type
REMARK                         _______ _______ _______ _____ _____    ______ ____
ROOT
ATOM      1  C   UNL     1       0.017  -1.668   4.410  0.00  0.00    +0.102 A 
ATOM      2  C   UNL     1       0.146  -2.982   4.883  0.00  0.00    +0.045 A 
ATOM      3  C   UNL     1       0.187  -3.200   6.273  0.00  0.00    +0.041 A 
ATOM      4  C   UNL     1       0.102  -2.154   7.123  0.00  0.00    +0.088 A 
ATOM      5  N   UNL     1      -0.023  -0.881   6.665  0.00  0.00    -0.328 N 
ATOM      6  H   UNL     1      -0.081  -0.150   7.301  0.00  0.00    +0.168 HD
ATOM      7  C   UNL     1      -0.061  -0.613   5.347  0.00  0.00    +0.261 A 
ATOM      8  O   UNL     1      -0.168   0.539   4.961  0.00  0.00    -0.267 OA
ENDROOT
BRANCH   1  18
ATOM      9  C   UNL     1      -0.096   2.045   0.186  0.00  0.00    +0.046 C 
ATOM     10  C   UNL     1      -0.116   0.557  -0.050  0.00  0.00    -0.023 A 
ATOM     11  C   UNL     1      -0.158   0.063  -1.337  0.00  0.00    +0.028 A 
ATOM     12  C   UNL     1      -0.177  -1.311  -1.565  0.00  0.00    +0.032 A 
ATOM     13  C   UNL     1      -0.153  -2.196  -0.503  0.00  0.00    +0.053 A 
ATOM     14  C   UNL     1      -0.110  -1.706   0.806  0.00  0.00    +0.091 A 
ATOM     15  C   UNL     1      -0.086  -0.317   1.026  0.00  0.00    +0.070 A 
ATOM     16  N   UNL     1      -0.039  -0.144   2.400  0.00  0.00    -0.337 N 
ATOM     17  H   UNL     1      -0.016   0.703   2.873  0.00  0.00    +0.167 HD
ATOM     18  C   UNL     1      -0.029  -1.392   2.965  0.00  0.00    +0.146 A 
ATOM     19  N   UNL     1      -0.079  -2.306   2.022  0.00  0.00    -0.227 NA
BRANCH  12  20
ATOM     20  N   UNL     1      -0.221  -1.798  -2.876  0.00  0.00    -0.325 N 
ATOM     21  C   UNL     1      -0.369  -0.885  -4.019  0.00  0.00    +0.133 C 
ATOM     22  C   UNL     1       0.722  -1.213  -5.045  0.00  0.00    +0.178 C 
ATOM     23  O   UNL     1       0.685  -2.611  -5.341  0.00  0.00    -0.377 OA
ATOM     24  C   UNL     1       0.960  -3.454  -4.219  0.00  0.00    +0.178 C 
ATOM     25  C   UNL     1      -0.113  -3.240  -3.152  0.00  0.00    +0.133 C 
ENDBRANCH  12  20
ENDBRANCH   1  18
BRANCH   2  26
ATOM     26  N   UNL     1       0.230  -4.040   4.003  0.00  0.00    -0.340 N 
ATOM     27  H   UNL     1       0.282  -3.874   3.049  0.00  0.00    +0.146 HD
BRANCH  26  28
ATOM     28  C   UNL     1       0.242  -5.414   4.509  0.00  0.00    +0.137 C 
BRANCH  28  29
ATOM     29  C   UNL     1       0.341  -6.389   3.334  0.00  0.00    +0.163 C 
BRANCH  29  30
ATOM     30  C   UNL     1       0.230  -7.803   3.844  0.00  0.00    +0.001 A 
ATOM     31  C   UNL     1       1.372  -8.530   4.123  0.00  0.00    +0.007 A 
ATOM     32  C   UNL     1       1.270  -9.826   4.590  0.00  0.00    +0.000 A 
ATOM     33  C   UNL     1       0.025 -10.398   4.780  0.00  0.00    +0.001 A 
ATOM     34  C   UNL     1      -1.118  -9.672   4.501  0.00  0.00    +0.020 A 
ATOM     35  C   UNL     1      -1.016  -8.372   4.039  0.00  0.00    +0.047 A 
ATOM     36 CL   UNL     1      -2.452  -7.458   3.695  0.00  0.00    -0.083 Cl
ENDBRANCH  29  30
BRANCH  29  37
ATOM     37  O   UNL     1       1.599  -6.218   2.678  0.00  0.00    -0.386 OA
ATOM     38  H   UNL     1       2.364  -6.377   3.247  0.00  0.00    +0.210 HD
ENDBRANCH  29  37
ENDBRANCH  28  29
ENDBRANCH  26  28
ENDBRANCH   2  26
TORSDOF 7
