REMARK  Name = CHEMBL565933
REMARK  5 active torsions:
REMARK  status: ('A' for Active; 'I' for Inactive)
REMARK    1  A    between atoms: C_1  and  C_2
REMARK    2  A    between atoms: C_2  and  C_4
REMARK    3  A    between atoms: C_2  and  N_10
REMARK    4  A    between atoms: C_15  and  N_17
REMARK    5  A    between atoms: C_24  and  C_26
REMARK                            x       y       z     vdW  Elec       q    Type
REMARK                         _______ _______ _______ _____ _____    ______ ____
ROOT
ATOM      1  N   UNL     1       4.624  -1.580  -3.518  0.00  0.00    -0.283 N 
ATOM      2  C   UNL     1       5.966  -1.753  -3.693  0.00  0.00    +0.206 A 
ATOM      3  N   UNL     1       6.208  -2.182  -4.896  0.00  0.00    -0.235 NA
ATOM      4  C   UNL     1       5.040  -2.315  -5.579  0.00  0.00    +0.090 A 
ATOM      5  C   UNL     1       4.007  -1.936  -4.703  0.00  0.00    +0.075 A 
ATOM      6  C   UNL     1       2.685  -1.975  -5.126  0.00  0.00    +0.029 A 
ATOM      7  C   UNL     1       2.382  -2.385  -6.394  0.00  0.00    +0.012 A 
ATOM      8  C   UNL     1       3.397  -2.768  -7.276  0.00  0.00    +0.003 A 
ATOM      9  C   UNL     1       4.726  -2.728  -6.873  0.00  0.00    +0.040 A 
ENDROOT
BRANCH   8  10
ATOM     10  C   UNL     1       3.055  -3.211  -8.649  0.00  0.00    +0.076 A 
ATOM     11  C   UNL     1       1.736  -3.145  -9.107  0.00  0.00    +0.048 A 
ATOM     12  C   UNL     1       1.464  -3.569 -10.395  0.00  0.00    +0.116 A 
ATOM     13  N   UNL     1       2.453  -4.021 -11.150  0.00  0.00    -0.223 NA
ATOM     14  C   UNL     1       3.694  -4.072 -10.690  0.00  0.00    +0.213 A 
ATOM     15  N   UNL     1       3.999  -3.672  -9.466  0.00  0.00    -0.215 NA
ATOM     16  N   UNL     1       4.699  -4.551 -11.512  0.00  0.00    -0.327 N 
ATOM     17  H   UNL     1       4.490  -4.845 -12.413  0.00  0.00    +0.145 HD
ATOM     18  H   UNL     1       5.612  -4.594 -11.188  0.00  0.00    +0.145 HD
ENDBRANCH   8  10
BRANCH   1  24
ATOM     19  N   UNL     1       0.688  -0.476  -1.203  0.00  0.00    -0.307 N 
ATOM     20  C   UNL     1       2.067  -0.590  -1.215  0.00  0.00    +0.217 A 
ATOM     21  N   UNL     1       2.751  -0.272  -0.126  0.00  0.00    -0.223 NA
ATOM     22  C   UNL     1       4.071  -0.368  -0.099  0.00  0.00    +0.118 A 
ATOM     23  C   UNL     1       4.740  -0.807  -1.228  0.00  0.00    +0.066 A 
ATOM     24  C   UNL     1       3.993  -1.134  -2.358  0.00  0.00    +0.144 A 
ATOM     25  N   UNL     1       2.670  -1.019  -2.313  0.00  0.00    -0.197 NA
ATOM     26  H   UNL     1       0.175  -0.710  -1.993  0.00  0.00    +0.149 HD
BRANCH  19  28
ATOM     27  C   UNL     1      -0.019   1.526   0.010  0.00  0.00    +0.033 C 
ATOM     28  C   UNL     1       0.002  -0.004   0.002  0.00  0.00    +0.100 C 
BRANCH  28  29
ATOM     29  C   UNL     1      -1.412  -0.526   0.013  0.00  0.00    -0.027 A 
ATOM     30  C   UNL     1      -2.141  -0.569  -1.161  0.00  0.00    +0.005 A 
ATOM     31  C   UNL     1      -3.438  -1.047  -1.151  0.00  0.00    +0.000 A 
ATOM     32  C   UNL     1      -4.005  -1.483   0.032  0.00  0.00    +0.000 A 
ATOM     33  C   UNL     1      -3.275  -1.441   1.205  0.00  0.00    +0.000 A 
ATOM     34  C   UNL     1      -1.977  -0.966   1.195  0.00  0.00    +0.005 A 
ENDBRANCH  28  29
ENDBRANCH  19  28
ENDBRANCH   1  24
TORSDOF 4
