REMARK  Name = CHEMBL189649
REMARK  4 active torsions:
REMARK  status: ('A' for Active; 'I' for Inactive)
REMARK    1  A    between atoms: C_1  and  C_2
REMARK    2  A    between atoms: C_7  and  N_8
REMARK    3  A    between atoms: C_9  and  C_11
REMARK    4  A    between atoms: C_19  and  N_23
REMARK                            x       y       z     vdW  Elec       q    Type
REMARK                         _______ _______ _______ _____ _____    ______ ____
ROOT
ATOM      1  C   UNL     1      -1.211   0.301   4.713  0.00  0.00    +0.095 A 
ATOM      2  C   UNL     1      -1.575  -0.112   5.986  0.00  0.00    +0.133 A 
ATOM      3  N   UNL     1      -1.346   0.732   6.960  0.00  0.00    -0.232 NA
ATOM      4  C   UNL     1      -0.797   1.913   6.735  0.00  0.00    +0.164 A 
ATOM      5  S   UNL     1      -0.546   1.920   5.071  0.00  0.00    -0.047 S 
ATOM      6  N   UNL     1      -0.495   2.903   7.648  0.00  0.00    -0.280 N 
ATOM      7  C   UNL     1      -0.698   2.682   9.004  0.00  0.00    +0.106 A 
ATOM      8  C   UNL     1      -1.060   1.421   9.467  0.00  0.00    +0.085 A 
ATOM      9  C   UNL     1      -1.251   1.251  10.835  0.00  0.00    +0.126 A 
ATOM     10  N   UNL     1      -1.081   2.293  11.646  0.00  0.00    -0.223 NA
ATOM     11  C   UNL     1      -0.737   3.472  11.168  0.00  0.00    +0.199 A 
ATOM     12  N   UNL     1      -0.541   3.672   9.881  0.00  0.00    -0.334 N 
ATOM     13  H   UNL     1      -0.142   3.753   7.343  0.00  0.00    +0.155 HD
ATOM     14  H   UNL     1      -0.285   4.553   9.567  0.00  0.00    +0.168 HD
ENDROOT
BRANCH   9  15
ATOM     15  N   UNL     1      -1.614   0.014  11.346  0.00  0.00    -0.311 N 
ATOM     16  C   UNL     1      -2.057  -0.128  12.742  0.00  0.00    +0.134 C 
ATOM     17  C   UNL     1      -3.379  -0.903  12.754  0.00  0.00    +0.178 C 
ATOM     18  O   UNL     1      -3.221  -2.114  12.011  0.00  0.00    -0.377 OA
ATOM     19  C   UNL     1      -2.914  -1.917  10.629  0.00  0.00    +0.178 C 
ATOM     20  C   UNL     1      -1.573  -1.194  10.507  0.00  0.00    +0.134 C 
ENDBRANCH   9  15
BRANCH   1  22
ATOM     21  N   UNL     1      -0.903   0.194   2.300  0.00  0.00    -0.280 N 
ATOM     22  C   UNL     1      -1.332  -0.397   3.433  0.00  0.00    +0.256 C 
ATOM     23  O   UNL     1      -1.819  -1.512   3.392  0.00  0.00    -0.269 OA
ATOM     24  H   UNL     1      -0.442   1.046   2.342  0.00  0.00    +0.155 HD
BRANCH  21  31
ATOM     25  C   UNL     1      -2.146   1.715   0.242  0.00  0.00    +0.046 C 
ATOM     26  C   UNL     1      -1.726   0.283   0.032  0.00  0.00    -0.028 A 
ATOM     27  C   UNL     1      -1.936  -0.326  -1.190  0.00  0.00    +0.005 A 
ATOM     28  C   UNL     1      -1.552  -1.640  -1.384  0.00  0.00    +0.002 A 
ATOM     29  C   UNL     1      -0.956  -2.349  -0.357  0.00  0.00    +0.022 A 
ATOM     30  C   UNL     1      -0.743  -1.745   0.868  0.00  0.00    +0.062 A 
ATOM     31  C   UNL     1      -1.123  -0.423   1.064  0.00  0.00    +0.055 A 
ATOM     32 CL   UNL     1       0.005  -2.635   2.157  0.00  0.00    -0.082 Cl
ENDBRANCH  21  31
ENDBRANCH   1  22
TORSDOF 3
