REMARK  Name = CHEMBL1082693
REMARK  8 active torsions:
REMARK  status: ('A' for Active; 'I' for Inactive)
REMARK    1  A    between atoms: C_1  and  N_2
REMARK    2  A    between atoms: N_5  and  C_8
REMARK    3  A    between atoms: C_11  and  C_14
REMARK    4  A    between atoms: C_21  and  C_24
REMARK    5  A    between atoms: C_22  and  N_23
REMARK    6  A    between atoms: C_27  and  N_30
REMARK    7  A    between atoms: N_33  and  C_34
REMARK    8  A    between atoms: N_33  and  C_35
REMARK                            x       y       z     vdW  Elec       q    Type
REMARK                         _______ _______ _______ _____ _____    ______ ____
ROOT
ATOM      1  C   UNL     1      -2.301  -6.952   3.855  0.00  0.00    +0.046 A 
ATOM      2  C   UNL     1      -3.610  -7.088   4.332  0.00  0.00    +0.145 A 
ATOM      3  N   UNL     1      -3.749  -8.284   4.850  0.00  0.00    -0.171 NA
ATOM      4  N   UNL     1      -2.541  -8.980   4.734  0.00  0.00    -0.200 N 
ATOM      5  C   UNL     1      -1.638  -8.159   4.111  0.00  0.00    +0.165 A 
ATOM      6  N   UNL     1      -0.390  -8.570   3.862  0.00  0.00    -0.235 NA
ATOM      7  C   UNL     1       0.015  -9.773   4.201  0.00  0.00    +0.125 A 
ATOM      8  C   UNL     1      -0.867 -10.662   4.840  0.00  0.00    +0.040 A 
ATOM      9  C   UNL     1      -2.166 -10.242   5.111  0.00  0.00    +0.129 A 
ENDROOT
BRANCH   1  13
ATOM     10  C   UNL     1      -0.650  -3.519   1.964  0.00  0.00    +0.030 A 
ATOM     11  C   UNL     1      -1.865  -4.033   1.529  0.00  0.00    +0.024 A 
ATOM     12  C   UNL     1      -2.403  -5.146   2.140  0.00  0.00    +0.010 A 
ATOM     13  C   UNL     1      -1.725  -5.756   3.196  0.00  0.00    -0.013 A 
ATOM     14  C   UNL     1      -0.505  -5.238   3.630  0.00  0.00    +0.010 A 
ATOM     15  C   UNL     1       0.030  -4.128   3.012  0.00  0.00    +0.024 A 
BRANCH  10  20
ATOM     16  C   UNL     1       0.251   1.762   0.841  0.00  0.00    +0.105 C 
ATOM     17  N   UNL     1       0.353   0.298   0.769  0.00  0.00    -0.302 NA
ATOM     18  C   UNL     1      -0.934  -0.302   0.394  0.00  0.00    +0.103 C 
ATOM     19  C   UNL     1      -0.744  -1.803   0.154  0.00  0.00    +0.120 C 
ATOM     20  N   UNL     1      -0.108  -2.390   1.343  0.00  0.00    -0.327 N 
ATOM     21  C   UNL     1       1.115  -1.758   1.861  0.00  0.00    +0.120 C 
ATOM     22  C   UNL     1       0.852  -0.258   2.034  0.00  0.00    +0.103 C 
ENDBRANCH  10  20
ENDBRANCH   1  13
BRANCH   8  23
ATOM     23  C   UNL     1      -0.419 -12.021   5.226  0.00  0.00    -0.013 A 
ATOM     24  C   UNL     1      -0.356 -12.380   6.572  0.00  0.00    +0.010 A 
ATOM     25  C   UNL     1       0.060 -13.645   6.929  0.00  0.00    +0.024 A 
ATOM     26  C   UNL     1       0.418 -14.562   5.949  0.00  0.00    +0.035 A 
ATOM     27  C   UNL     1       0.356 -14.207   4.606  0.00  0.00    +0.024 A 
ATOM     28  C   UNL     1      -0.065 -12.945   4.244  0.00  0.00    +0.010 A 
BRANCH  26  29
ATOM     29  N   UNL     1       0.841 -15.845   6.313  0.00  0.00    -0.269 N 
ATOM     30  C   UNL     1       0.515 -16.905   5.548  0.00  0.00    +0.306 C 
ATOM     31  O   UNL     1      -0.076 -16.739   4.498  0.00  0.00    -0.252 OA
ATOM     32  N   UNL     1       0.843 -18.151   5.946  0.00  0.00    -0.285 N 
ATOM     33  C   UNL     1       1.555 -18.352   7.210  0.00  0.00    +0.134 C 
ATOM     34  H   UNL     1       1.369 -15.972   7.117  0.00  0.00    +0.156 HD
BRANCH  32  35
ATOM     35  C   UNL     1       0.488 -19.303   5.114  0.00  0.00    +0.077 C 
ATOM     36  C   UNL     1      -0.423 -20.243   5.905  0.00  0.00    +0.022 C 
ATOM     37  C   UNL     1      -0.793 -21.446   5.036  0.00  0.00    +0.002 C 
ATOM     38  C   UNL     1       0.479 -22.192   4.630  0.00  0.00    +0.000 C 
ATOM     39  C   UNL     1       1.390 -21.253   3.838  0.00  0.00    +0.002 C 
ATOM     40  C   UNL     1       1.761 -20.049   4.707  0.00  0.00    +0.022 C 
ENDBRANCH  32  35
ENDBRANCH  26  29
ENDBRANCH   8  23
BRANCH   9  41
ATOM     41  N   UNL     1      -3.059 -11.083   5.732  0.00  0.00    -0.343 N 
ATOM     42  H   UNL     1      -3.966 -10.785   5.907  0.00  0.00    +0.144 HD
ATOM     43  H   UNL     1      -2.784 -11.975   5.995  0.00  0.00    +0.144 HD
ENDBRANCH   9  41
TORSDOF 6
