REMARK  Name = CHEMBL584044
REMARK  5 active torsions:
REMARK  status: ('A' for Active; 'I' for Inactive)
REMARK    1  A    between atoms: C_1  and  C_2
REMARK    2  A    between atoms: C_2  and  C_3
REMARK    3  A    between atoms: C_2  and  N_13
REMARK    4  A    between atoms: N_11  and  C_12
REMARK    5  A    between atoms: C_18  and  N_20
REMARK                            x       y       z     vdW  Elec       q    Type
REMARK                         _______ _______ _______ _____ _____    ______ ____
ROOT
ATOM      1  N   UNL     1      -1.372  -0.522   0.002  0.00  0.00    -0.311 N 
ATOM      2  C   UNL     1      -2.065  -0.661  -1.188  0.00  0.00    +0.217 A 
ATOM      3  N   UNL     1      -1.469  -0.332  -2.325  0.00  0.00    -0.223 NA
ATOM      4  C   UNL     1      -2.100  -0.451  -3.483  0.00  0.00    +0.118 A 
ATOM      5  C   UNL     1      -3.398  -0.926  -3.499  0.00  0.00    +0.066 A 
ATOM      6  C   UNL     1      -3.999  -1.265  -2.287  0.00  0.00    +0.144 A 
ATOM      7  N   UNL     1      -3.305  -1.125  -1.163  0.00  0.00    -0.197 NA
ATOM      8  H   UNL     1      -1.795  -0.763   0.841  0.00  0.00    +0.149 HD
ENDROOT
BRANCH   6   9
ATOM      9  N   UNL     1      -5.305  -1.747  -2.255  0.00  0.00    -0.283 N 
ATOM     10  C   UNL     1      -6.120  -1.948  -3.331  0.00  0.00    +0.206 A 
ATOM     11  N   UNL     1      -7.272  -2.407  -2.938  0.00  0.00    -0.235 NA
ATOM     12  C   UNL     1      -7.279  -2.534  -1.586  0.00  0.00    +0.089 A 
ATOM     13  C   UNL     1      -6.017  -2.118  -1.128  0.00  0.00    +0.075 A 
ATOM     14  C   UNL     1      -5.729  -2.144   0.229  0.00  0.00    +0.028 A 
ATOM     15  C   UNL     1      -6.683  -2.581   1.124  0.00  0.00    +0.002 A 
ATOM     16  C   UNL     1      -7.929  -2.996   0.677  0.00  0.00    +0.002 A 
ATOM     17  C   UNL     1      -8.235  -2.969  -0.665  0.00  0.00    +0.030 A 
ENDBRANCH   6   9
BRANCH   1  19
ATOM     18  C   UNL     1      -0.024   1.518   0.001  0.00  0.00    +0.028 C 
ATOM     19  C   UNL     1       0.001  -0.011  -0.005  0.00  0.00    +0.075 C 
BRANCH  19  20
ATOM     20  C   UNL     1       0.739  -0.514   1.237  0.00  0.00    +0.026 C 
ATOM     21  C   UNL     1       2.175   0.016   1.228  0.00  0.00    +0.008 C 
ATOM     22  C   UNL     1       2.904  -0.460   2.486  0.00  0.00    +0.019 C 
ATOM     23  C   UNL     1       2.954  -1.991   2.495  0.00  0.00    +0.109 C 
ATOM     24  N   UNL     1       1.586  -2.510   2.357  0.00  0.00    -0.285 N 
ATOM     25  C   UNL     1       0.765  -2.046   1.231  0.00  0.00    +0.114 C 
ATOM     26  C   UNL     1       1.095  -3.394   3.248  0.00  0.00    +0.302 C 
ATOM     27  O   UNL     1      -0.068  -3.744   3.179  0.00  0.00    -0.253 OA
ATOM     28  N   UNL     1       1.892  -3.892   4.214  0.00  0.00    -0.302 N 
ATOM     29  C   UNL     1       1.390  -4.933   5.114  0.00  0.00    +0.129 C 
ATOM     30  H   UNL     1       2.798  -3.560   4.314  0.00  0.00    +0.150 HD
ENDBRANCH  19  20
ENDBRANCH   1  19
TORSDOF 3
