REMARK  Name = CHEMBL595401
REMARK  11 active torsions:
REMARK  status: ('A' for Active; 'I' for Inactive)
REMARK    1  A    between atoms: C_1  and  N_2
REMARK    2  A    between atoms: N_2  and  C_3
REMARK    3  A    between atoms: N_2  and  C_4
REMARK    4  A    between atoms: C_4  and  C_5
REMARK    5  A    between atoms: C_5  and  O_6
REMARK    6  A    between atoms: O_6  and  C_7
REMARK    7  A    between atoms: C_17  and  C_36
REMARK    8  A    between atoms: C_18  and  C_20
REMARK    9  A    between atoms: C_23  and  N_26
REMARK   10  A    between atoms: N_26  and  C_27
REMARK   11  A    between atoms: C_27  and  C_28
REMARK                            x       y       z     vdW  Elec       q    Type
REMARK                         _______ _______ _______ _____ _____    ______ ____
ROOT
ATOM      1  C   UNL     1       4.129  -0.444   0.117  0.00  0.00    +0.121 A 
ATOM      2  C   UNL     1       4.782   0.442  -0.729  0.00  0.00    +0.047 A 
ATOM      3  C   UNL     1       6.120   0.692  -0.523  0.00  0.00    +0.027 A 
ATOM      4  C   UNL     1       6.817   0.072   0.518  0.00  0.00    +0.036 A 
ATOM      5  C   UNL     1       6.180  -0.800   1.370  0.00  0.00    -0.021 A 
ATOM      6  C   UNL     1       4.817  -1.046   1.147  0.00  0.00    +0.051 A 
ATOM      7  C   UNL     1       6.718  -1.555   2.567  0.00  0.00    +0.060 C 
ATOM      8  C   UNL     1       8.069  -1.078   3.055  0.00  0.00    +0.150 C 
ATOM      9  N   UNL     1       9.095  -1.247   2.021  0.00  0.00    -0.249 N 
ATOM     10  C   UNL     1       9.117  -0.571   0.887  0.00  0.00    +0.134 A 
ATOM     11  C   UNL     1      10.198  -0.993   0.130  0.00  0.00    +0.104 A 
ATOM     12  C   UNL     1      10.868  -2.018   0.947  0.00  0.00    +0.107 A 
ATOM     13  N   UNL     1      10.180  -2.132   2.063  0.00  0.00    -0.169 NA
ATOM     14  N   UNL     1       8.174   0.393   0.612  0.00  0.00    -0.299 N 
ATOM     15  H   UNL     1       8.456   1.312   0.481  0.00  0.00    +0.154 HD
ENDROOT
BRANCH  12  16
ATOM     16  C   UNL     1      12.086  -2.778   0.581  0.00  0.00    +0.003 A 
ATOM     17  C   UNL     1      12.312  -3.139  -0.747  0.00  0.00    +0.012 A 
ATOM     18  C   UNL     1      13.446  -3.846  -1.085  0.00  0.00    +0.023 A 
ATOM     19  C   UNL     1      14.365  -4.199  -0.103  0.00  0.00    +0.027 A 
ATOM     20  C   UNL     1      14.142  -3.841   1.222  0.00  0.00    +0.023 A 
ATOM     21  C   UNL     1      13.012  -3.129   1.563  0.00  0.00    +0.012 A 
BRANCH  19  22
ATOM     22  N   UNL     1      15.512  -4.915  -0.447  0.00  0.00    -0.340 N 
ATOM     23  H   UNL     1      15.669  -5.165  -1.371  0.00  0.00    +0.146 HD
BRANCH  22  24
ATOM     24  C   UNL     1      16.481  -5.287   0.587  0.00  0.00    +0.139 C 
BRANCH  24  25
ATOM     25  C   UNL     1      17.620  -6.048  -0.043  0.00  0.00    +0.006 A 
ATOM     26  C   UNL     1      17.553  -7.425  -0.157  0.00  0.00    +0.047 A 
ATOM     27  C   UNL     1      18.599  -8.123  -0.735  0.00  0.00    +0.020 A 
ATOM     28  C   UNL     1      19.710  -7.444  -1.197  0.00  0.00    +0.003 A 
ATOM     29  C   UNL     1      19.778  -6.068  -1.083  0.00  0.00    +0.020 A 
ATOM     30  C   UNL     1      18.730  -5.369  -0.511  0.00  0.00    +0.047 A 
ATOM     31 CL   UNL     1      18.812  -3.640  -0.375  0.00  0.00    -0.083 Cl
ATOM     32 CL   UNL     1      16.157  -8.277   0.425  0.00  0.00    -0.083 Cl
ENDBRANCH  24  25
ENDBRANCH  22  24
ENDBRANCH  19  22
ENDBRANCH  12  16
BRANCH  11  33
ATOM     33  C   UNL     1      10.591  -0.519  -1.200  0.00  0.00    +0.247 C 
ATOM     34  O   UNL     1      11.354   0.423  -1.310  0.00  0.00    -0.270 OA
ATOM     35  N   UNL     1      10.106  -1.126  -2.302  0.00  0.00    -0.325 N 
ATOM     36  H   UNL     1       9.498  -1.877  -2.214  0.00  0.00    +0.145 HD
ATOM     37  H   UNL     1      10.366  -0.813  -3.182  0.00  0.00    +0.145 HD
ENDBRANCH  11  33
BRANCH   1  38
ATOM     38  O   UNL     1       2.809  -0.713  -0.069  0.00  0.00    -0.494 OA
BRANCH  38  39
ATOM     39  C   UNL     1       2.159  -0.053  -1.157  0.00  0.00    +0.210 C 
BRANCH  39  40
ATOM     40  C   UNL     1       0.690  -0.478  -1.207  0.00  0.00    -0.038 C 
BRANCH  40  42
ATOM     41  C   UNL     1      -0.018   1.465   0.010  0.00  0.00    -0.096 C 
ATOM     42  N   UNL     1       0.002  -0.004   0.002  0.00  0.00    +0.378 N 
ATOM     43  C   UNL     1      -1.376  -0.512   0.012  0.00  0.00    -0.096 C 
ATOM     44  H   UNL     1       0.490  -0.338   0.820  0.00  0.00    -0.082 HD
ENDBRANCH  40  42
ENDBRANCH  39  40
ENDBRANCH  38  39
ENDBRANCH   1  38
TORSDOF 9
