REMARK  Name = CHEMBL314049
REMARK  3 active torsions:
REMARK  status: ('A' for Active; 'I' for Inactive)
REMARK    1  A    between atoms: C_1  and  C_2
REMARK    2  A    between atoms: C_7  and  N_8
REMARK    3  A    between atoms: C_19  and  N_22
REMARK                            x       y       z     vdW  Elec       q    Type
REMARK                         _______ _______ _______ _____ _____    ______ ____
ROOT
ATOM      1  N   UNL     1       0.830  -0.191   2.520  0.00  0.00    -0.296 N 
ATOM      2  C   UNL     1       0.438  -0.799   3.700  0.00  0.00    +0.149 A 
ATOM      3  C   UNL     1       0.445  -0.043   4.951  0.00  0.00    +0.106 A 
ATOM      4  C   UNL     1       0.772   1.245   5.293  0.00  0.00    +0.142 A 
ATOM      5  N   UNL     1       0.579   1.373   6.608  0.00  0.00    -0.243 NA
ATOM      6  C   UNL     1       0.149   0.240   7.105  0.00  0.00    +0.204 A 
ATOM      7  N   UNL     1       0.049  -0.668   6.119  0.00  0.00    -0.294 N 
ATOM      8  C   UNL     1      -0.343  -2.001   6.066  0.00  0.00    +0.075 A 
ATOM      9  C   UNL     1      -0.747  -2.659   7.221  0.00  0.00    +0.028 A 
ATOM     10  C   UNL     1      -1.136  -3.982   7.166  0.00  0.00    +0.004 A 
ATOM     11  C   UNL     1      -1.129  -4.666   5.961  0.00  0.00    +0.025 A 
ATOM     12  C   UNL     1      -0.730  -4.030   4.799  0.00  0.00    +0.058 A 
ATOM     13  C   UNL     1      -0.332  -2.682   4.841  0.00  0.00    +0.111 A 
ATOM     14  N   UNL     1       0.053  -2.056   3.697  0.00  0.00    -0.226 NA
ATOM     15  H   UNL     1       0.897  -0.712   1.705  0.00  0.00    +0.154 HD
ENDROOT
BRANCH   1  22
ATOM     16  C   UNL     1       3.516   0.589   2.000  0.00  0.00    +0.046 C 
ATOM     17  C   UNL     1       2.428   1.600   2.254  0.00  0.00    -0.028 A 
ATOM     18  C   UNL     1       2.719   2.950   2.233  0.00  0.00    +0.005 A 
ATOM     19  C   UNL     1       1.722   3.878   2.466  0.00  0.00    +0.002 A 
ATOM     20  C   UNL     1       0.428   3.460   2.721  0.00  0.00    +0.022 A 
ATOM     21  C   UNL     1       0.129   2.111   2.743  0.00  0.00    +0.062 A 
ATOM     22  C   UNL     1       1.130   1.175   2.504  0.00  0.00    +0.054 A 
ATOM     23 CL   UNL     1      -1.494   1.585   3.064  0.00  0.00    -0.082 Cl
ENDBRANCH   1  22
BRANCH  12  24
ATOM     24  N   UNL     1      -0.725  -4.725   3.587  0.00  0.00    -0.324 N 
ATOM     25  C   UNL     1       0.499  -5.373   3.091  0.00  0.00    +0.133 C 
ATOM     26  C   UNL     1       0.163  -6.822   2.720  0.00  0.00    +0.178 C 
ATOM     27  O   UNL     1      -0.963  -6.833   1.839  0.00  0.00    -0.377 OA
ATOM     28  C   UNL     1      -2.161  -6.305   2.413  0.00  0.00    +0.178 C 
ATOM     29  C   UNL     1      -1.945  -4.835   2.772  0.00  0.00    +0.133 C 
ENDBRANCH  12  24
TORSDOF 2
