REMARK  Name = CHEMBL49860
REMARK  13 active torsions:
REMARK  status: ('A' for Active; 'I' for Inactive)
REMARK    1  A    between atoms: C_3  and  O_31
REMARK    2  A    between atoms: C_4  and  N_30
REMARK    3  A    between atoms: C_6  and  C_7
REMARK    4  A    between atoms: C_7  and  C_8
REMARK    5  A    between atoms: C_8  and  C_9
REMARK    6  A    between atoms: C_8  and  N_29
REMARK    7  A    between atoms: N_11  and  C_12
REMARK    8  A    between atoms: C_12  and  C_18
REMARK    9  A    between atoms: N_20  and  C_21
REMARK   10  A    between atoms: C_21  and  C_22
REMARK   11  A    between atoms: C_21  and  C_26
REMARK   12  A    between atoms: C_22  and  C_23
REMARK   13  A    between atoms: O_31  and  P_32
REMARK                            x       y       z     vdW  Elec       q    Type
REMARK                         _______ _______ _______ _____ _____    ______ ____
ROOT
ATOM      1  C   UNL     1      -3.094  -1.889  -1.603  0.00  0.00    +0.231 C 
ATOM      2  O   UNL     1      -4.218  -1.467  -1.775  0.00  0.00    -0.274 OA
ATOM      3  N   UNL     1      -2.900  -3.194  -1.327  0.00  0.00    -0.300 N 
ATOM      4  H   UNL     1      -1.998  -3.545  -1.254  0.00  0.00    +0.150 HD
ENDROOT
BRANCH   3   5
ATOM      5  C   UNL     1      -4.050  -4.083  -1.140  0.00  0.00    +0.111 C 
ATOM      6  C   UNL     1      -4.862  -4.146  -2.434  0.00  0.00    +0.035 C 
ATOM      7  C   UNL     1      -3.982  -4.684  -3.564  0.00  0.00    +0.003 C 
ATOM      8  C   UNL     1      -3.489  -6.086  -3.202  0.00  0.00    +0.000 C 
ATOM      9  C   UNL     1      -2.676  -6.023  -1.907  0.00  0.00    +0.003 C 
ATOM     10  C   UNL     1      -3.557  -5.485  -0.778  0.00  0.00    +0.035 C 
BRANCH   5  11
ATOM     11  C   UNL     1      -4.917  -3.553  -0.027  0.00  0.00    +0.237 C 
ATOM     12  O   UNL     1      -6.122  -3.681  -0.084  0.00  0.00    -0.273 OA
ATOM     13  N   UNL     1      -4.354  -2.936   1.031  0.00  0.00    -0.302 N 
ATOM     14  H   UNL     1      -3.389  -2.888   1.107  0.00  0.00    +0.150 HD
BRANCH  13  15
ATOM     15  C   UNL     1      -5.201  -2.339   2.066  0.00  0.00    +0.167 C 
BRANCH  15  16
ATOM     16  C   UNL     1      -5.588  -3.394   3.070  0.00  0.00    +0.231 C 
ATOM     17  O   UNL     1      -5.195  -4.533   2.934  0.00  0.00    -0.274 OA
ATOM     18  N   UNL     1      -6.371  -3.072   4.119  0.00  0.00    -0.328 N 
ATOM     19  H   UNL     1      -6.685  -2.161   4.228  0.00  0.00    +0.145 HD
ATOM     20  H   UNL     1      -6.620  -3.752   4.765  0.00  0.00    +0.145 HD
ENDBRANCH  15  16
BRANCH  15  21
ATOM     21  C   UNL     1      -4.431  -1.221   2.772  0.00  0.00    +0.127 C 
BRANCH  21  22
ATOM     22  C   UNL     1      -4.152  -0.108   1.795  0.00  0.00    +0.213 C 
ATOM     23  O   UNL     1      -4.531  -0.201   0.647  0.00  0.00    -0.276 OA
ATOM     24  N   UNL     1      -3.480   0.989   2.197  0.00  0.00    -0.329 N 
ATOM     25  H   UNL     1      -3.177   1.062   3.116  0.00  0.00    +0.145 HD
ATOM     26  H   UNL     1      -3.300   1.705   1.568  0.00  0.00    +0.145 HD
ENDBRANCH  21  22
ENDBRANCH  15  21
ENDBRANCH  13  15
ENDBRANCH   5  11
ENDBRANCH   3   5
BRANCH   1  27
ATOM     27  C   UNL     1      -1.915  -0.956  -1.698  0.00  0.00    +0.142 C 
BRANCH  27  28
ATOM     28  N   UNL     1      -2.301   0.245  -2.452  0.00  0.00    -0.320 NA
ATOM     29  H   UNL     1      -2.538   0.012  -3.405  0.00  0.00    +0.119 HD
ATOM     30  H   UNL     1      -3.061   0.728  -1.998  0.00  0.00    +0.119 HD
ENDBRANCH  27  28
BRANCH  27  31
ATOM     31  C   UNL     1      -1.469  -0.553  -0.291  0.00  0.00    +0.063 C 
BRANCH  31  37
ATOM     32  C   UNL     1      -0.311   1.655  -0.495  0.00  0.00    +0.007 A 
ATOM     33  C   UNL     1       0.835   2.426  -0.578  0.00  0.00    +0.048 A 
ATOM     34  C   UNL     1       2.080   1.821  -0.546  0.00  0.00    +0.153 A 
ATOM     35  C   UNL     1       2.176   0.436  -0.431  0.00  0.00    +0.068 A 
ATOM     36  C   UNL     1       1.023  -0.330  -0.349  0.00  0.00    +0.030 A 
ATOM     37  C   UNL     1      -0.217   0.281  -0.381  0.00  0.00    -0.043 A 
BRANCH  35  38
ATOM     38  N   UNL     1       3.432  -0.181  -0.399  0.00  0.00    -0.355 N 
ATOM     39  H   UNL     1       4.237   0.356  -0.458  0.00  0.00    +0.142 HD
ATOM     40  H   UNL     1       3.497  -1.145  -0.319  0.00  0.00    +0.142 HD
ENDBRANCH  35  38
BRANCH  34  41
ATOM     41  O   UNL     1       3.208   2.578  -0.628  0.00  0.00    -0.399 OA
BRANCH  41  42
ATOM     42  P   UNL     1       3.560   3.377   0.725  0.00  0.00    +0.589 P 
ATOM     43  O   UNL     1       2.330   4.247   1.153  0.00  0.00    -0.211 OA
ATOM     44  O   UNL     1       3.897   2.353   1.863  0.00  0.00    -0.104 OA
ATOM     45  O   UNL     1       4.796   4.306   0.476  0.00  0.00    -0.104 OA
ENDBRANCH  41  42
ENDBRANCH  34  41
ENDBRANCH  31  37
ENDBRANCH  27  31
ENDBRANCH   1  27
TORSDOF 13
