REMARK  Name = CHEMBL516276
REMARK  3 active torsions:
REMARK  status: ('A' for Active; 'I' for Inactive)
REMARK    1  A    between atoms: C_1  and  C_2
REMARK    2  A    between atoms: C_7  and  N_8
REMARK    3  A    between atoms: C_20  and  N_24
REMARK                            x       y       z     vdW  Elec       q    Type
REMARK                         _______ _______ _______ _____ _____    ______ ____
ROOT
ATOM      1  N   UNL     1      -0.412   0.072   2.365  0.00  0.00    -0.285 N 
ATOM      2  C   UNL     1      -0.564  -0.616   3.551  0.00  0.00    +0.184 A 
ATOM      3  N   UNL     1      -0.790  -1.902   3.651  0.00  0.00    -0.327 N 
ATOM      4  C   UNL     1      -0.886  -2.250   4.962  0.00  0.00    +0.066 A 
ATOM      5  C   UNL     1      -1.114  -3.462   5.618  0.00  0.00    +0.028 A 
ATOM      6  C   UNL     1      -1.157  -3.497   6.994  0.00  0.00    +0.002 A 
ATOM      7  C   UNL     1      -0.976  -2.338   7.734  0.00  0.00    +0.002 A 
ATOM      8  C   UNL     1      -0.750  -1.133   7.100  0.00  0.00    +0.028 A 
ATOM      9  C   UNL     1      -0.703  -1.079   5.716  0.00  0.00    +0.074 A 
ATOM     10  N   UNL     1      -0.495  -0.058   4.800  0.00  0.00    -0.266 N 
ATOM     11  C   UNL     1      -0.262   1.284   5.095  0.00  0.00    +0.145 A 
ATOM     12  C   UNL     1       0.038   2.187   4.081  0.00  0.00    +0.090 A 
ATOM     13  C   UNL     1       0.262   3.517   4.428  0.00  0.00    +0.121 A 
ATOM     14  N   UNL     1       0.181   3.873   5.708  0.00  0.00    -0.221 NA
ATOM     15  C   UNL     1      -0.106   2.986   6.639  0.00  0.00    +0.225 A 
ATOM     16  N   UNL     1      -0.330   1.720   6.350  0.00  0.00    -0.218 NA
ATOM     17  H   UNL     1      -0.929   0.876   2.201  0.00  0.00    +0.155 HD
ATOM     18  H   UNL     1      -0.876  -2.514   2.903  0.00  0.00    +0.169 HD
ENDROOT
BRANCH   1  25
ATOM     19  C   UNL     1      -1.350  -1.803   0.442  0.00  0.00    +0.046 C 
ATOM     20  C   UNL     1       0.072  -1.305   0.441  0.00  0.00    -0.028 A 
ATOM     21  C   UNL     1       0.962  -1.754  -0.515  0.00  0.00    +0.005 A 
ATOM     22  C   UNL     1       2.267  -1.297  -0.517  0.00  0.00    +0.002 A 
ATOM     23  C   UNL     1       2.686  -0.389   0.438  0.00  0.00    +0.022 A 
ATOM     24  C   UNL     1       1.802   0.065   1.397  0.00  0.00    +0.062 A 
ATOM     25  C   UNL     1       0.488  -0.389   1.399  0.00  0.00    +0.055 A 
ATOM     26 CL   UNL     1       2.329   1.204   2.596  0.00  0.00    -0.082 Cl
ENDBRANCH   1  25
BRANCH  13  27
ATOM     27  N   UNL     1       0.564   4.456   3.454  0.00  0.00    -0.343 N 
ATOM     28  H   UNL     1       0.622   4.188   2.524  0.00  0.00    +0.144 HD
ATOM     29  H   UNL     1       0.719   5.380   3.704  0.00  0.00    +0.144 HD
ENDBRANCH  13  27
TORSDOF 2
