REMARK  Name = CHEMBL240430
REMARK  10 active torsions:
REMARK  status: ('A' for Active; 'I' for Inactive)
REMARK    1  A    between atoms: C_4  and  C_7
REMARK    2  A    between atoms: C_9  and  N_31
REMARK    3  A    between atoms: C_15  and  C_16
REMARK    4  A    between atoms: C_19  and  O_22
REMARK    5  A    between atoms: O_22  and  C_23
REMARK    6  A    between atoms: C_23  and  C_24
REMARK    7  A    between atoms: C_24  and  N_25
REMARK    8  A    between atoms: N_31  and  C_32
REMARK    9  A    between atoms: C_32  and  C_33
REMARK   10  A    between atoms: C_33  and  N_34
REMARK                            x       y       z     vdW  Elec       q    Type
REMARK                         _______ _______ _______ _____ _____    ______ ____
ROOT
ATOM      1  C   UNL     1       2.204  -0.674   0.494  0.00  0.00    +0.039 A 
ATOM      2  C   UNL     1       2.459  -1.625  -0.599  0.00  0.00    +0.067 A 
ATOM      3  C   UNL     1       1.696  -2.122  -1.664  0.00  0.00    +0.042 A 
ATOM      4  C   UNL     1       2.297  -3.040  -2.522  0.00  0.00    +0.041 A 
ATOM      5  C   UNL     1       3.605  -3.421  -2.291  0.00  0.00    +0.087 A 
ATOM      6  N   UNL     1       4.299  -2.937  -1.280  0.00  0.00    -0.332 N 
ATOM      7  C   UNL     1       3.781  -2.059  -0.430  0.00  0.00    +0.209 A 
ATOM      8  O   UNL     1       4.281  -1.435   0.656  0.00  0.00    -0.438 OA
ATOM      9  C   UNL     1       3.368  -0.612   1.209  0.00  0.00    +0.146 A 
ATOM     10  H   UNL     1       5.215  -3.231  -1.154  0.00  0.00    +0.168 HD
ENDROOT
BRANCH   1  14
ATOM     11  C   UNL     1      -1.394   1.454   1.257  0.00  0.00    +0.000 A 
ATOM     12  C   UNL     1      -0.265   2.137   0.842  0.00  0.00    +0.001 A 
ATOM     13  C   UNL     1       0.907   1.452   0.593  0.00  0.00    +0.008 A 
ATOM     14  C   UNL     1       0.951   0.067   0.760  0.00  0.00    -0.014 A 
ATOM     15  C   UNL     1      -0.192  -0.616   1.178  0.00  0.00    +0.008 A 
ATOM     16  C   UNL     1      -1.357   0.081   1.424  0.00  0.00    +0.001 A 
ENDBRANCH   1  14
BRANCH   9  17
ATOM     17  C   UNL     1       3.590   0.225   2.403  0.00  0.00    +0.018 A 
ATOM     18  C   UNL     1       2.641   0.247   3.429  0.00  0.00    +0.015 A 
ATOM     19  C   UNL     1       2.852   1.030   4.543  0.00  0.00    +0.046 A 
ATOM     20  C   UNL     1       4.005   1.797   4.647  0.00  0.00    +0.121 A 
ATOM     21  C   UNL     1       4.951   1.778   3.631  0.00  0.00    +0.046 A 
ATOM     22  C   UNL     1       4.752   0.993   2.515  0.00  0.00    +0.015 A 
BRANCH  20  23
ATOM     23  O   UNL     1       4.208   2.568   5.747  0.00  0.00    -0.491 OA
BRANCH  23  24
ATOM     24  C   UNL     1       5.416   3.332   5.790  0.00  0.00    +0.244 C 
BRANCH  24  25
ATOM     25  C   UNL     1       5.468   4.131   7.094  0.00  0.00    +0.125 C 
BRANCH  25  26
ATOM     26  N   UNL     1       5.541   3.205   8.232  0.00  0.00    -0.295 NA
ATOM     27  C   UNL     1       5.135   3.871   9.479  0.00  0.00    +0.112 C 
ATOM     28  C   UNL     1       5.169   2.857  10.626  0.00  0.00    +0.175 C 
ATOM     29  O   UNL     1       6.478   2.290  10.717  0.00  0.00    -0.377 OA
ATOM     30  C   UNL     1       6.905   1.633   9.520  0.00  0.00    +0.175 C 
ATOM     31  C   UNL     1       6.889   2.634   8.362  0.00  0.00    +0.112 C 
ENDBRANCH  25  26
ENDBRANCH  24  25
ENDBRANCH  23  24
ENDBRANCH  20  23
ENDBRANCH   9  17
BRANCH   3  32
ATOM     32  N   UNL     1       0.382  -1.712  -1.859  0.00  0.00    -0.342 N 
ATOM     33  H   UNL     1      -0.021  -1.071  -1.252  0.00  0.00    +0.146 HD
BRANCH  32  34
ATOM     34  C   UNL     1      -0.394  -2.247  -2.981  0.00  0.00    +0.117 C 
BRANCH  34  35
ATOM     35  C   UNL     1      -1.797  -1.637  -2.967  0.00  0.00    +0.103 C 
BRANCH  35  36
ATOM     36  N   UNL     1      -2.575  -2.173  -4.092  0.00  0.00    -0.304 NA
ATOM     37  C   UNL     1      -2.822  -3.612  -3.923  0.00  0.00    +0.065 C 
ATOM     38  C   UNL     1      -3.582  -4.143  -5.141  0.00  0.00    -0.067 C 
ATOM     39  N   UNL     1      -4.854  -3.422  -5.277  0.00  0.00    +0.381 N 
ATOM     40  C   UNL     1      -4.590  -1.990  -5.470  0.00  0.00    -0.067 C 
ATOM     41  C   UNL     1      -3.839  -1.442  -4.254  0.00  0.00    +0.065 C 
ATOM     42  H   UNL     1      -5.360  -3.781  -6.073  0.00  0.00    -0.086 HD
ATOM     43  H   UNL     1      -5.405  -3.553  -4.442  0.00  0.00    -0.086 HD
ENDBRANCH  35  36
ENDBRANCH  34  35
ENDBRANCH  32  34
ENDBRANCH   3  32
TORSDOF 10
