REMARK  Name = CHEMBL409914
REMARK  5 active torsions:
REMARK  status: ('A' for Active; 'I' for Inactive)
REMARK    1  A    between atoms: C_1  and  C_2
REMARK    2  A    between atoms: C_5  and  N_19
REMARK    3  A    between atoms: C_7  and  C_8
REMARK    4  A    between atoms: N_22  and  C_23
REMARK    5  A    between atoms: C_27  and  C_29
REMARK                            x       y       z     vdW  Elec       q    Type
REMARK                         _______ _______ _______ _____ _____    ______ ____
ROOT
ATOM      1  C   UNL     1       0.707   1.490  -0.430  0.00  0.00    +0.044 C 
ATOM      2  C   UNL     1       0.575  -0.009  -0.342  0.00  0.00    -0.043 A 
ATOM      3  C   UNL     1       0.432  -0.758  -1.493  0.00  0.00    +0.006 A 
ATOM      4  C   UNL     1       0.310  -2.132  -1.417  0.00  0.00    +0.023 A 
ATOM      5  C   UNL     1       0.331  -2.768  -0.181  0.00  0.00    +0.035 A 
ATOM      6  C   UNL     1       0.475  -2.023   0.979  0.00  0.00    +0.032 A 
ATOM      7  C   UNL     1       0.603  -0.638   0.901  0.00  0.00    -0.013 A 
ENDROOT
BRANCH   7   8
ATOM      8  C   UNL     1       0.762   0.164   2.139  0.00  0.00    -0.017 A 
ATOM      9  C   UNL     1       1.791   1.115   2.224  0.00  0.00    +0.010 A 
ATOM     10  C   UNL     1       1.960   1.864   3.346  0.00  0.00    +0.029 A 
ATOM     11  C   UNL     1       1.096   1.692   4.439  0.00  0.00    +0.076 A 
ATOM     12  C   UNL     1       0.052   0.734   4.362  0.00  0.00    +0.019 A 
ATOM     13  C   UNL     1      -0.109  -0.026   3.196  0.00  0.00    +0.020 A 
ATOM     14  C   UNL     1      -0.800   0.582   5.473  0.00  0.00    +0.124 A 
ATOM     15  N   UNL     1      -0.591   1.335   6.533  0.00  0.00    -0.222 NA
ATOM     16  C   UNL     1       0.400   2.224   6.570  0.00  0.00    +0.213 A 
ATOM     17  N   UNL     1       1.228   2.410   5.561  0.00  0.00    -0.215 NA
ATOM     18  N   UNL     1       0.566   2.984   7.714  0.00  0.00    -0.327 N 
ATOM     19  H   UNL     1      -0.032   2.863   8.468  0.00  0.00    +0.145 HD
ATOM     20  H   UNL     1       1.281   3.638   7.762  0.00  0.00    +0.145 HD
ENDBRANCH   7   8
BRANCH   5  21
ATOM     21  N   UNL     1       0.207  -4.160  -0.109  0.00  0.00    -0.269 N 
ATOM     22  C   UNL     1       0.888  -4.850   0.828  0.00  0.00    +0.308 C 
ATOM     23  O   UNL     1       1.545  -4.256   1.662  0.00  0.00    -0.252 OA
ATOM     24  N   UNL     1       0.842  -6.197   0.839  0.00  0.00    -0.269 N 
ATOM     25  H   UNL     1      -0.370  -4.629  -0.732  0.00  0.00    +0.156 HD
ATOM     26  H   UNL     1       0.381  -6.672   0.131  0.00  0.00    +0.156 HD
BRANCH  24  27
ATOM     27  C   UNL     1       1.461  -6.909   1.873  0.00  0.00    +0.035 A 
ATOM     28  C   UNL     1       2.038  -8.146   1.617  0.00  0.00    +0.023 A 
ATOM     29  C   UNL     1       2.647  -8.846   2.640  0.00  0.00    +0.002 A 
ATOM     30  C   UNL     1       2.684  -8.317   3.917  0.00  0.00    +0.012 A 
ATOM     31  C   UNL     1       2.110  -7.085   4.175  0.00  0.00    +0.057 A 
ATOM     32  C   UNL     1       1.504  -6.378   3.155  0.00  0.00    +0.035 A 
BRANCH  31  33
ATOM     33  C   UNL     1       2.152  -6.513   5.568  0.00  0.00    +0.417 C 
ATOM     34  F   UNL     1       2.817  -7.402   6.418  0.00  0.00    -0.166 F 
ATOM     35  F   UNL     1       2.830  -5.289   5.549  0.00  0.00    -0.166 F 
ATOM     36  F   UNL     1       0.846  -6.315   6.030  0.00  0.00    -0.166 F 
ENDBRANCH  31  33
ENDBRANCH  24  27
ENDBRANCH   5  21
TORSDOF 4
