REMARK  Name = CHEMBL583850
REMARK  5 active torsions:
REMARK  status: ('A' for Active; 'I' for Inactive)
REMARK    1  A    between atoms: C_1  and  C_2
REMARK    2  A    between atoms: C_2  and  C_3
REMARK    3  A    between atoms: C_2  and  N_22
REMARK    4  A    between atoms: N_11  and  C_12
REMARK    5  A    between atoms: C_27  and  N_29
REMARK                            x       y       z     vdW  Elec       q    Type
REMARK                         _______ _______ _______ _____ _____    ______ ____
ROOT
ATOM      1  C   UNL     1       1.525  -1.423  -1.257  0.00  0.00    +0.026 C 
ATOM      2  C   UNL     1       2.673  -0.412  -1.301  0.00  0.00    +0.008 C 
ATOM      3  C   UNL     1       3.249  -0.354  -2.718  0.00  0.00    +0.019 C 
ATOM      4  C   UNL     1       2.160   0.110  -3.689  0.00  0.00    +0.109 C 
ATOM      5  N   UNL     1       0.994  -0.773  -3.548  0.00  0.00    -0.285 N 
ATOM      6  C   UNL     1       0.416  -0.972  -2.212  0.00  0.00    +0.114 C 
ATOM      7  C   UNL     1       0.464  -1.388  -4.624  0.00  0.00    +0.306 C 
ATOM      8  O   UNL     1      -0.438  -2.192  -4.482  0.00  0.00    -0.252 OA
ATOM      9  N   UNL     1       0.934  -1.113  -5.857  0.00  0.00    -0.269 N 
ATOM     10  H   UNL     1       1.719  -0.553  -5.963  0.00  0.00    +0.156 HD
ENDROOT
BRANCH   9  11
ATOM     11  C   UNL     1       0.290  -1.635  -6.984  0.00  0.00    +0.035 A 
ATOM     12  C   UNL     1      -1.102  -1.791  -6.976  0.00  0.00    +0.024 A 
ATOM     13  C   UNL     1      -1.754  -2.295  -8.056  0.00  0.00    +0.010 A 
ATOM     14  C   UNL     1      -1.029  -2.667  -9.202  0.00  0.00    -0.018 A 
ATOM     15  C   UNL     1      -1.677  -3.191 -10.334  0.00  0.00    +0.008 A 
ATOM     16  C   UNL     1      -0.946  -3.541 -11.427  0.00  0.00    +0.001 A 
ATOM     17  C   UNL     1       0.439  -3.390 -11.443  0.00  0.00    +0.001 A 
ATOM     18  C   UNL     1       1.101  -2.886 -10.366  0.00  0.00    +0.008 A 
ATOM     19  C   UNL     1       0.380  -2.513  -9.219  0.00  0.00    -0.016 A 
ATOM     20  C   UNL     1       1.030  -1.984  -8.091  0.00  0.00    +0.031 A 
ENDBRANCH   9  11
BRANCH   1  22
ATOM     21  C   UNL     1       0.347  -0.162   0.549  0.00  0.00    +0.028 C 
ATOM     22  C   UNL     1       0.971  -1.506   0.167  0.00  0.00    +0.075 C 
BRANCH  22  23
ATOM     23  N   UNL     1      -0.049  -2.555   0.234  0.00  0.00    -0.311 N 
ATOM     24  C   UNL     1      -0.323  -3.177   1.440  0.00  0.00    +0.217 A 
ATOM     25  N   UNL     1       0.342  -2.806   2.524  0.00  0.00    -0.223 NA
ATOM     26  C   UNL     1       0.107  -3.378   3.695  0.00  0.00    +0.118 A 
ATOM     27  C   UNL     1      -0.848  -4.374   3.781  0.00  0.00    +0.066 A 
ATOM     28  C   UNL     1      -1.532  -4.742   2.623  0.00  0.00    +0.144 A 
ATOM     29  N   UNL     1      -1.248  -4.123   1.482  0.00  0.00    -0.197 NA
ATOM     30  H   UNL     1      -0.531  -2.814  -0.566  0.00  0.00    +0.149 HD
BRANCH  28  31
ATOM     31  N   UNL     1      -2.502  -5.742   2.662  0.00  0.00    -0.283 N 
ATOM     32  C   UNL     1      -2.895  -6.446   3.763  0.00  0.00    +0.206 A 
ATOM     33  N   UNL     1      -3.821  -7.300   3.439  0.00  0.00    -0.235 NA
ATOM     34  C   UNL     1      -4.088  -7.205   2.111  0.00  0.00    +0.089 A 
ATOM     35  C   UNL     1      -3.251  -6.202   1.593  0.00  0.00    +0.075 A 
ATOM     36  C   UNL     1      -3.308  -5.879   0.246  0.00  0.00    +0.028 A 
ATOM     37  C   UNL     1      -4.189  -6.542  -0.582  0.00  0.00    +0.002 A 
ATOM     38  C   UNL     1      -5.020  -7.531  -0.076  0.00  0.00    +0.002 A 
ATOM     39  C   UNL     1      -4.972  -7.870   1.258  0.00  0.00    +0.030 A 
ENDBRANCH  28  31
ENDBRANCH  22  23
ENDBRANCH   1  22
TORSDOF 4
