REMARK  Name = CHEMBL214617
REMARK  9 active torsions:
REMARK  status: ('A' for Active; 'I' for Inactive)
REMARK    1  A    between atoms: C_1  and  C_2
REMARK    2  A    between atoms: C_7  and  N_8
REMARK    3  A    between atoms: C_9  and  C_11
REMARK    4  A    between atoms: C_19  and  N_24
REMARK    5  A    between atoms: C_21  and  C_23
REMARK    6  A    between atoms: N_24  and  C_25
REMARK    7  A    between atoms: C_25  and  C_26
REMARK    8  A    between atoms: C_26  and  C_27
REMARK    9  A    between atoms: C_27  and  N_28
REMARK                            x       y       z     vdW  Elec       q    Type
REMARK                         _______ _______ _______ _____ _____    ______ ____
ROOT
ATOM      1  C   UNL     1      -1.098   0.270   4.720  0.00  0.00    +0.095 A 
ATOM      2  C   UNL     1      -1.492  -0.136   5.988  0.00  0.00    +0.133 A 
ATOM      3  N   UNL     1      -1.287   0.716   6.960  0.00  0.00    -0.232 NA
ATOM      4  C   UNL     1      -0.735   1.896   6.739  0.00  0.00    +0.164 A 
ATOM      5  S   UNL     1      -0.445   1.892   5.082  0.00  0.00    -0.047 S 
ATOM      6  N   UNL     1      -0.456   2.893   7.653  0.00  0.00    -0.280 N 
ATOM      7  C   UNL     1      -0.678   2.677   9.007  0.00  0.00    +0.106 A 
ATOM      8  C   UNL     1      -1.040   1.416   9.470  0.00  0.00    +0.085 A 
ATOM      9  C   UNL     1      -1.251   1.251  10.835  0.00  0.00    +0.124 A 
ATOM     10  N   UNL     1      -1.100   2.298  11.644  0.00  0.00    -0.220 NA
ATOM     11  C   UNL     1      -0.756   3.477  11.166  0.00  0.00    +0.107 A 
ATOM     12  N   UNL     1      -0.542   3.672   9.881  0.00  0.00    -0.332 N 
ATOM     13  C   UNL     1      -0.597   4.634  12.118  0.00  0.00    +0.086 C 
ATOM     14  H   UNL     1      -0.106   3.745   7.349  0.00  0.00    +0.155 HD
ATOM     15  H   UNL     1      -0.286   4.553   9.567  0.00  0.00    +0.168 HD
ENDROOT
BRANCH   1  17
ATOM     16  N   UNL     1      -0.733   0.145   2.316  0.00  0.00    -0.280 N 
ATOM     17  C   UNL     1      -1.187  -0.438   3.443  0.00  0.00    +0.256 C 
ATOM     18  O   UNL     1      -1.672  -1.554   3.398  0.00  0.00    -0.269 OA
ATOM     19  H   UNL     1      -0.275   0.999   2.363  0.00  0.00    +0.155 HD
BRANCH  16  26
ATOM     20  C   UNL     1      -1.930   1.650   0.219  0.00  0.00    +0.046 C 
ATOM     21  C   UNL     1      -1.503   0.217   0.029  0.00  0.00    -0.028 A 
ATOM     22  C   UNL     1      -1.683  -0.402  -1.193  0.00  0.00    +0.005 A 
ATOM     23  C   UNL     1      -1.292  -1.716  -1.369  0.00  0.00    +0.002 A 
ATOM     24  C   UNL     1      -0.719  -2.416  -0.323  0.00  0.00    +0.022 A 
ATOM     25  C   UNL     1      -0.536  -1.804   0.902  0.00  0.00    +0.062 A 
ATOM     26  C   UNL     1      -0.923  -0.480   1.079  0.00  0.00    +0.055 A 
ATOM     27 CL   UNL     1       0.183  -2.683   2.215  0.00  0.00    -0.082 Cl
ENDBRANCH  16  26
ENDBRANCH   1  17
BRANCH   9  28
ATOM     28  N   UNL     1      -1.614   0.014  11.346  0.00  0.00    -0.329 N 
ATOM     29  H   UNL     1      -1.759  -0.093  12.299  0.00  0.00    +0.147 HD
BRANCH  28  30
ATOM     30  C   UNL     1      -1.778  -1.131  10.447  0.00  0.00    +0.104 C 
BRANCH  30  31
ATOM     31  C   UNL     1      -2.177  -2.364  11.259  0.00  0.00    +0.034 C 
BRANCH  31  32
ATOM     32  C   UNL     1      -2.348  -3.560  10.320  0.00  0.00    +0.086 C 
BRANCH  32  33
ATOM     33  N   UNL     1      -2.732  -4.744  11.100  0.00  0.00    -0.298 NA
ATOM     34  C   UNL     1      -1.642  -5.162  11.994  0.00  0.00    +0.112 C 
ATOM     35  C   UNL     1      -2.104  -6.360  12.828  0.00  0.00    +0.175 C 
ATOM     36  O   UNL     1      -2.521  -7.411  11.954  0.00  0.00    -0.377 OA
ATOM     37  C   UNL     1      -3.582  -7.039  11.070  0.00  0.00    +0.175 C 
ATOM     38  C   UNL     1      -3.135  -5.848  10.217  0.00  0.00    +0.112 C 
ENDBRANCH  32  33
ENDBRANCH  31  32
ENDBRANCH  30  31
ENDBRANCH  28  30
ENDBRANCH   9  28
TORSDOF 7
