REMARK  Name = CHEMBL568101
REMARK  6 active torsions:
REMARK  status: ('A' for Active; 'I' for Inactive)
REMARK    1  A    between atoms: C_1  and  C_2
REMARK    2  A    between atoms: C_2  and  C_3
REMARK    3  A    between atoms: C_2  and  N_23
REMARK    4  A    between atoms: N_8  and  C_9
REMARK    5  A    between atoms: N_12  and  C_13
REMARK    6  A    between atoms: C_28  and  N_30
REMARK                            x       y       z     vdW  Elec       q    Type
REMARK                         _______ _______ _______ _____ _____    ______ ____
ROOT
ATOM      1  C   UNL     1      -0.737  -1.558  -0.463  0.00  0.00    +0.094 C 
ATOM      2  C   UNL     1      -1.278  -2.965  -0.742  0.00  0.00    +0.130 C 
ATOM      3  N   UNL     1      -2.726  -2.968  -0.481  0.00  0.00    -0.283 N 
ATOM      4  C   UNL     1      -3.550  -1.927  -1.113  0.00  0.00    +0.124 C 
ATOM      5  C   UNL     1      -2.919  -0.562  -0.819  0.00  0.00    +0.103 C 
ATOM      6  N   UNL     1      -1.510  -0.577  -1.235  0.00  0.00    -0.298 NA
ATOM      7  C   UNL     1      -1.390  -0.829  -2.677  0.00  0.00    +0.105 C 
ATOM      8  C   UNL     1      -3.282  -3.902   0.317  0.00  0.00    +0.307 C 
ATOM      9  O   UNL     1      -2.603  -4.810   0.755  0.00  0.00    -0.252 OA
ATOM     10  N   UNL     1      -4.591  -3.828   0.628  0.00  0.00    -0.269 N 
ATOM     11  H   UNL     1      -5.156  -3.168   0.197  0.00  0.00    +0.156 HD
ENDROOT
BRANCH  10  12
ATOM     12  C   UNL     1      -5.136  -4.705   1.573  0.00  0.00    +0.035 A 
ATOM     13  C   UNL     1      -4.360  -5.119   2.661  0.00  0.00    +0.024 A 
ATOM     14  C   UNL     1      -4.863  -5.969   3.595  0.00  0.00    +0.010 A 
ATOM     15  C   UNL     1      -6.181  -6.444   3.472  0.00  0.00    -0.018 A 
ATOM     16  C   UNL     1      -6.727  -7.324   4.421  0.00  0.00    +0.008 A 
ATOM     17  C   UNL     1      -8.006  -7.766   4.274  0.00  0.00    +0.001 A 
ATOM     18  C   UNL     1      -8.786  -7.359   3.193  0.00  0.00    +0.001 A 
ATOM     19  C   UNL     1      -8.290  -6.508   2.253  0.00  0.00    +0.008 A 
ATOM     20  C   UNL     1      -6.973  -6.030   2.372  0.00  0.00    -0.016 A 
ATOM     21  C   UNL     1      -6.432  -5.146   1.425  0.00  0.00    +0.031 A 
ENDBRANCH  10  12
BRANCH   1  23
ATOM     22  C   UNL     1       1.274  -0.082  -0.598  0.00  0.00    +0.029 C 
ATOM     23  C   UNL     1       0.735  -1.487  -0.874  0.00  0.00    +0.089 C 
BRANCH  23  24
ATOM     24  N   UNL     1       1.506  -2.466  -0.104  0.00  0.00    -0.309 N 
ATOM     25  C   UNL     1       2.693  -2.966  -0.611  0.00  0.00    +0.217 A 
ATOM     26  N   UNL     1       3.120  -2.543  -1.792  0.00  0.00    -0.223 NA
ATOM     27  C   UNL     1       4.251  -2.999  -2.308  0.00  0.00    +0.118 A 
ATOM     28  C   UNL     1       4.992  -3.927  -1.601  0.00  0.00    +0.066 A 
ATOM     29  C   UNL     1       4.516  -4.352  -0.361  0.00  0.00    +0.144 A 
ATOM     30  N   UNL     1       3.376  -3.850   0.100  0.00  0.00    -0.197 NA
ATOM     31  H   UNL     1       1.184  -2.764   0.761  0.00  0.00    +0.149 HD
BRANCH  29  32
ATOM     32  N   UNL     1       5.230  -5.287   0.387  0.00  0.00    -0.283 N 
ATOM     33  C   UNL     1       6.413  -5.870   0.037  0.00  0.00    +0.206 A 
ATOM     34  N   UNL     1       6.796  -6.694   0.968  0.00  0.00    -0.235 NA
ATOM     35  C   UNL     1       5.889  -6.697   1.980  0.00  0.00    +0.089 A 
ATOM     36  C   UNL     1       4.875  -5.792   1.625  0.00  0.00    +0.075 A 
ATOM     37  C   UNL     1       3.804  -5.582   2.481  0.00  0.00    +0.028 A 
ATOM     38  C   UNL     1       3.740  -6.261   3.680  0.00  0.00    +0.002 A 
ATOM     39  C   UNL     1       4.741  -7.153   4.036  0.00  0.00    +0.002 A 
ATOM     40  C   UNL     1       5.807  -7.380   3.196  0.00  0.00    +0.030 A 
ENDBRANCH  29  32
ENDBRANCH  23  24
ENDBRANCH   1  23
TORSDOF 4
