REMARK  Name = CHEMBL337689
REMARK  4 active torsions:
REMARK  status: ('A' for Active; 'I' for Inactive)
REMARK    1  A    between atoms: C_1  and  O_2
REMARK    2  A    between atoms: O_2  and  C_3
REMARK    3  A    between atoms: C_4  and  C_20
REMARK    4  A    between atoms: C_5  and  O_19
REMARK                            x       y       z     vdW  Elec       q    Type
REMARK                         _______ _______ _______ _____ _____    ______ ____
ROOT
ATOM      1  C   UNL     1      -1.153  -0.721  -0.255  0.00  0.00    +0.122 C 
ATOM      2  C   UNL     1      -2.355  -0.082  -0.108  0.00  0.00    +0.093 C 
ATOM      3  C   UNL     1      -3.581  -0.890   0.111  0.00  0.00    +0.127 C 
ATOM      4  C   UNL     1      -3.607  -2.168  -0.282  0.00  0.00    +0.032 C 
ATOM      5  C   UNL     1      -2.384  -2.755  -0.928  0.00  0.00    +0.104 C 
ATOM      6  C   UNL     1      -1.135  -2.225  -0.216  0.00  0.00    +0.141 C 
ATOM      7  C   UNL     1       0.077  -2.777  -0.928  0.00  0.00    +0.175 C 
ATOM      8  O   UNL     1       1.006  -2.062  -1.238  0.00  0.00    -0.291 OA
ATOM      9  C   UNL     1       0.087  -4.224  -1.233  0.00  0.00    +0.029 A 
ATOM     10  C   UNL     1       1.271  -4.872  -1.569  0.00  0.00    +0.012 A 
ATOM     11  C   UNL     1       1.256  -6.229  -1.843  0.00  0.00    +0.001 A 
ATOM     12  C   UNL     1       0.074  -6.946  -1.783  0.00  0.00    +0.001 A 
ATOM     13  C   UNL     1      -1.114  -6.319  -1.454  0.00  0.00    +0.012 A 
ATOM     14  C   UNL     1      -1.121  -4.955  -1.179  0.00  0.00    +0.029 A 
ATOM     15  C   UNL     1      -2.376  -4.261  -0.828  0.00  0.00    +0.172 C 
ATOM     16  O   UNL     1      -3.364  -4.875  -0.486  0.00  0.00    -0.291 OA
ENDROOT
BRANCH   1  18
ATOM     17  C   UNL     1       0.945  -0.065   0.620  0.00  0.00    +0.276 C 
ATOM     18  O   UNL     1      -0.018  -0.022  -0.436  0.00  0.00    -0.498 OA
ENDBRANCH   1  18
BRANCH   3  19
ATOM     19  O   UNL     1      -4.668  -0.335   0.706  0.00  0.00    -0.506 OA
ATOM     20  H   UNL     1      -4.551   0.593   0.954  0.00  0.00    +0.292 HD
ENDBRANCH   3  19
BRANCH   2  21
ATOM     21  C   UNL     1      -2.428   1.331  -0.164  0.00  0.00    +0.265 C 
ATOM     22  O   UNL     1      -3.508   1.885  -0.136  0.00  0.00    -0.295 OA
ENDBRANCH   2  21
TORSDOF 3
