REMARK  Name = CHEMBL584724
REMARK  4 active torsions:
REMARK  status: ('A' for Active; 'I' for Inactive)
REMARK    1  A    between atoms: C_6  and  C_11
REMARK    2  A    between atoms: C_17  and  C_19
REMARK    3  A    between atoms: C_19  and  N_20
REMARK    4  A    between atoms: C_25  and  N_27
REMARK                            x       y       z     vdW  Elec       q    Type
REMARK                         _______ _______ _______ _____ _____    ______ ____
ROOT
ATOM      1  C   UNL     1       4.977  -2.713  -0.059  0.00  0.00    +0.247 C 
ATOM      2  O   UNL     1       3.916  -2.125   0.025  0.00  0.00    -0.270 OA
ATOM      3  N   UNL     1       4.997  -4.056  -0.168  0.00  0.00    -0.293 N 
ATOM      4  C   UNL     1       3.747  -4.826  -0.278  0.00  0.00    +0.136 C 
ATOM      5  C   UNL     1       3.866  -5.771  -1.478  0.00  0.00    +0.179 C 
ATOM      6  O   UNL     1       5.072  -6.531  -1.361  0.00  0.00    -0.372 OA
ATOM      7  C   UNL     1       6.264  -5.744  -1.386  0.00  0.00    +0.153 C 
ATOM      8  C   UNL     1       6.269  -4.796  -0.186  0.00  0.00    +0.141 C 
ENDROOT
BRANCH   1  14
ATOM      9  C   UNL     1      10.828  -0.161   0.812  0.00  0.00    +0.001 A 
ATOM     10  C   UNL     1      10.682  -1.262   1.653  0.00  0.00    +0.001 A 
ATOM     11  C   UNL     1       9.530  -1.986   1.666  0.00  0.00    +0.008 A 
ATOM     12  C   UNL     1       8.469  -1.621   0.819  0.00  0.00    -0.017 A 
ATOM     13  C   UNL     1       7.268  -2.345   0.807  0.00  0.00    +0.021 A 
ATOM     14  C   UNL     1       6.245  -1.954  -0.041  0.00  0.00    +0.037 A 
ATOM     15  C   UNL     1       6.404  -0.841  -0.886  0.00  0.00    +0.013 A 
ATOM     16  C   UNL     1       7.559  -0.129  -0.888  0.00  0.00    +0.009 A 
ATOM     17  C   UNL     1       8.617  -0.500  -0.038  0.00  0.00    -0.018 A 
ATOM     18  C   UNL     1       9.822   0.222  -0.022  0.00  0.00    +0.008 A 
ENDBRANCH   1  14
BRANCH   7  19
ATOM     19  C   UNL     1       7.485  -6.663  -1.317  0.00  0.00    +0.137 C 
BRANCH  19  20
ATOM     20  N   UNL     1       7.543  -7.490  -2.525  0.00  0.00    -0.311 N 
ATOM     21  C   UNL     1       8.568  -8.405  -2.689  0.00  0.00    +0.217 A 
ATOM     22  N   UNL     1       9.486  -8.524  -1.741  0.00  0.00    -0.223 NA
ATOM     23  C   UNL     1      10.481  -9.389  -1.863  0.00  0.00    +0.118 A 
ATOM     24  C   UNL     1      10.557 -10.176  -2.997  0.00  0.00    +0.066 A 
ATOM     25  C   UNL     1       9.577 -10.028  -3.978  0.00  0.00    +0.144 A 
ATOM     26  N   UNL     1       8.604  -9.144  -3.788  0.00  0.00    -0.197 NA
ATOM     27  H   UNL     1       6.862  -7.395  -3.210  0.00  0.00    +0.149 HD
BRANCH  25  28
ATOM     28  N   UNL     1       9.615 -10.799  -5.137  0.00  0.00    -0.283 N 
ATOM     29  C   UNL     1      10.547 -11.745  -5.450  0.00  0.00    +0.206 A 
ATOM     30  N   UNL     1      10.277 -12.271  -6.609  0.00  0.00    -0.235 NA
ATOM     31  C   UNL     1       9.155 -11.701  -7.121  0.00  0.00    +0.089 A 
ATOM     32  C   UNL     1       8.710 -10.754  -6.184  0.00  0.00    +0.075 A 
ATOM     33  C   UNL     1       7.566 -10.012  -6.438  0.00  0.00    +0.028 A 
ATOM     34  C   UNL     1       6.867 -10.209  -7.610  0.00  0.00    +0.002 A 
ATOM     35  C   UNL     1       7.300 -11.145  -8.538  0.00  0.00    +0.002 A 
ATOM     36  C   UNL     1       8.438 -11.885  -8.306  0.00  0.00    +0.030 A 
ENDBRANCH  25  28
ENDBRANCH  19  20
ENDBRANCH   7  19
TORSDOF 4
