REMARK  Name = CHEMBL280565
REMARK  10 active torsions:
REMARK  status: ('A' for Active; 'I' for Inactive)
REMARK    1  A    between atoms: C_1  and  C_2
REMARK    2  A    between atoms: C_3  and  C_37
REMARK    3  A    between atoms: C_9  and  C_25
REMARK    4  A    between atoms: N_12  and  C_24
REMARK    5  A    between atoms: N_15  and  C_16
REMARK    6  A    between atoms: C_25  and  N_26
REMARK    7  A    between atoms: N_26  and  C_27
REMARK    8  A    between atoms: C_27  and  C_28
REMARK    9  A    between atoms: C_31  and  O_34
REMARK   10  A    between atoms: O_34  and  C_35
REMARK                            x       y       z     vdW  Elec       q    Type
REMARK                         _______ _______ _______ _____ _____    ______ ____
ROOT
ATOM      1  C   UNL     1       4.070   0.052  -0.622  0.00  0.00    +0.046 C 
ATOM      2  C   UNL     1       3.081  -1.076  -0.479  0.00  0.00    -0.024 A 
ATOM      3  C   UNL     1       2.358  -1.480  -1.536  0.00  0.00    +0.019 A 
ATOM      4  N   UNL     1       1.450  -2.497  -1.455  0.00  0.00    -0.326 N 
ATOM      5  C   UNL     1       1.219  -3.164  -0.307  0.00  0.00    +0.259 A 
ATOM      6  C   UNL     1       1.961  -2.793   0.899  0.00  0.00    +0.072 A 
ATOM      7  C   UNL     1       2.905  -1.744   0.811  0.00  0.00    -0.006 A 
ATOM      8  C   UNL     1       3.636  -1.366   1.942  0.00  0.00    +0.013 A 
ATOM      9  C   UNL     1       3.448  -2.009   3.128  0.00  0.00    -0.036 A 
ATOM     10  C   UNL     1       2.522  -3.056   3.238  0.00  0.00    +0.093 A 
ATOM     11  C   UNL     1       1.768  -3.446   2.122  0.00  0.00    +0.083 A 
ATOM     12  N   UNL     1       0.957  -4.479   2.543  0.00  0.00    -0.314 N 
ATOM     13  C   UNL     1       1.212  -4.681   3.870  0.00  0.00    +0.201 A 
ATOM     14  N   UNL     1       2.142  -3.852   4.273  0.00  0.00    -0.214 NA
ATOM     15  N   UNL     1       0.599  -5.633   4.660  0.00  0.00    -0.283 N 
ATOM     16  C   UNL     1      -0.001  -5.222   1.720  0.00  0.00    +0.152 C 
ATOM     17  O   UNL     1       0.401  -4.066  -0.274  0.00  0.00    -0.267 OA
ATOM     18  C   UNL     1       2.555  -0.785  -2.859  0.00  0.00    +0.063 C 
ATOM     19  H   UNL     1      -0.118  -6.177   4.297  0.00  0.00    +0.155 HD
ATOM     20  H   UNL     1       0.955  -2.748  -2.251  0.00  0.00    +0.169 HD
ENDROOT
BRANCH  15  21
ATOM     21  C   UNL     1       1.011  -5.813   5.985  0.00  0.00    +0.071 A 
ATOM     22  C   UNL     1       0.950  -4.755   6.884  0.00  0.00    +0.064 A 
ATOM     23  C   UNL     1       1.358  -4.936   8.192  0.00  0.00    +0.022 A 
ATOM     24  C   UNL     1       1.827  -6.169   8.607  0.00  0.00    +0.003 A 
ATOM     25  C   UNL     1       1.889  -7.225   7.715  0.00  0.00    +0.022 A 
ATOM     26  C   UNL     1       1.478  -7.052   6.407  0.00  0.00    +0.064 A 
ATOM     27 CL   UNL     1       1.550  -8.380   5.291  0.00  0.00    -0.082 Cl
ATOM     28 CL   UNL     1       0.362  -3.206   6.364  0.00  0.00    -0.082 Cl
ENDBRANCH  15  21
BRANCH   9  29
ATOM     29  C   UNL     1       4.244  -1.589   4.337  0.00  0.00    -0.044 C 
BRANCH  29  30
ATOM     30  N   UNL     1       5.366  -2.517   4.531  0.00  0.00    +0.384 N 
ATOM     31  H   UNL     1       5.010  -3.451   4.670  0.00  0.00    -0.085 HD
ATOM     32  H   UNL     1       5.960  -2.502   3.715  0.00  0.00    -0.085 HD
BRANCH  30  33
ATOM     33  C   UNL     1       6.142  -2.108   5.709  0.00  0.00    -0.046 C 
BRANCH  33  34
ATOM     34  C   UNL     1       7.293  -3.060   5.908  0.00  0.00    -0.064 A 
ATOM     35  C   UNL     1       7.128  -4.189   6.689  0.00  0.00    +0.005 A 
ATOM     36  C   UNL     1       8.182  -5.063   6.873  0.00  0.00    +0.046 A 
ATOM     37  C   UNL     1       9.407  -4.807   6.273  0.00  0.00    +0.120 A 
ATOM     38  C   UNL     1       9.570  -3.674   5.489  0.00  0.00    +0.046 A 
ATOM     39  C   UNL     1       8.511  -2.806   5.304  0.00  0.00    +0.005 A 
BRANCH  37  40
ATOM     40  O   UNL     1      10.445  -5.665   6.453  0.00  0.00    -0.495 OA
ATOM     41  C   UNL     1      11.676  -5.338   5.805  0.00  0.00    +0.277 C 
ENDBRANCH  37  40
ENDBRANCH  33  34
ENDBRANCH  30  33
ENDBRANCH  29  30
ENDBRANCH   9  29
TORSDOF 6
