REMARK  Name = CHEMBL108907
REMARK  4 active torsions:
REMARK  status: ('A' for Active; 'I' for Inactive)
REMARK    1  A    between atoms: C_1  and  C_2
REMARK    2  A    between atoms: C_7  and  N_8
REMARK    3  A    between atoms: C_17  and  N_22
REMARK    4  A    between atoms: N_25  and  C_28
REMARK                            x       y       z     vdW  Elec       q    Type
REMARK                         _______ _______ _______ _____ _____    ______ ____
ROOT
ATOM      1  N   UNL     1       0.038  -0.018   2.419  0.00  0.00    -0.296 N 
ATOM      2  C   UNL     1      -0.351  -0.661   3.580  0.00  0.00    +0.149 A 
ATOM      3  C   UNL     1      -0.444   0.083   4.834  0.00  0.00    +0.106 A 
ATOM      4  C   UNL     1      -0.222   1.389   5.194  0.00  0.00    +0.142 A 
ATOM      5  N   UNL     1      -0.472   1.494   6.501  0.00  0.00    -0.243 NA
ATOM      6  C   UNL     1      -0.838   0.330   6.978  0.00  0.00    +0.204 A 
ATOM      7  N   UNL     1      -0.836  -0.577   5.984  0.00  0.00    -0.294 N 
ATOM      8  C   UNL     1      -1.129  -1.933   5.912  0.00  0.00    +0.075 A 
ATOM      9  C   UNL     1      -1.525  -2.625   7.047  0.00  0.00    +0.051 A 
ATOM     10  C   UNL     1      -1.817  -3.978   6.968  0.00  0.00    +0.032 A 
ATOM     11  C   UNL     1      -1.714  -4.646   5.751  0.00  0.00    +0.025 A 
ATOM     12  C   UNL     1      -1.323  -3.972   4.618  0.00  0.00    +0.032 A 
ATOM     13  C   UNL     1      -1.024  -2.605   4.683  0.00  0.00    +0.090 A 
ATOM     14  N   UNL     1      -0.644  -1.943   3.557  0.00  0.00    -0.228 NA
ATOM     15  H   UNL     1       0.177   0.942   2.420  0.00  0.00    +0.154 HD
ENDROOT
BRANCH   1  22
ATOM     16  C   UNL     1       2.683  -0.243   1.396  0.00  0.00    +0.046 C 
ATOM     17  C   UNL     1       1.506  -0.887   0.710  0.00  0.00    -0.028 A 
ATOM     18  C   UNL     1       1.695  -1.616  -0.447  0.00  0.00    +0.005 A 
ATOM     19  C   UNL     1       0.616  -2.208  -1.077  0.00  0.00    +0.002 A 
ATOM     20  C   UNL     1      -0.656  -2.072  -0.552  0.00  0.00    +0.022 A 
ATOM     21  C   UNL     1      -0.853  -1.343   0.606  0.00  0.00    +0.062 A 
ATOM     22  C   UNL     1       0.232  -0.752   1.245  0.00  0.00    +0.054 A 
ATOM     23 CL   UNL     1      -2.449  -1.173   1.266  0.00  0.00    -0.082 Cl
ENDBRANCH   1  22
BRANCH  10  24
ATOM     24  N   UNL     1      -2.216  -4.673   8.113  0.00  0.00    -0.327 N 
ATOM     25  C   UNL     1      -2.403  -6.131   8.085  0.00  0.00    +0.120 C 
ATOM     26  C   UNL     1      -1.613  -6.747   9.245  0.00  0.00    +0.103 C 
ATOM     27  N   UNL     1      -2.007  -6.095  10.501  0.00  0.00    -0.302 NA
ATOM     28  C   UNL     1      -1.667  -4.665  10.489  0.00  0.00    +0.103 C 
ATOM     29  C   UNL     1      -2.453  -3.966   9.381  0.00  0.00    +0.120 C 
ATOM     30  C   UNL     1      -1.401  -6.770  11.657  0.00  0.00    +0.105 C 
ENDBRANCH  10  24
TORSDOF 2
