REMARK  Name = CHEMBL407516
REMARK  9 active torsions:
REMARK  status: ('A' for Active; 'I' for Inactive)
REMARK    1  A    between atoms: C_1  and  C_2
REMARK    2  A    between atoms: C_6  and  C_44
REMARK    3  A    between atoms: C_7  and  N_8
REMARK    4  A    between atoms: N_26  and  C_27
REMARK    5  A    between atoms: C_30  and  O_34
REMARK    6  A    between atoms: O_34  and  C_35
REMARK    7  A    between atoms: C_35  and  C_36
REMARK    8  A    between atoms: C_36  and  N_37
REMARK    9  A    between atoms: N_40  and  C_43
REMARK                            x       y       z     vdW  Elec       q    Type
REMARK                         _______ _______ _______ _____ _____    ______ ____
ROOT
ATOM      1  N   UNL     1      -1.199   0.513   3.491  0.00  0.00    -0.245 N 
ATOM      2  C   UNL     1       0.050   0.621   3.987  0.00  0.00    +0.271 A 
ATOM      3  O   UNL     1       1.000   0.159   3.384  0.00  0.00    -0.266 OA
ATOM      4  C   UNL     1       0.240   1.310   5.270  0.00  0.00    +0.101 A 
ATOM      5  C   UNL     1       1.498   1.466   5.852  0.00  0.00    +0.131 A 
ATOM      6  N   UNL     1       1.581   2.099   7.009  0.00  0.00    -0.222 NA
ATOM      7  C   UNL     1       0.498   2.579   7.609  0.00  0.00    +0.221 A 
ATOM      8  N   UNL     1      -0.717   2.452   7.091  0.00  0.00    -0.196 NA
ATOM      9  C   UNL     1      -0.888   1.831   5.934  0.00  0.00    +0.158 A 
ATOM     10  N   UNL     1      -2.138   1.681   5.364  0.00  0.00    -0.261 N 
ATOM     11  C   UNL     1      -2.288   1.039   4.164  0.00  0.00    +0.225 A 
ATOM     12  N   UNL     1      -3.561   1.031   3.831  0.00  0.00    -0.211 NA
ATOM     13  C   UNL     1      -4.292   1.664   4.782  0.00  0.00    +0.092 A 
ATOM     14  C   UNL     1      -3.398   2.083   5.781  0.00  0.00    +0.077 A 
ATOM     15  C   UNL     1      -3.871   2.764   6.892  0.00  0.00    +0.028 A 
ATOM     16  C   UNL     1      -5.221   3.017   7.020  0.00  0.00    +0.002 A 
ATOM     17  C   UNL     1      -6.111   2.593   6.044  0.00  0.00    +0.002 A 
ATOM     18  C   UNL     1      -5.656   1.933   4.923  0.00  0.00    +0.030 A 
ATOM     19  N   UNL     1       0.641   3.232   8.817  0.00  0.00    -0.283 N 
ATOM     20  H   UNL     1      -0.144   3.512   9.313  0.00  0.00    +0.155 HD
ENDROOT
BRANCH   1  27
ATOM     21  C   UNL     1      -1.088   2.060   1.105  0.00  0.00    +0.046 C 
ATOM     22  C   UNL     1      -1.352   0.577   1.080  0.00  0.00    -0.026 A 
ATOM     23  C   UNL     1      -1.542  -0.071  -0.124  0.00  0.00    +0.005 A 
ATOM     24  C   UNL     1      -1.784  -1.433  -0.148  0.00  0.00    +0.001 A 
ATOM     25  C   UNL     1      -1.837  -2.149   1.034  0.00  0.00    +0.005 A 
ATOM     26  C   UNL     1      -1.648  -1.506   2.242  0.00  0.00    -0.026 A 
ATOM     27  C   UNL     1      -1.398  -0.141   2.268  0.00  0.00    +0.059 A 
ATOM     28  C   UNL     1      -1.706  -2.288   3.529  0.00  0.00    +0.046 C 
ENDBRANCH   1  27
BRANCH  19  29
ATOM     29  C   UNL     1       1.919   3.491   9.326  0.00  0.00    +0.037 A 
ATOM     30  C   UNL     1       2.955   3.828   8.464  0.00  0.00    +0.027 A 
ATOM     31  C   UNL     1       4.216   4.084   8.966  0.00  0.00    +0.050 A 
ATOM     32  C   UNL     1       4.449   4.004  10.331  0.00  0.00    +0.156 A 
ATOM     33  C   UNL     1       3.415   3.666  11.194  0.00  0.00    +0.167 A 
ATOM     34  C   UNL     1       2.151   3.415  10.693  0.00  0.00    +0.065 A 
ATOM     35  F   UNL     1       3.643   3.587  12.523  0.00  0.00    -0.202 F 
BRANCH  32  36
ATOM     36  O   UNL     1       5.692   4.255  10.824  0.00  0.00    -0.488 OA
BRANCH  36  37
ATOM     37  C   UNL     1       6.708   4.596   9.879  0.00  0.00    +0.244 C 
BRANCH  37  38
ATOM     38  C   UNL     1       8.027   4.841  10.615  0.00  0.00    +0.125 C 
BRANCH  38  39
ATOM     39  N   UNL     1       8.463   3.600  11.267  0.00  0.00    -0.303 NA
ATOM     40  C   UNL     1       9.463   3.874  12.308  0.00  0.00    +0.066 C 
ATOM     41  C   UNL     1       9.845   2.565  13.003  0.00  0.00    -0.064 C 
ATOM     42  N   UNL     1      10.389   1.626  12.012  0.00  0.00    +0.379 N 
ATOM     43  C   UNL     1       9.370   1.343  10.993  0.00  0.00    -0.064 C 
ATOM     44  C   UNL     1       8.984   2.641  10.282  0.00  0.00    +0.066 C 
ATOM     45  C   UNL     1      10.772   0.376  12.682  0.00  0.00    -0.096 C 
ATOM     46  H   UNL     1      11.200   2.034  11.572  0.00  0.00    -0.082 HD
ENDBRANCH  38  39
ENDBRANCH  37  38
ENDBRANCH  36  37
ENDBRANCH  32  36
ENDBRANCH  19  29
TORSDOF 6
