REMARK  Name = CHEMBL573578
REMARK  7 active torsions:
REMARK  status: ('A' for Active; 'I' for Inactive)
REMARK    1  A    between atoms: C_1  and  C_2
REMARK    2  A    between atoms: C_2  and  C_3
REMARK    3  A    between atoms: C_2  and  C_4
REMARK    4  A    between atoms: C_2  and  N_5
REMARK    5  A    between atoms: C_8  and  C_10
REMARK    6  A    between atoms: C_10  and  C_11
REMARK    7  A    between atoms: C_21  and  N_25
REMARK                            x       y       z     vdW  Elec       q    Type
REMARK                         _______ _______ _______ _____ _____    ______ ____
ROOT
ATOM      1  N   UNL     1       0.591  -0.523  -1.282  0.00  0.00    -0.241 N 
ATOM      2  C   UNL     1       0.961  -1.814  -1.515  0.00  0.00    +0.164 A 
ATOM      3  C   UNL     1       1.708  -1.809  -2.710  0.00  0.00    +0.082 A 
ATOM      4  C   UNL     1       1.757  -0.472  -3.160  0.00  0.00    +0.080 A 
ATOM      5  N   UNL     1       1.095   0.272  -2.320  0.00  0.00    -0.173 NA
ATOM      6  C   UNL     1       2.217  -3.033  -3.183  0.00  0.00    +0.130 A 
ATOM      7  N   UNL     1       1.969  -4.134  -2.482  0.00  0.00    -0.220 NA
ATOM      8  C   UNL     1       1.263  -4.090  -1.366  0.00  0.00    +0.225 A 
ATOM      9  N   UNL     1       0.767  -2.971  -0.884  0.00  0.00    -0.216 NA
ENDROOT
BRANCH   1  11
ATOM     10  C   UNL     1      -0.402   1.464  -0.260  0.00  0.00    +0.036 C 
ATOM     11  C   UNL     1      -0.202  -0.049  -0.146  0.00  0.00    +0.058 C 
ATOM     12  C   UNL     1       0.532  -0.369   1.158  0.00  0.00    +0.036 C 
ATOM     13  C   UNL     1      -1.565  -0.745  -0.149  0.00  0.00    +0.036 C 
ENDBRANCH   1  11
BRANCH   6  14
ATOM     14  N   UNL     1       2.955  -3.088  -4.349  0.00  0.00    -0.342 N 
ATOM     15  H   UNL     1       3.207  -2.269  -4.803  0.00  0.00    +0.144 HD
ATOM     16  H   UNL     1       3.222  -3.947  -4.714  0.00  0.00    +0.144 HD
ENDBRANCH   6  14
BRANCH   4  17
ATOM     17  C   UNL     1       2.453   0.013  -4.406  0.00  0.00    +0.093 C 
BRANCH  17  18
ATOM     18  C   UNL     1       1.479   0.019  -5.556  0.00  0.00    -0.034 A 
ATOM     19  C   UNL     1       1.407  -1.049  -6.397  0.00  0.00    +0.004 A 
ATOM     20  C   UNL     1       0.512  -1.061  -7.465  0.00  0.00    +0.001 A 
ATOM     21  C   UNL     1      -0.316  -0.006  -7.699  0.00  0.00    +0.008 A 
ATOM     22  C   UNL     1      -0.270   1.114  -6.851  0.00  0.00    -0.018 A 
ATOM     23  C   UNL     1       0.636   1.124  -5.761  0.00  0.00    -0.014 A 
ATOM     24  C   UNL     1       0.677   2.241  -4.910  0.00  0.00    +0.009 A 
ATOM     25  C   UNL     1      -0.155   3.294  -5.139  0.00  0.00    +0.001 A 
ATOM     26  C   UNL     1      -1.050   3.281  -6.208  0.00  0.00    +0.001 A 
ATOM     27  C   UNL     1      -1.109   2.222  -7.060  0.00  0.00    +0.008 A 
ENDBRANCH  17  18
ENDBRANCH   4  17
TORSDOF 4
