REMARK  Name = CHEMBL337689
REMARK  4 active torsions:
REMARK  status: ('A' for Active; 'I' for Inactive)
REMARK    1  A    between atoms: C_1  and  O_2
REMARK    2  A    between atoms: O_2  and  C_3
REMARK    3  A    between atoms: C_4  and  C_20
REMARK    4  A    between atoms: C_5  and  O_19
REMARK                            x       y       z     vdW  Elec       q    Type
REMARK                         _______ _______ _______ _____ _____    ______ ____
ROOT
ATOM      1  C   UNL     1      -1.153  -0.721  -0.254  0.00  0.00    +0.122 C 
ATOM      2  C   UNL     1      -2.348  -0.074  -0.108  0.00  0.00    +0.093 C 
ATOM      3  C   UNL     1      -3.575  -0.877   0.108  0.00  0.00    +0.127 C 
ATOM      4  C   UNL     1      -3.599  -2.156  -0.266  0.00  0.00    +0.032 C 
ATOM      5  C   UNL     1      -2.377  -2.780  -0.895  0.00  0.00    +0.104 C 
ATOM      6  C   UNL     1      -1.123  -2.226  -0.218  0.00  0.00    +0.141 C 
ATOM      7  C   UNL     1       0.101  -2.734  -0.941  0.00  0.00    +0.175 C 
ATOM      8  O   UNL     1       1.052  -3.156  -0.319  0.00  0.00    -0.291 OA
ATOM      9  C   UNL     1       0.121  -2.710  -2.415  0.00  0.00    +0.029 A 
ATOM     10  C   UNL     1       1.313  -2.848  -3.118  0.00  0.00    +0.012 A 
ATOM     11  C   UNL     1       1.299  -2.825  -4.501  0.00  0.00    +0.001 A 
ATOM     12  C   UNL     1       0.109  -2.667  -5.191  0.00  0.00    +0.001 A 
ATOM     13  C   UNL     1      -1.086  -2.526  -4.508  0.00  0.00    +0.012 A 
ATOM     14  C   UNL     1      -1.093  -2.545  -3.117  0.00  0.00    +0.029 A 
ATOM     15  C   UNL     1      -2.343  -2.397  -2.359  0.00  0.00    +0.172 C 
ATOM     16  O   UNL     1      -3.335  -1.965  -2.906  0.00  0.00    -0.291 OA
ENDROOT
BRANCH   1  18
ATOM     17  C   UNL     1       0.951  -0.077   0.617  0.00  0.00    +0.276 C 
ATOM     18  O   UNL     1      -0.017  -0.021  -0.432  0.00  0.00    -0.498 OA
ENDBRANCH   1  18
BRANCH   3  19
ATOM     19  O   UNL     1      -4.669  -0.313   0.682  0.00  0.00    -0.506 OA
ATOM     20  H   UNL     1      -4.554   0.618   0.918  0.00  0.00    +0.292 HD
ENDBRANCH   3  19
BRANCH   2  21
ATOM     21  C   UNL     1      -2.412   1.340  -0.162  0.00  0.00    +0.265 C 
ATOM     22  O   UNL     1      -3.489   1.899  -0.134  0.00  0.00    -0.295 OA
ENDBRANCH   2  21
TORSDOF 3
