REMARK  Name = CHEMBL219557
REMARK  11 active torsions:
REMARK  status: ('A' for Active; 'I' for Inactive)
REMARK    1  A    between atoms: C_1  and  N_2
REMARK    2  A    between atoms: N_5  and  C_8
REMARK    3  A    between atoms: C_8  and  C_9
REMARK    4  A    between atoms: C_11  and  C_14
REMARK    5  A    between atoms: C_19  and  O_20
REMARK    6  A    between atoms: O_20  and  C_21
REMARK    7  A    between atoms: C_22  and  N_28
REMARK    8  A    between atoms: C_23  and  C_26
REMARK    9  A    between atoms: N_28  and  C_29
REMARK   10  A    between atoms: C_31  and  O_37
REMARK   11  A    between atoms: O_37  and  C_38
REMARK                            x       y       z     vdW  Elec       q    Type
REMARK                         _______ _______ _______ _____ _____    ______ ____
ROOT
ATOM      1  C   UNL     1      -4.495  -6.324   7.874  0.00  0.00    +0.029 A 
ATOM      2  C   UNL     1      -3.770  -5.165   8.082  0.00  0.00    +0.040 A 
ATOM      3  C   UNL     1      -2.583  -5.212   8.827  0.00  0.00    +0.074 A 
ATOM      4  C   UNL     1      -2.146  -6.451   9.354  0.00  0.00    +0.026 A 
ATOM      5  C   UNL     1      -2.898  -7.614   9.131  0.00  0.00    +0.058 A 
ATOM      6  C   UNL     1      -4.054  -7.549   8.408  0.00  0.00    +0.129 A 
ATOM      7  C   UNL     1      -0.948  -6.493  10.105  0.00  0.00    +0.060 A 
ATOM      8  C   UNL     1      -0.248  -5.291  10.289  0.00  0.00    +0.091 A 
ATOM      9  C   UNL     1      -0.755  -4.107   9.729  0.00  0.00    +0.132 A 
ATOM     10  N   UNL     1      -1.867  -4.097   9.039  0.00  0.00    -0.254 NA
ENDROOT
BRANCH   1  13
ATOM     11  C   UNL     1      -7.780  -5.676   6.333  0.00  0.00    +0.119 A 
ATOM     12  C   UNL     1      -6.872  -5.346   7.266  0.00  0.00    +0.054 A 
ATOM     13  C   UNL     1      -5.751  -6.275   7.087  0.00  0.00    +0.024 A 
ATOM     14  C   UNL     1      -6.101  -7.081   6.050  0.00  0.00    +0.203 A 
ATOM     15  O   UNL     1      -7.315  -6.712   5.618  0.00  0.00    -0.466 OA
BRANCH  11  16
ATOM     16  C   UNL     1      -9.110  -4.997   6.126  0.00  0.00    +0.158 C 
BRANCH  16  21
ATOM     17  C   UNL     1      -9.428  -1.297   1.888  0.00  0.00    -0.096 C 
ATOM     18  N   UNL     1      -9.627  -2.418   2.817  0.00  0.00    +0.379 N 
ATOM     19  C   UNL     1      -9.938  -1.896   4.154  0.00  0.00    -0.064 C 
ATOM     20  C   UNL     1     -10.164  -3.064   5.118  0.00  0.00    +0.066 C 
ATOM     21  N   UNL     1      -8.953  -3.896   5.167  0.00  0.00    -0.299 NA
ATOM     22  C   UNL     1      -8.615  -4.405   3.830  0.00  0.00    +0.066 C 
ATOM     23  C   UNL     1      -8.402  -3.227   2.878  0.00  0.00    -0.064 C 
ATOM     24  H   UNL     1     -10.392  -2.991   2.494  0.00  0.00    -0.082 HD
ENDBRANCH  16  21
ENDBRANCH  11  16
ENDBRANCH   1  13
BRANCH   6  25
ATOM     25  O   UNL     1      -4.782  -8.677   8.198  0.00  0.00    -0.494 OA
ATOM     26  C   UNL     1      -4.280  -9.888   8.766  0.00  0.00    +0.277 C 
ENDBRANCH   6  25
BRANCH   8  27
ATOM     27  C   UNL     1       0.971  -5.272  11.040  0.00  0.00    +0.103 C 
ATOM     28  N   UNL     1       1.938  -5.256  11.636  0.00  0.00    -0.191 NA
ENDBRANCH   8  27
BRANCH   7  29
ATOM     29  N   UNL     1      -0.483  -7.678  10.640  0.00  0.00    -0.312 N 
ATOM     30  H   UNL     1       0.196  -8.188  10.171  0.00  0.00    +0.152 HD
BRANCH  29  31
ATOM     31  C   UNL     1      -0.990  -8.143  11.857  0.00  0.00    +0.053 A 
ATOM     32  C   UNL     1      -2.043  -7.478  12.470  0.00  0.00    +0.071 A 
ATOM     33  C   UNL     1      -2.544  -7.941  13.676  0.00  0.00    +0.140 A 
ATOM     34  C   UNL     1      -1.992  -9.069  14.270  0.00  0.00    +0.084 A 
ATOM     35  C   UNL     1      -0.942  -9.730  13.658  0.00  0.00    +0.045 A 
ATOM     36  C   UNL     1      -0.444  -9.274  12.452  0.00  0.00    +0.064 A 
ATOM     37 CL   UNL     1       0.868 -10.111  11.683  0.00  0.00    -0.082 Cl
ATOM     38 CL   UNL     1      -2.619  -9.648  15.781  0.00  0.00    -0.080 Cl
BRANCH  33  39
ATOM     39  O   UNL     1      -3.575  -7.292  14.279  0.00  0.00    -0.494 OA
ATOM     40  C   UNL     1      -4.173  -6.213  13.557  0.00  0.00    +0.277 C 
ENDBRANCH  33  39
ENDBRANCH  29  31
ENDBRANCH   7  29
TORSDOF 8
