REMARK  Name = CHEMBL567241
REMARK  5 active torsions:
REMARK  status: ('A' for Active; 'I' for Inactive)
REMARK    1  A    between atoms: C_1  and  N_2
REMARK    2  A    between atoms: C_7  and  C_8
REMARK    3  A    between atoms: C_8  and  N_9
REMARK    4  A    between atoms: C_14  and  N_16
REMARK    5  A    between atoms: C_25  and  C_27
REMARK                            x       y       z     vdW  Elec       q    Type
REMARK                         _______ _______ _______ _____ _____    ______ ____
ROOT
ATOM      1  C   UNL     1       0.058   1.477   0.920  0.00  0.00    +0.105 C 
ATOM      2  N   UNL     1       0.021   0.038   0.627  0.00  0.00    -0.298 NA
ATOM      3  C   UNL     1      -1.362  -0.452   0.563  0.00  0.00    +0.103 C 
ATOM      4  C   UNL     1      -1.364  -1.906   0.079  0.00  0.00    +0.123 C 
ATOM      5  N   UNL     1      -0.467  -2.687   0.945  0.00  0.00    -0.295 N 
ATOM      6  C   UNL     1       0.897  -2.184   1.168  0.00  0.00    +0.128 C 
ATOM      7  C   UNL     1       0.809  -0.719   1.609  0.00  0.00    +0.091 C 
ATOM      8  C   UNL     1      -0.885  -3.833   1.518  0.00  0.00    +0.247 C 
ATOM      9  O   UNL     1      -0.167  -4.413   2.309  0.00  0.00    -0.270 OA
ENDROOT
BRANCH   8  10
ATOM     10  C   UNL     1      -2.215  -4.384   1.186  0.00  0.00    +0.037 A 
ATOM     11  C   UNL     1      -3.018  -4.931   2.203  0.00  0.00    +0.013 A 
ATOM     12  C   UNL     1      -4.244  -5.443   1.922  0.00  0.00    +0.009 A 
ATOM     13  C   UNL     1      -4.726  -5.431   0.601  0.00  0.00    -0.018 A 
ATOM     14  C   UNL     1      -5.991  -5.955   0.286  0.00  0.00    +0.008 A 
ATOM     15  C   UNL     1      -6.431  -5.929  -1.002  0.00  0.00    +0.001 A 
ATOM     16  C   UNL     1      -5.644  -5.391  -2.019  0.00  0.00    +0.001 A 
ATOM     17  C   UNL     1      -4.414  -4.874  -1.753  0.00  0.00    +0.008 A 
ATOM     18  C   UNL     1      -3.926  -4.882  -0.434  0.00  0.00    -0.017 A 
ATOM     19  C   UNL     1      -2.664  -4.352  -0.124  0.00  0.00    +0.021 A 
ENDBRANCH   8  10
BRANCH   7  20
ATOM     20  C   UNL     1       2.218  -0.128   1.698  0.00  0.00    +0.124 C 
BRANCH  20  21
ATOM     21  N   UNL     1       2.811  -0.074   0.360  0.00  0.00    -0.312 N 
ATOM     22  C   UNL     1       4.048   0.518   0.174  0.00  0.00    +0.217 A 
ATOM     23  N   UNL     1       4.684   1.026   1.219  0.00  0.00    -0.223 NA
ATOM     24  C   UNL     1       5.869   1.600   1.081  0.00  0.00    +0.118 A 
ATOM     25  C   UNL     1       6.446   1.666  -0.175  0.00  0.00    +0.066 A 
ATOM     26  C   UNL     1       5.752   1.122  -1.255  0.00  0.00    +0.144 A 
ATOM     27  N   UNL     1       4.569   0.557  -1.043  0.00  0.00    -0.197 NA
ATOM     28  H   UNL     1       2.336  -0.454  -0.397  0.00  0.00    +0.149 HD
BRANCH  26  29
ATOM     29  N   UNL     1       6.294   1.167  -2.538  0.00  0.00    -0.283 N 
ATOM     30  C   UNL     1       7.497   1.705  -2.890  0.00  0.00    +0.206 A 
ATOM     31  N   UNL     1       7.687   1.574  -4.170  0.00  0.00    -0.235 NA
ATOM     32  C   UNL     1       6.622   0.944  -4.729  0.00  0.00    +0.089 A 
ATOM     33  C   UNL     1       5.715   0.668  -3.692  0.00  0.00    +0.075 A 
ATOM     34  C   UNL     1       4.523   0.017  -3.968  0.00  0.00    +0.028 A 
ATOM     35  C   UNL     1       4.232  -0.362  -5.262  0.00  0.00    +0.002 A 
ATOM     36  C   UNL     1       5.125  -0.096  -6.290  0.00  0.00    +0.002 A 
ATOM     37  C   UNL     1       6.309   0.558  -6.035  0.00  0.00    +0.030 A 
ENDBRANCH  26  29
ENDBRANCH  20  21
ENDBRANCH   7  20
TORSDOF 4
