REMARK  Name = CHEMBL572199
REMARK  7 active torsions:
REMARK  status: ('A' for Active; 'I' for Inactive)
REMARK    1  A    between atoms: C_1  and  C_2
REMARK    2  A    between atoms: C_2  and  C_3
REMARK    3  A    between atoms: C_2  and  N_29
REMARK    4  A    between atoms: N_8  and  C_9
REMARK    5  A    between atoms: C_9  and  C_10
REMARK    6  A    between atoms: N_18  and  C_19
REMARK    7  A    between atoms: C_34  and  N_36
REMARK                            x       y       z     vdW  Elec       q    Type
REMARK                         _______ _______ _______ _____ _____    ______ ____
ROOT
ATOM      1  C   UNL     1       0.933   0.052   0.749  0.00  0.00    +0.094 C 
ATOM      2  C   UNL     1      -0.083   0.142   1.893  0.00  0.00    +0.130 C 
ATOM      3  N   UNL     1      -0.225   1.553   2.283  0.00  0.00    -0.283 N 
ATOM      4  C   UNL     1       0.995   2.321   2.571  0.00  0.00    +0.124 C 
ATOM      5  C   UNL     1       1.969   2.146   1.400  0.00  0.00    +0.104 C 
ATOM      6  N   UNL     1       2.180   0.714   1.154  0.00  0.00    -0.291 NA
ATOM      7  C   UNL     1      -1.441   2.126   2.374  0.00  0.00    +0.307 C 
ATOM      8  O   UNL     1      -2.433   1.506   2.041  0.00  0.00    -0.252 OA
ATOM      9  N   UNL     1      -1.559   3.388   2.833  0.00  0.00    -0.269 N 
ATOM     10  H   UNL     1      -0.764   3.905   3.038  0.00  0.00    +0.156 HD
ENDROOT
BRANCH   9  11
ATOM     11  C   UNL     1      -2.824   3.950   3.014  0.00  0.00    +0.042 A 
ATOM     12  C   UNL     1      -3.937   3.142   3.107  0.00  0.00    +0.024 A 
ATOM     13  C   UNL     1      -5.202   3.692   3.287  0.00  0.00    +0.002 A 
ATOM     14  C   UNL     1      -5.377   5.040   3.376  0.00  0.00    +0.008 A 
ATOM     15  C   UNL     1      -4.268   5.898   3.287  0.00  0.00    -0.016 A 
ATOM     16  C   UNL     1      -2.974   5.350   3.110  0.00  0.00    +0.003 A 
ATOM     17  C   UNL     1      -1.867   6.208   3.027  0.00  0.00    +0.010 A 
ATOM     18  C   UNL     1      -2.049   7.554   3.123  0.00  0.00    +0.001 A 
ATOM     19  C   UNL     1      -3.320   8.095   3.304  0.00  0.00    +0.001 A 
ATOM     20  C   UNL     1      -4.418   7.293   3.376  0.00  0.00    +0.008 A 
ENDBRANCH   9  11
BRANCH   1  22
ATOM     21  C   UNL     1      -0.945   0.071  -0.899  0.00  0.00    +0.029 C 
ATOM     22  C   UNL     1       0.366   0.746  -0.491  0.00  0.00    +0.089 C 
BRANCH  22  23
ATOM     23  N   UNL     1       1.330   0.644  -1.590  0.00  0.00    -0.309 N 
ATOM     24  C   UNL     1       1.385   1.634  -2.556  0.00  0.00    +0.217 A 
ATOM     25  N   UNL     1       0.562   2.669  -2.468  0.00  0.00    -0.223 NA
ATOM     26  C   UNL     1       0.586   3.635  -3.373  0.00  0.00    +0.118 A 
ATOM     27  C   UNL     1       1.484   3.558  -4.422  0.00  0.00    +0.066 A 
ATOM     28  C   UNL     1       2.337   2.456  -4.487  0.00  0.00    +0.144 A 
ATOM     29  N   UNL     1       2.263   1.526  -3.542  0.00  0.00    -0.197 NA
ATOM     30  H   UNL     1       1.930  -0.117  -1.641  0.00  0.00    +0.149 HD
BRANCH  28  31
ATOM     31  N   UNL     1       3.258   2.336  -5.526  0.00  0.00    -0.283 N 
ATOM     32  C   UNL     1       3.444   3.220  -6.548  0.00  0.00    +0.206 A 
ATOM     33  N   UNL     1       4.385   2.795  -7.339  0.00  0.00    -0.235 NA
ATOM     34  C   UNL     1       4.869   1.611  -6.882  0.00  0.00    +0.089 A 
ATOM     35  C   UNL     1       4.158   1.301  -5.710  0.00  0.00    +0.075 A 
ATOM     36  C   UNL     1       4.444   0.137  -5.013  0.00  0.00    +0.028 A 
ATOM     37  C   UNL     1       5.430  -0.712  -5.471  0.00  0.00    +0.002 A 
ATOM     38  C   UNL     1       6.137  -0.410  -6.626  0.00  0.00    +0.002 A 
ATOM     39  C   UNL     1       5.861   0.737  -7.335  0.00  0.00    +0.030 A 
ENDBRANCH  28  31
ENDBRANCH  22  23
ENDBRANCH   1  22
BRANCH   6  40
ATOM     40  C   UNL     1       3.236   0.502   0.155  0.00  0.00    +0.120 C 
BRANCH  40  41
ATOM     41  C   UNL     1       4.577   0.821   0.765  0.00  0.00    -0.033 A 
ATOM     42  C   UNL     1       5.080   2.106   0.694  0.00  0.00    +0.005 A 
ATOM     43  C   UNL     1       6.310   2.398   1.254  0.00  0.00    +0.000 A 
ATOM     44  C   UNL     1       7.036   1.406   1.885  0.00  0.00    +0.000 A 
ATOM     45  C   UNL     1       6.532   0.120   1.958  0.00  0.00    +0.000 A 
ATOM     46  C   UNL     1       5.300  -0.171   1.401  0.00  0.00    +0.005 A 
ENDBRANCH  40  41
ENDBRANCH   6  40
TORSDOF 6
