REMARK  Name = CHEMBL566362
REMARK  5 active torsions:
REMARK  status: ('A' for Active; 'I' for Inactive)
REMARK    1  A    between atoms: C_1  and  C_2
REMARK    2  A    between atoms: C_2  and  C_3
REMARK    3  A    between atoms: C_2  and  N_18
REMARK    4  A    between atoms: N_11  and  C_12
REMARK    5  A    between atoms: C_23  and  N_25
REMARK                            x       y       z     vdW  Elec       q    Type
REMARK                         _______ _______ _______ _____ _____    ______ ____
ROOT
ATOM      1  C   UNL     1       0.925   2.928  -0.363  0.00  0.00    +0.028 C 
ATOM      2  C   UNL     1       1.087   1.531   0.240  0.00  0.00    +0.075 C 
ENDROOT
BRANCH   2   3
ATOM      3  C   UNL     1       1.471   0.541  -0.862  0.00  0.00    +0.026 C 
ATOM      4  C   UNL     1       0.376   0.515  -1.931  0.00  0.00    +0.008 C 
ATOM      5  C   UNL     1       0.744  -0.498  -3.017  0.00  0.00    +0.019 C 
ATOM      6  C   UNL     1       2.058  -0.074  -3.681  0.00  0.00    +0.109 C 
ATOM      7  N   UNL     1       3.081   0.094  -2.640  0.00  0.00    -0.285 N 
ATOM      8  C   UNL     1       2.793   0.977  -1.502  0.00  0.00    +0.114 C 
ATOM      9  C   UNL     1       4.262  -0.550  -2.728  0.00  0.00    +0.306 C 
ATOM     10  O   UNL     1       5.132  -0.339  -1.906  0.00  0.00    -0.252 OA
ATOM     11  N   UNL     1       4.478  -1.427  -3.728  0.00  0.00    -0.269 N 
ATOM     12  H   UNL     1       3.827  -1.520  -4.441  0.00  0.00    +0.156 HD
BRANCH  11  13
ATOM     13  C   UNL     1       5.642  -2.205  -3.737  0.00  0.00    +0.035 A 
ATOM     14  C   UNL     1       6.202  -2.632  -2.540  0.00  0.00    +0.023 A 
ATOM     15  C   UNL     1       7.350  -3.400  -2.552  0.00  0.00    +0.002 A 
ATOM     16  C   UNL     1       7.941  -3.743  -3.754  0.00  0.00    +0.000 A 
ATOM     17  C   UNL     1       7.386  -3.320  -4.947  0.00  0.00    +0.002 A 
ATOM     18  C   UNL     1       6.234  -2.556  -4.942  0.00  0.00    +0.023 A 
ENDBRANCH  11  13
ENDBRANCH   2   3
BRANCH   2  19
ATOM     19  N   UNL     1       2.137   1.558   1.260  0.00  0.00    -0.311 N 
ATOM     20  C   UNL     1       1.834   1.937   2.556  0.00  0.00    +0.217 A 
ATOM     21  N   UNL     1       0.586   2.267   2.857  0.00  0.00    -0.223 NA
ATOM     22  C   UNL     1       0.258   2.634   4.086  0.00  0.00    +0.118 A 
ATOM     23  C   UNL     1       1.234   2.672   5.064  0.00  0.00    +0.066 A 
ATOM     24  C   UNL     1       2.538   2.320   4.717  0.00  0.00    +0.144 A 
ATOM     25  N   UNL     1       2.796   1.956   3.466  0.00  0.00    -0.197 NA
ATOM     26  H   UNL     1       3.046   1.310   1.028  0.00  0.00    +0.149 HD
BRANCH  24  27
ATOM     27  N   UNL     1       3.554   2.344   5.670  0.00  0.00    -0.283 N 
ATOM     28  C   UNL     1       3.424   2.686   6.984  0.00  0.00    +0.206 A 
ATOM     29  N   UNL     1       4.574   2.598   7.584  0.00  0.00    -0.235 NA
ATOM     30  C   UNL     1       5.523   2.194   6.700  0.00  0.00    +0.089 A 
ATOM     31  C   UNL     1       4.883   2.020   5.461  0.00  0.00    +0.075 A 
ATOM     32  C   UNL     1       5.612   1.601   4.358  0.00  0.00    +0.028 A 
ATOM     33  C   UNL     1       6.963   1.354   4.482  0.00  0.00    +0.002 A 
ATOM     34  C   UNL     1       7.599   1.521   5.703  0.00  0.00    +0.002 A 
ATOM     35  C   UNL     1       6.893   1.943   6.807  0.00  0.00    +0.030 A 
ENDBRANCH  24  27
ENDBRANCH   2  19
TORSDOF 4
