REMARK  Name = CHEMBL483158
REMARK  7 active torsions:
REMARK  status: ('A' for Active; 'I' for Inactive)
REMARK    1  A    between atoms: C_1  and  O_2
REMARK    2  A    between atoms: O_2  and  C_3
REMARK    3  A    between atoms: C_8  and  C_9
REMARK    4  A    between atoms: N_25  and  C_26
REMARK    5  A    between atoms: C_29  and  C_34
REMARK    6  A    between atoms: C_30  and  O_32
REMARK    7  A    between atoms: O_32  and  C_33
REMARK                            x       y       z     vdW  Elec       q    Type
REMARK                         _______ _______ _______ _____ _____    ______ ____
ROOT
ATOM      1  C   UNL     1       0.274  -3.228   0.184  0.00  0.00    +0.057 C 
ATOM      2  N   UNL     1      -0.976  -3.388  -0.067  0.00  0.00    -0.379 N 
ATOM      3  C   UNL     1      -1.879  -4.075   0.850  0.00  0.00    +0.152 C 
ATOM      4  C   UNL     1      -2.005  -3.280   2.119  0.00  0.00    +0.016 A 
ATOM      5  C   UNL     1      -3.235  -2.746   2.470  0.00  0.00    +0.122 A 
ATOM      6  N   UNL     1      -3.336  -2.039   3.584  0.00  0.00    -0.222 NA
ATOM      7  C   UNL     1      -2.279  -1.838   4.358  0.00  0.00    +0.220 A 
ATOM      8  N   UNL     1      -1.091  -2.334   4.058  0.00  0.00    -0.214 NA
ATOM      9  C   UNL     1      -0.918  -3.064   2.950  0.00  0.00    +0.082 A 
ATOM     10  C   UNL     1       0.423  -3.622   2.672  0.00  0.00    +0.010 A 
ATOM     11  C   UNL     1       0.971  -3.706   1.389  0.00  0.00    +0.009 A 
ATOM     12  C   UNL     1       2.246  -4.263   1.219  0.00  0.00    +0.030 A 
ATOM     13  C   UNL     1       2.959  -4.726   2.304  0.00  0.00    +0.042 A 
ATOM     14  C   UNL     1       2.419  -4.643   3.578  0.00  0.00    +0.020 A 
ATOM     15  C   UNL     1       1.162  -4.090   3.766  0.00  0.00    +0.012 A 
ATOM     16 CL   UNL     1       4.536  -5.414   2.075  0.00  0.00    -0.084 Cl
ATOM     17  N   UNL     1      -2.423  -1.086   5.514  0.00  0.00    -0.283 N 
ATOM     18  H   UNL     1      -1.644  -0.862   6.047  0.00  0.00    +0.155 HD
ATOM     19  H   UNL     1      -1.333  -3.038  -0.898  0.00  0.00    +0.160 HD
ENDROOT
BRANCH   1  25
ATOM     20  C   UNL     1       1.224  -1.118  -0.750  0.00  0.00    +0.132 A 
ATOM     21  C   UNL     1       1.987  -0.454  -1.698  0.00  0.00    +0.046 A 
ATOM     22  C   UNL     1       2.598  -1.160  -2.716  0.00  0.00    +0.006 A 
ATOM     23  C   UNL     1       2.456  -2.534  -2.798  0.00  0.00    +0.039 A 
ATOM     24  C   UNL     1       1.700  -3.213  -1.862  0.00  0.00    +0.136 A 
ATOM     25  C   UNL     1       1.080  -2.509  -0.825  0.00  0.00    +0.075 A 
ATOM     26  F   UNL     1       1.562  -4.554  -1.946  0.00  0.00    -0.205 F 
BRANCH  20  28
ATOM     27  C   UNL     1       0.815   0.992   0.262  0.00  0.00    +0.277 C 
ATOM     28  O   UNL     1       0.624  -0.424   0.250  0.00  0.00    -0.494 OA
ENDBRANCH  20  28
ENDBRANCH   1  25
BRANCH  17  29
ATOM     29  C   UNL     1      -3.685  -0.652   5.909  0.00  0.00    +0.037 A 
ATOM     30  C   UNL     1      -4.802  -1.450   5.662  0.00  0.00    +0.024 A 
ATOM     31  C   UNL     1      -6.043  -1.035   6.045  0.00  0.00    +0.020 A 
ATOM     32  C   UNL     1      -6.204   0.198   6.690  0.00  0.00    +0.105 A 
ATOM     33  C   UNL     1      -5.081   1.005   6.941  0.00  0.00    +0.136 A 
ATOM     34  C   UNL     1      -3.826   0.571   6.553  0.00  0.00    +0.069 A 
BRANCH  32  35
ATOM     35  C   UNL     1      -7.540   0.646   7.102  0.00  0.00    +0.390 C 
ATOM     36  O   UNL     1      -8.517  -0.058   6.881  0.00  0.00    -0.240 OA
ATOM     37  O   UNL     1      -7.678   1.724   7.665  0.00  0.00    -0.240 OA
ENDBRANCH  32  35
BRANCH  33  38
ATOM     38  O   UNL     1      -5.226   2.201   7.565  0.00  0.00    -0.494 OA
ATOM     39  C   UNL     1      -4.039   2.965   7.785  0.00  0.00    +0.277 C 
ENDBRANCH  33  38
ENDBRANCH  17  29
TORSDOF 5
