REMARK  Name = CHEMBL568101
REMARK  6 active torsions:
REMARK  status: ('A' for Active; 'I' for Inactive)
REMARK    1  A    between atoms: C_1  and  C_2
REMARK    2  A    between atoms: C_2  and  C_3
REMARK    3  A    between atoms: C_2  and  N_23
REMARK    4  A    between atoms: N_8  and  C_9
REMARK    5  A    between atoms: N_12  and  C_13
REMARK    6  A    between atoms: C_28  and  N_30
REMARK                            x       y       z     vdW  Elec       q    Type
REMARK                         _______ _______ _______ _____ _____    ______ ____
ROOT
ATOM      1  C   UNL     1       0.300  -1.358   1.959  0.00  0.00    -0.031 C 
ATOM      2  C   UNL     1       1.707  -1.121   1.400  0.00  0.00    +0.096 C 
ATOM      3  N   UNL     1       2.635  -0.952   2.529  0.00  0.00    -0.289 N 
ATOM      4  C   UNL     1       2.277   0.009   3.583  0.00  0.00    +0.091 C 
ATOM      5  C   UNL     1       0.844  -0.281   4.039  0.00  0.00    -0.059 C 
ATOM      6  N   UNL     1      -0.052  -0.266   2.876  0.00  0.00    +0.383 N 
ATOM      7  C   UNL     1      -1.440  -0.435   3.326  0.00  0.00    -0.096 C 
ATOM      8  C   UNL     1       3.781  -1.659   2.595  0.00  0.00    +0.306 C 
ATOM      9  O   UNL     1       4.013  -2.519   1.768  0.00  0.00    -0.252 OA
ATOM     10  N   UNL     1       4.668  -1.413   3.579  0.00  0.00    -0.269 N 
ATOM     11  H   UNL     1       4.439  -0.802   4.297  0.00  0.00    +0.156 HD
ATOM     12  H   UNL     1       0.038   0.617   2.395  0.00  0.00    -0.082 HD
ENDROOT
BRANCH  10  13
ATOM     13  C   UNL     1       5.920  -2.037   3.565  0.00  0.00    +0.035 A 
ATOM     14  C   UNL     1       6.551  -2.296   2.342  0.00  0.00    +0.024 A 
ATOM     15  C   UNL     1       7.767  -2.901   2.298  0.00  0.00    +0.010 A 
ATOM     16  C   UNL     1       8.407  -3.277   3.493  0.00  0.00    -0.018 A 
ATOM     17  C   UNL     1       9.664  -3.904   3.478  0.00  0.00    +0.008 A 
ATOM     18  C   UNL     1      10.257  -4.254   4.652  0.00  0.00    +0.001 A 
ATOM     19  C   UNL     1       9.635  -4.001   5.873  0.00  0.00    +0.001 A 
ATOM     20  C   UNL     1       8.418  -3.396   5.927  0.00  0.00    +0.008 A 
ATOM     21  C   UNL     1       7.775  -3.019   4.735  0.00  0.00    -0.016 A 
ATOM     22  C   UNL     1       6.521  -2.387   4.753  0.00  0.00    +0.031 A 
ENDBRANCH  10  13
BRANCH   1  24
ATOM     23  C   UNL     1      -0.765  -0.032   0.129  0.00  0.00    +0.026 C 
ATOM     24  C   UNL     1      -0.706  -1.402   0.807  0.00  0.00    +0.058 C 
BRANCH  24  25
ATOM     25  N   UNL     1      -0.288  -2.412  -0.168  0.00  0.00    -0.312 N 
ATOM     26  C   UNL     1      -1.226  -3.008  -0.992  0.00  0.00    +0.217 A 
ATOM     27  N   UNL     1      -2.498  -2.649  -0.889  0.00  0.00    -0.223 NA
ATOM     28  C   UNL     1      -3.424  -3.197  -1.661  0.00  0.00    +0.118 A 
ATOM     29  C   UNL     1      -3.052  -4.156  -2.586  0.00  0.00    +0.066 A 
ATOM     30  C   UNL     1      -1.707  -4.513  -2.670  0.00  0.00    +0.144 A 
ATOM     31  N   UNL     1      -0.831  -3.919  -1.868  0.00  0.00    -0.197 NA
ATOM     32  H   UNL     1       0.647  -2.663  -0.236  0.00  0.00    +0.149 HD
BRANCH  30  33
ATOM     33  N   UNL     1      -1.288  -5.475  -3.587  0.00  0.00    -0.283 N 
ATOM     34  C   UNL     1      -2.078  -6.150  -4.471  0.00  0.00    +0.206 A 
ATOM     35  N   UNL     1      -1.358  -6.973  -5.175  0.00  0.00    -0.235 NA
ATOM     36  C   UNL     1      -0.057  -6.885  -4.794  0.00  0.00    +0.089 A 
ATOM     37  C   UNL     1       0.009  -5.920  -3.774  0.00  0.00    +0.075 A 
ATOM     38  C   UNL     1       1.229  -5.612  -3.190  0.00  0.00    +0.028 A 
ATOM     39  C   UNL     1       2.374  -6.252  -3.614  0.00  0.00    +0.002 A 
ATOM     40  C   UNL     1       2.315  -7.203  -4.623  0.00  0.00    +0.002 A 
ATOM     41  C   UNL     1       1.113  -7.527  -5.208  0.00  0.00    +0.030 A 
ENDBRANCH  30  33
ENDBRANCH  24  25
ENDBRANCH   1  24
TORSDOF 4
