REMARK  Name = CHEMBL320280
REMARK  2 active torsions:
REMARK  status: ('A' for Active; 'I' for Inactive)
REMARK    1  A    between atoms: C_1  and  C_2
REMARK    2  A    between atoms: C_7  and  N_8
REMARK                            x       y       z     vdW  Elec       q    Type
REMARK                         _______ _______ _______ _____ _____    ______ ____
ROOT
ATOM      1  N   UNL     1       0.025  -0.015   2.416  0.00  0.00    -0.296 N 
ATOM      2  C   UNL     1      -0.365  -0.658   3.577  0.00  0.00    +0.149 A 
ATOM      3  C   UNL     1      -0.474   0.090   4.827  0.00  0.00    +0.106 A 
ATOM      4  C   UNL     1      -0.267   1.400   5.184  0.00  0.00    +0.142 A 
ATOM      5  N   UNL     1      -0.527   1.507   6.489  0.00  0.00    -0.243 NA
ATOM      6  C   UNL     1      -0.885   0.340   6.967  0.00  0.00    +0.204 A 
ATOM      7  N   UNL     1      -0.867  -0.569   5.977  0.00  0.00    -0.294 N 
ATOM      8  C   UNL     1      -1.145  -1.930   5.908  0.00  0.00    +0.077 A 
ATOM      9  C   UNL     1      -1.540  -2.622   7.044  0.00  0.00    +0.078 A 
ATOM     10  C   UNL     1      -1.816  -3.975   6.974  0.00  0.00    +0.168 A 
ATOM     11  C   UNL     1      -1.698  -4.653   5.758  0.00  0.00    +0.168 A 
ATOM     12  C   UNL     1      -1.306  -3.975   4.621  0.00  0.00    +0.079 A 
ATOM     13  C   UNL     1      -1.025  -2.604   4.683  0.00  0.00    +0.094 A 
ATOM     14  N   UNL     1      -0.643  -1.943   3.557  0.00  0.00    -0.228 NA
ATOM     15  O   UNL     1      -2.022  -5.964   5.958  0.00  0.00    -0.453 OA
ATOM     16  C   UNL     1      -1.942  -6.168   7.381  0.00  0.00    +0.466 C 
ATOM     17  O   UNL     1      -2.215  -4.865   7.930  0.00  0.00    -0.453 OA
ATOM     18  H   UNL     1       0.230   0.933   2.432  0.00  0.00    +0.154 HD
ENDROOT
BRANCH   1  25
ATOM     19  C   UNL     1       2.524  -1.212   1.769  0.00  0.00    +0.046 C 
ATOM     20  C   UNL     1       1.325  -1.332   0.865  0.00  0.00    -0.028 A 
ATOM     21  C   UNL     1       1.417  -2.044  -0.316  0.00  0.00    +0.005 A 
ATOM     22  C   UNL     1       0.318  -2.155  -1.146  0.00  0.00    +0.002 A 
ATOM     23  C   UNL     1      -0.879  -1.554  -0.799  0.00  0.00    +0.022 A 
ATOM     24  C   UNL     1      -0.979  -0.840   0.380  0.00  0.00    +0.062 A 
ATOM     25  C   UNL     1       0.124  -0.732   1.220  0.00  0.00    +0.054 A 
ATOM     26 CL   UNL     1      -2.481  -0.086   0.814  0.00  0.00    -0.082 Cl
ENDBRANCH   1  25
TORSDOF 1
