REMARK  Name = CHEMBL362119
REMARK  3 active torsions:
REMARK  status: ('A' for Active; 'I' for Inactive)
REMARK    1  A    between atoms: C_1  and  C_2
REMARK    2  A    between atoms: C_7  and  N_8
REMARK    3  A    between atoms: C_18  and  N_22
REMARK                            x       y       z     vdW  Elec       q    Type
REMARK                         _______ _______ _______ _____ _____    ______ ____
ROOT
ATOM      1  N   UNL     1       0.007  -0.011   2.413  0.00  0.00    -0.296 N 
ATOM      2  C   UNL     1      -0.376  -0.654   3.572  0.00  0.00    +0.149 A 
ATOM      3  C   UNL     1      -0.479   0.093   4.823  0.00  0.00    +0.106 A 
ATOM      4  C   UNL     1      -0.272   1.404   5.177  0.00  0.00    +0.142 A 
ATOM      5  N   UNL     1      -0.524   1.511   6.484  0.00  0.00    -0.243 NA
ATOM      6  C   UNL     1      -0.877   0.345   6.965  0.00  0.00    +0.204 A 
ATOM      7  N   UNL     1      -0.865  -0.565   5.977  0.00  0.00    -0.293 N 
ATOM      8  C   UNL     1      -1.143  -1.926   5.907  0.00  0.00    +0.092 A 
ATOM      9  C   UNL     1      -1.533  -2.635   7.030  0.00  0.00    +0.141 A 
ATOM     10  N   UNL     1      -1.794  -3.926   6.953  0.00  0.00    -0.238 NA
ATOM     11  C   UNL     1      -1.699  -4.599   5.814  0.00  0.00    +0.123 A 
ATOM     12  C   UNL     1      -1.315  -3.969   4.642  0.00  0.00    +0.073 A 
ATOM     13  C   UNL     1      -1.027  -2.599   4.676  0.00  0.00    +0.095 A 
ATOM     14  N   UNL     1      -0.655  -1.942   3.551  0.00  0.00    -0.228 NA
ATOM     15  H   UNL     1       0.135   0.950   2.411  0.00  0.00    +0.154 HD
ENDROOT
BRANCH   1  22
ATOM     16  C   UNL     1       2.656  -0.205   1.394  0.00  0.00    +0.046 C 
ATOM     17  C   UNL     1       1.488  -0.866   0.708  0.00  0.00    -0.028 A 
ATOM     18  C   UNL     1       1.687  -1.597  -0.447  0.00  0.00    +0.005 A 
ATOM     19  C   UNL     1       0.617  -2.204  -1.077  0.00  0.00    +0.002 A 
ATOM     20  C   UNL     1      -0.658  -2.083  -0.553  0.00  0.00    +0.022 A 
ATOM     21  C   UNL     1      -0.864  -1.353   0.602  0.00  0.00    +0.062 A 
ATOM     22  C   UNL     1       0.211  -0.746   1.240  0.00  0.00    +0.054 A 
ATOM     23 CL   UNL     1      -2.464  -1.200   1.259  0.00  0.00    -0.082 Cl
ENDBRANCH   1  22
BRANCH  11  24
ATOM     24  N   UNL     1      -1.988  -5.961   5.797  0.00  0.00    -0.319 N 
ATOM     25  C   UNL     1      -2.616  -6.616   6.955  0.00  0.00    +0.087 C 
ATOM     26  C   UNL     1      -3.823  -7.420   6.463  0.00  0.00    -0.063 C 
ATOM     27  N   UNL     1      -3.397  -8.342   5.403  0.00  0.00    +0.381 N 
ATOM     28  C   UNL     1      -2.927  -7.582   4.237  0.00  0.00    -0.063 C 
ATOM     29  C   UNL     1      -1.680  -6.785   4.617  0.00  0.00    +0.087 C 
ATOM     30  H   UNL     1      -2.648  -8.925   5.747  0.00  0.00    -0.086 HD
ATOM     31  H   UNL     1      -4.175  -8.924   5.131  0.00  0.00    -0.086 HD
ENDBRANCH  11  24
TORSDOF 2
