REMARK  Name = CHEMBL596079
REMARK  8 active torsions:
REMARK  status: ('A' for Active; 'I' for Inactive)
REMARK    1  A    between atoms: C_4  and  O_7
REMARK    2  A    between atoms: O_7  and  C_8
REMARK    3  A    between atoms: C_11  and  C_14
REMARK    4  A    between atoms: C_15  and  C_37
REMARK    5  A    between atoms: C_23  and  O_28
REMARK    6  A    between atoms: O_28  and  C_29
REMARK    7  A    between atoms: C_29  and  C_30
REMARK    8  A    between atoms: C_30  and  N_31
REMARK                            x       y       z     vdW  Elec       q    Type
REMARK                         _______ _______ _______ _____ _____    ______ ____
ROOT
ATOM      1  C   UNL     1       3.201  -6.319   1.038  0.00  0.00    +0.107 A 
ATOM      2  C   UNL     1       4.284  -7.008   0.317  0.00  0.00    +0.104 A 
ATOM      3  C   UNL     1       4.031  -8.360   0.481  0.00  0.00    +0.134 A 
ATOM      4  N   UNL     1       2.947  -8.509   1.221  0.00  0.00    -0.249 N 
ATOM      5  N   UNL     1       2.432  -7.251   1.558  0.00  0.00    -0.169 NA
ATOM      6  C   UNL     1       2.407  -9.809   1.628  0.00  0.00    +0.150 C 
ATOM      7  C   UNL     1       3.341 -10.515   2.587  0.00  0.00    +0.060 C 
ATOM      8  C   UNL     1       4.706 -10.832   2.013  0.00  0.00    -0.021 A 
ATOM      9  C   UNL     1       5.427 -11.735   2.808  0.00  0.00    +0.051 A 
ATOM     10  C   UNL     1       6.688 -12.165   2.459  0.00  0.00    +0.121 A 
ATOM     11  C   UNL     1       7.278 -11.706   1.290  0.00  0.00    +0.047 A 
ATOM     12  C   UNL     1       6.584 -10.816   0.501  0.00  0.00    +0.027 A 
ATOM     13  C   UNL     1       5.308 -10.376   0.864  0.00  0.00    +0.036 A 
ATOM     14  N   UNL     1       4.721  -9.449  -0.002  0.00  0.00    -0.299 N 
ATOM     15  H   UNL     1       4.800  -9.575  -0.961  0.00  0.00    +0.154 HD
ENDROOT
BRANCH   1  19
ATOM     16  C   UNL     1       2.672  -2.114   1.389  0.00  0.00    +0.128 A 
ATOM     17  C   UNL     1       1.564  -2.947   1.304  0.00  0.00    +0.047 A 
ATOM     18  C   UNL     1       1.733  -4.311   1.190  0.00  0.00    +0.014 A 
ATOM     19  C   UNL     1       3.017  -4.854   1.160  0.00  0.00    +0.003 A 
ATOM     20  C   UNL     1       4.127  -4.014   1.245  0.00  0.00    +0.014 A 
ATOM     21  C   UNL     1       3.952  -2.651   1.354  0.00  0.00    +0.047 A 
BRANCH  16  22
ATOM     22  O   UNL     1       2.503  -0.771   1.502  0.00  0.00    -0.456 OA
BRANCH  22  26
ATOM     23  C   UNL     1       1.506   0.751   5.204  0.00  0.00    +0.000 A 
ATOM     24  C   UNL     1       1.613  -0.616   5.026  0.00  0.00    +0.004 A 
ATOM     25  C   UNL     1       1.946  -1.128   3.787  0.00  0.00    +0.046 A 
ATOM     26  C   UNL     1       2.175  -0.270   2.721  0.00  0.00    +0.128 A 
ATOM     27  C   UNL     1       2.067   1.102   2.903  0.00  0.00    +0.046 A 
ATOM     28  C   UNL     1       1.734   1.609   4.144  0.00  0.00    +0.004 A 
ENDBRANCH  22  26
ENDBRANCH  16  22
ENDBRANCH   1  19
BRANCH   2  29
ATOM     29  C   UNL     1       5.393  -6.394  -0.420  0.00  0.00    +0.247 C 
ATOM     30  O   UNL     1       6.437  -6.141   0.152  0.00  0.00    -0.270 OA
ATOM     31  N   UNL     1       5.256  -6.110  -1.730  0.00  0.00    -0.325 N 
ATOM     32  H   UNL     1       4.424  -6.311  -2.186  0.00  0.00    +0.145 HD
ATOM     33  H   UNL     1       5.990  -5.704  -2.218  0.00  0.00    +0.145 HD
ENDBRANCH   2  29
BRANCH  10  34
ATOM     34  O   UNL     1       7.355 -13.040   3.259  0.00  0.00    -0.494 OA
BRANCH  34  35
ATOM     35  C   UNL     1       8.659 -13.443   2.834  0.00  0.00    +0.210 C 
BRANCH  35  36
ATOM     36  C   UNL     1       9.247 -14.421   3.853  0.00  0.00    -0.037 C 
BRANCH  36  37
ATOM     37  N   UNL     1       8.430 -15.641   3.890  0.00  0.00    +0.385 N 
ATOM     38  C   UNL     1       8.902 -16.515   4.972  0.00  0.00    -0.050 C 
ATOM     39  C   UNL     1       8.049 -17.785   5.009  0.00  0.00    +0.141 C 
ATOM     40  O   UNL     1       8.120 -18.438   3.738  0.00  0.00    -0.383 OA
ATOM     41  C   UNL     1       7.692 -17.617   2.647  0.00  0.00    +0.141 C 
ATOM     42  C   UNL     1       8.545 -16.347   2.606  0.00  0.00    -0.050 C 
ATOM     43  H   UNL     1       7.465 -15.395   4.053  0.00  0.00    -0.081 HD
ENDBRANCH  36  37
ENDBRANCH  35  36
ENDBRANCH  34  35
ENDBRANCH  10  34
TORSDOF 8
