REMARK  Name = CHEMBL66990
REMARK  4 active torsions:
REMARK  status: ('A' for Active; 'I' for Inactive)
REMARK    1  A    between atoms: C_1  and  C_2
REMARK    2  A    between atoms: C_7  and  N_8
REMARK    3  A    between atoms: C_9  and  C_11
REMARK    4  A    between atoms: N_23  and  C_24
REMARK                            x       y       z     vdW  Elec       q    Type
REMARK                         _______ _______ _______ _____ _____    ______ ____
ROOT
ATOM      1  C   UNL     1      -0.460   0.114   4.810  0.00  0.00    +0.038 A 
ATOM      2  C   UNL     1      -0.172   1.486   4.844  0.00  0.00    +0.015 A 
ATOM      3  C   UNL     1      -0.261   2.200   5.993  0.00  0.00    +0.029 A 
ATOM      4  C   UNL     1      -0.651   1.583   7.208  0.00  0.00    +0.080 A 
ATOM      5  C   UNL     1      -0.937   0.197   7.148  0.00  0.00    +0.041 A 
ATOM      6  C   UNL     1      -0.853  -0.525   5.990  0.00  0.00    +0.030 A 
ATOM      7  S   UNL     1      -1.373  -0.172   8.831  0.00  0.00    -0.052 S 
ATOM      8  C   UNL     1      -1.155   1.477   9.485  0.00  0.00    +0.167 A 
ATOM      9  N   UNL     1      -0.785   2.154   8.421  0.00  0.00    -0.225 NA
ATOM     10  N   UNL     1      -1.333   1.926  10.781  0.00  0.00    -0.248 N 
ATOM     11  C   UNL     1      -1.117   3.222  11.081  0.00  0.00    +0.306 C 
ATOM     12  O   UNL     1      -0.766   3.997  10.212  0.00  0.00    -0.252 OA
ATOM     13  N   UNL     1      -1.290   3.660  12.344  0.00  0.00    -0.296 N 
ATOM     14  H   UNL     1      -1.614   1.308  11.475  0.00  0.00    +0.158 HD
ATOM     15  H   UNL     1      -1.571   3.042  13.037  0.00  0.00    +0.151 HD
ENDROOT
BRANCH  13  16
ATOM     16  C   UNL     1      -1.055   5.069  12.669  0.00  0.00    +0.074 C 
ATOM     17  C   UNL     1       0.429   5.288  13.028  0.00  0.00    +0.022 C 
ATOM     18  C   UNL     1       0.394   6.336  14.168  0.00  0.00    +0.002 C 
ATOM     19  C   UNL     1      -0.854   5.913  14.982  0.00  0.00    +0.002 C 
ATOM     20  C   UNL     1      -1.871   5.466  13.912  0.00  0.00    +0.022 C 
ENDBRANCH  13  16
BRANCH   1  22
ATOM     21  N   UNL     1       0.025  -0.015   2.417  0.00  0.00    -0.280 N 
ATOM     22  C   UNL     1      -0.355  -0.641   3.548  0.00  0.00    +0.248 C 
ATOM     23  O   UNL     1      -0.612  -1.830   3.528  0.00  0.00    -0.270 OA
ATOM     24  H   UNL     1       0.299   0.915   2.446  0.00  0.00    +0.155 HD
BRANCH  21  31
ATOM     25  C   UNL     1      -2.321   0.099   0.811  0.00  0.00    +0.046 C 
ATOM     26  C   UNL     1      -1.101  -0.677   0.386  0.00  0.00    -0.028 A 
ATOM     27  C   UNL     1      -1.099  -1.355  -0.818  0.00  0.00    +0.005 A 
ATOM     28  C   UNL     1       0.020  -2.067  -1.210  0.00  0.00    +0.002 A 
ATOM     29  C   UNL     1       1.140  -2.102  -0.399  0.00  0.00    +0.022 A 
ATOM     30  C   UNL     1       1.144  -1.426   0.806  0.00  0.00    +0.062 A 
ATOM     31  C   UNL     1       0.023  -0.705   1.200  0.00  0.00    +0.055 A 
ATOM     32 CL   UNL     1       2.550  -1.471   1.823  0.00  0.00    -0.082 Cl
ENDBRANCH  21  31
ENDBRANCH   1  22
TORSDOF 3
