REMARK  Name = CHEMBL45651
REMARK  9 active torsions:
REMARK  status: ('A' for Active; 'I' for Inactive)
REMARK    1  A    between atoms: C_1  and  N_2
REMARK    2  A    between atoms: N_5  and  C_8
REMARK    3  A    between atoms: C_11  and  N_14
REMARK    4  A    between atoms: C_17  and  C_19
REMARK    5  A    between atoms: C_22  and  N_27
REMARK    6  A    between atoms: C_23  and  O_25
REMARK    7  A    between atoms: O_25  and  C_26
REMARK    8  A    between atoms: N_30  and  C_31
REMARK    9  A    between atoms: C_37  and  N_41
REMARK                            x       y       z     vdW  Elec       q    Type
REMARK                         _______ _______ _______ _____ _____    ______ ____
ROOT
ATOM      1  N   UNL     1      -1.322  -7.800   2.333  0.00  0.00    -0.243 N 
ATOM      2  C   UNL     1      -1.595  -8.563   3.429  0.00  0.00    +0.164 A 
ATOM      3  C   UNL     1      -1.387  -9.904   3.057  0.00  0.00    +0.086 A 
ATOM      4  C   UNL     1      -0.970  -9.884   1.655  0.00  0.00    +0.105 A 
ATOM      5  N   UNL     1      -0.951  -8.630   1.270  0.00  0.00    -0.168 NA
ATOM      6  C   UNL     1      -1.601 -10.908   4.016  0.00  0.00    +0.131 A 
ATOM      7  N   UNL     1      -1.991 -10.544   5.234  0.00  0.00    -0.220 NA
ATOM      8  C   UNL     1      -2.174  -9.272   5.540  0.00  0.00    +0.225 A 
ATOM      9  N   UNL     1      -1.986  -8.299   4.676  0.00  0.00    -0.216 NA
ENDROOT
BRANCH   1  13
ATOM     10  C   UNL     1      -1.156  -3.826   0.791  0.00  0.00    +0.057 C 
ATOM     11  C   UNL     1      -2.525  -4.406   1.152  0.00  0.00    +0.021 C 
ATOM     12  C   UNL     1      -2.433  -5.932   1.212  0.00  0.00    +0.028 C 
ATOM     13  C   UNL     1      -1.410  -6.339   2.275  0.00  0.00    +0.110 C 
ATOM     14  C   UNL     1      -0.041  -5.760   1.914  0.00  0.00    +0.028 C 
ATOM     15  C   UNL     1      -0.133  -4.234   1.853  0.00  0.00    +0.021 C 
BRANCH  10  20
ATOM     16  C   UNL     1      -1.113   1.644  -0.558  0.00  0.00    -0.096 C 
ATOM     17  N   UNL     1      -1.008   0.179  -0.553  0.00  0.00    +0.379 N 
ATOM     18  C   UNL     1      -2.325  -0.405  -0.267  0.00  0.00    -0.064 C 
ATOM     19  C   UNL     1      -2.219  -1.932  -0.280  0.00  0.00    +0.066 C 
ATOM     20  N   UNL     1      -1.244  -2.361   0.733  0.00  0.00    -0.303 NA
ATOM     21  C   UNL     1       0.074  -1.764   0.474  0.00  0.00    +0.066 C 
ATOM     22  C   UNL     1      -0.051  -0.238   0.480  0.00  0.00    -0.064 C 
ATOM     23  H   UNL     1      -0.688  -0.138  -1.455  0.00  0.00    -0.082 HD
ENDBRANCH  10  20
ENDBRANCH   1  13
BRANCH   4  24
ATOM     24  C   UNL     1      -0.636 -11.064   0.822  0.00  0.00    +0.006 A 
ATOM     25  C   UNL     1      -1.462 -12.187   0.839  0.00  0.00    +0.012 A 
ATOM     26  C   UNL     1      -1.151 -13.285   0.064  0.00  0.00    +0.028 A 
ATOM     27  C   UNL     1      -0.016 -13.275  -0.735  0.00  0.00    +0.077 A 
ATOM     28  C   UNL     1       0.814 -12.154  -0.755  0.00  0.00    +0.142 A 
ATOM     29  C   UNL     1       0.502 -11.050   0.016  0.00  0.00    +0.057 A 
BRANCH  27  30
ATOM     30  N   UNL     1       0.297 -14.392  -1.520  0.00  0.00    -0.266 N 
ATOM     31  C   UNL     1      -0.689 -15.151  -2.035  0.00  0.00    +0.308 C 
ATOM     32  O   UNL     1      -1.851 -14.822  -1.887  0.00  0.00    -0.252 OA
ATOM     33  N   UNL     1      -0.389 -16.276  -2.715  0.00  0.00    -0.269 N 
ATOM     34  H   UNL     1       1.225 -14.618  -1.692  0.00  0.00    +0.156 HD
ATOM     35  H   UNL     1       0.537 -16.501  -2.894  0.00  0.00    +0.156 HD
BRANCH  33  36
ATOM     36  C   UNL     1      -1.414 -17.118  -3.161  0.00  0.00    +0.035 A 
ATOM     37  C   UNL     1      -2.619 -16.579  -3.593  0.00  0.00    +0.023 A 
ATOM     38  C   UNL     1      -3.628 -17.413  -4.034  0.00  0.00    +0.002 A 
ATOM     39  C   UNL     1      -3.439 -18.783  -4.044  0.00  0.00    +0.000 A 
ATOM     40  C   UNL     1      -2.241 -19.323  -3.614  0.00  0.00    +0.002 A 
ATOM     41  C   UNL     1      -1.226 -18.494  -3.178  0.00  0.00    +0.023 A 
ENDBRANCH  33  36
ENDBRANCH  27  30
BRANCH  28  42
ATOM     42  O   UNL     1       1.926 -12.146  -1.538  0.00  0.00    -0.493 OA
ATOM     43  C   UNL     1       2.730 -10.965  -1.510  0.00  0.00    +0.277 C 
ENDBRANCH  28  42
ENDBRANCH   4  24
BRANCH   6  44
ATOM     44  N   UNL     1      -1.411 -12.239   3.701  0.00  0.00    -0.342 N 
ATOM     45  H   UNL     1      -0.999 -12.485   2.858  0.00  0.00    +0.144 HD
ATOM     46  H   UNL     1      -1.691 -12.929   4.323  0.00  0.00    +0.144 HD
ENDBRANCH   6  44
TORSDOF 7
