REMARK  Name = CHEMBL219103
REMARK  7 active torsions:
REMARK  status: ('A' for Active; 'I' for Inactive)
REMARK    1  A    between atoms: C_1  and  C_2
REMARK    2  A    between atoms: C_5  and  C_17
REMARK    3  A    between atoms: C_7  and  C_8
REMARK    4  A    between atoms: C_9  and  C_10
REMARK    5  A    between atoms: N_19  and  C_20
REMARK    6  A    between atoms: C_22  and  C_32
REMARK    7  A    between atoms: C_25  and  N_26
REMARK                            x       y       z     vdW  Elec       q    Type
REMARK                         _______ _______ _______ _____ _____    ______ ____
ROOT
ATOM      1  C   UNL     1       0.063  -4.262  -0.037  0.00  0.00    +0.248 C 
ATOM      2  O   UNL     1       0.071  -4.884   1.007  0.00  0.00    -0.270 OA
ATOM      3  N   UNL     1       0.062  -4.919  -1.214  0.00  0.00    -0.280 N 
ATOM      4  H   UNL     1      -0.025  -4.426  -2.045  0.00  0.00    +0.155 HD
ENDROOT
BRANCH   1   9
ATOM      5  C   UNL     1       0.032   1.504   0.009  0.00  0.00    +0.045 C 
ATOM      6  C   UNL     1       0.040  -0.003   0.001  0.00  0.00    -0.035 A 
ATOM      7  C   UNL     1       0.040  -0.686  -1.199  0.00  0.00    +0.005 A 
ATOM      8  C   UNL     1       0.048  -2.067  -1.216  0.00  0.00    +0.013 A 
ATOM      9  C   UNL     1       0.056  -2.783  -0.017  0.00  0.00    +0.038 A 
ATOM     10  C   UNL     1       0.057  -2.102   1.198  0.00  0.00    +0.030 A 
ATOM     11  C   UNL     1       0.054  -0.707   1.208  0.00  0.00    +0.029 A 
BRANCH  11  12
ATOM     12  C   UNL     1       0.060   0.002   2.453  0.00  0.00    -0.061 C 
ATOM     13  C   UNL     1       0.065   0.583   3.473  0.00  0.00    -0.058 C 
BRANCH  13  14
ATOM     14  C   UNL     1       0.071   1.292   4.717  0.00  0.00    +0.062 A 
ATOM     15  C   UNL     1       0.058   2.693   4.746  0.00  0.00    +0.132 A 
ATOM     16  N   UNL     1       0.064   3.309   5.915  0.00  0.00    -0.222 NA
ATOM     17  C   UNL     1       0.082   2.620   7.047  0.00  0.00    +0.213 A 
ATOM     18  N   UNL     1       0.095   1.294   7.062  0.00  0.00    -0.222 NA
ATOM     19  C   UNL     1       0.085   0.603   5.937  0.00  0.00    +0.132 A 
ATOM     20  N   UNL     1       0.088   3.305   8.249  0.00  0.00    -0.327 N 
ATOM     21  H   UNL     1       0.079   4.275   8.254  0.00  0.00    +0.145 HD
ATOM     22  H   UNL     1       0.101   2.815   9.086  0.00  0.00    +0.145 HD
ENDBRANCH  13  14
ENDBRANCH  11  12
ENDBRANCH   1   9
BRANCH   3  23
ATOM     23  C   UNL     1       0.186  -6.314  -1.236  0.00  0.00    +0.055 A 
ATOM     24  C   UNL     1       0.806  -6.975  -0.186  0.00  0.00    +0.037 A 
ATOM     25  C   UNL     1       0.928  -8.351  -0.210  0.00  0.00    +0.057 A 
ATOM     26  C   UNL     1       0.433  -9.074  -1.280  0.00  0.00    +0.014 A 
ATOM     27  C   UNL     1      -0.186  -8.425  -2.332  0.00  0.00    +0.025 A 
ATOM     28  C   UNL     1      -0.318  -7.044  -2.313  0.00  0.00    +0.051 A 
BRANCH  28  29
ATOM     29  N   UNL     1      -0.949  -6.385  -3.373  0.00  0.00    -0.328 N 
ATOM     30  C   UNL     1      -0.177  -5.928  -4.537  0.00  0.00    +0.105 C 
ATOM     31  C   UNL     1      -0.824  -6.488  -5.808  0.00  0.00    +0.019 C 
ATOM     32  C   UNL     1      -2.302  -6.092  -5.840  0.00  0.00    +0.003 C 
ATOM     33  C   UNL     1      -3.019  -6.692  -4.628  0.00  0.00    +0.019 C 
ATOM     34  C   UNL     1      -2.398  -6.141  -3.346  0.00  0.00    +0.105 C 
ENDBRANCH  28  29
BRANCH  25  35
ATOM     35  C   UNL     1       1.602  -9.066   0.932  0.00  0.00    +0.417 C 
ATOM     36  F   UNL     1       0.649  -9.402   1.900  0.00  0.00    -0.166 F 
ATOM     37  F   UNL     1       2.214 -10.232   0.457  0.00  0.00    -0.166 F 
ATOM     38  F   UNL     1       2.569  -8.230   1.500  0.00  0.00    -0.166 F 
ENDBRANCH  25  35
ENDBRANCH   3  23
TORSDOF 6
