REMARK  Name = CHEMBL376475
REMARK  7 active torsions:
REMARK  status: ('A' for Active; 'I' for Inactive)
REMARK    1  A    between atoms: C_1  and  N_2
REMARK    2  A    between atoms: N_5  and  C_8
REMARK    3  A    between atoms: C_11  and  C_33
REMARK    4  A    between atoms: C_13  and  N_14
REMARK    5  A    between atoms: C_15  and  C_17
REMARK    6  A    between atoms: C_19  and  C_24
REMARK    7  A    between atoms: C_25  and  C_26
REMARK                            x       y       z     vdW  Elec       q    Type
REMARK                         _______ _______ _______ _____ _____    ______ ____
ROOT
ATOM      1  N   UNL     1      -1.869  -1.972   3.321  0.00  0.00    -0.280 N 
ATOM      2  C   UNL     1      -2.047  -1.645   4.616  0.00  0.00    +0.251 C 
ATOM      3  O   UNL     1      -1.928  -2.493   5.479  0.00  0.00    -0.270 OA
ATOM      4  H   UNL     1      -1.884  -1.282   2.639  0.00  0.00    +0.155 HD
ENDROOT
BRANCH   2   5
ATOM      5  C   UNL     1      -2.388  -0.256   4.986  0.00  0.00    +0.073 A 
ATOM      6  C   UNL     1      -2.531   0.716   3.997  0.00  0.00    +0.032 A 
ATOM      7  C   UNL     1      -2.852   2.024   4.356  0.00  0.00    +0.026 A 
ATOM      8  C   UNL     1      -3.030   2.354   5.704  0.00  0.00    +0.019 A 
ATOM      9  C   UNL     1      -2.887   1.389   6.678  0.00  0.00    +0.040 A 
ATOM     10  C   UNL     1      -2.574   0.086   6.330  0.00  0.00    +0.136 A 
ATOM     11  F   UNL     1      -2.442  -0.856   7.290  0.00  0.00    -0.205 F 
BRANCH   7  12
ATOM     12  C   UNL     1      -3.001   3.028   3.346  0.00  0.00    -0.061 C 
ATOM     13  C   UNL     1      -3.122   3.852   2.518  0.00  0.00    -0.058 C 
BRANCH  13  14
ATOM     14  C   UNL     1      -3.270   4.856   1.508  0.00  0.00    +0.062 A 
ATOM     15  C   UNL     1      -3.102   4.544   0.153  0.00  0.00    +0.132 A 
ATOM     16  N   UNL     1      -3.247   5.499  -0.747  0.00  0.00    -0.222 NA
ATOM     17  C   UNL     1      -3.548   6.738  -0.383  0.00  0.00    +0.213 A 
ATOM     18  N   UNL     1      -3.715   7.074   0.888  0.00  0.00    -0.222 NA
ATOM     19  C   UNL     1      -3.593   6.177   1.849  0.00  0.00    +0.132 A 
ATOM     20  N   UNL     1      -3.691   7.708  -1.358  0.00  0.00    -0.327 N 
ATOM     21  H   UNL     1      -3.571   7.478  -2.293  0.00  0.00    +0.145 HD
ATOM     22  H   UNL     1      -3.911   8.619  -1.108  0.00  0.00    +0.145 HD
ENDBRANCH  13  14
ENDBRANCH   7  12
ENDBRANCH   2   5
BRANCH   1  28
ATOM     23  C   UNL     1      -0.987  -3.618   1.776  0.00  0.00    +0.051 A 
ATOM     24  C   UNL     1      -0.779  -4.944   1.427  0.00  0.00    +0.025 A 
ATOM     25  C   UNL     1      -1.244  -5.955   2.246  0.00  0.00    +0.014 A 
ATOM     26  C   UNL     1      -1.916  -5.650   3.416  0.00  0.00    +0.057 A 
ATOM     27  C   UNL     1      -2.127  -4.331   3.772  0.00  0.00    +0.037 A 
ATOM     28  C   UNL     1      -1.660  -3.310   2.958  0.00  0.00    +0.055 A 
BRANCH  23  33
ATOM     29  C   UNL     1       0.009   1.452   0.012  0.00  0.00    -0.096 C 
ATOM     30  N   UNL     1       0.017  -0.017   0.003  0.00  0.00    +0.380 N 
ATOM     31  C   UNL     1      -1.366  -0.512   0.003  0.00  0.00    -0.060 C 
ATOM     32  C   UNL     1      -1.360  -2.039  -0.123  0.00  0.00    +0.086 C 
ATOM     33  N   UNL     1      -0.518  -2.592   0.949  0.00  0.00    -0.332 N 
ATOM     34  C   UNL     1       0.833  -2.035   1.126  0.00  0.00    +0.086 C 
ATOM     35  C   UNL     1       0.724  -0.508   1.192  0.00  0.00    -0.060 C 
ATOM     36  H   UNL     1       0.489  -0.344  -0.827  0.00  0.00    -0.082 HD
ENDBRANCH  23  33
BRANCH  26  37
ATOM     37  C   UNL     1      -2.420  -6.758   4.304  0.00  0.00    +0.417 C 
ATOM     38  F   UNL     1      -2.090  -7.995   3.739  0.00  0.00    -0.166 F 
ATOM     39  F   UNL     1      -1.827  -6.649   5.567  0.00  0.00    -0.166 F 
ATOM     40  F   UNL     1      -3.809  -6.659   4.430  0.00  0.00    -0.166 F 
ENDBRANCH  26  37
ENDBRANCH   1  28
TORSDOF 6
