REMARK  Name = CHEMBL567241
REMARK  5 active torsions:
REMARK  status: ('A' for Active; 'I' for Inactive)
REMARK    1  A    between atoms: C_1  and  N_2
REMARK    2  A    between atoms: C_7  and  C_8
REMARK    3  A    between atoms: C_8  and  N_9
REMARK    4  A    between atoms: C_14  and  N_16
REMARK    5  A    between atoms: C_25  and  C_27
REMARK                            x       y       z     vdW  Elec       q    Type
REMARK                         _______ _______ _______ _____ _____    ______ ____
ROOT
ATOM      1  C   UNL     1       0.139   0.614  -0.422  0.00  0.00    +0.105 C 
ATOM      2  N   UNL     1      -0.140  -0.818  -0.252  0.00  0.00    -0.298 NA
ATOM      3  C   UNL     1      -1.586  -1.067  -0.179  0.00  0.00    +0.103 C 
ATOM      4  C   UNL     1      -2.168  -0.327   1.030  0.00  0.00    +0.123 C 
ATOM      5  N   UNL     1      -1.408  -0.717   2.227  0.00  0.00    -0.295 N 
ATOM      6  C   UNL     1       0.059  -0.624   2.181  0.00  0.00    +0.128 C 
ATOM      7  C   UNL     1       0.553  -1.353   0.927  0.00  0.00    +0.091 C 
ATOM      8  C   UNL     1      -2.039  -1.148   3.337  0.00  0.00    +0.247 C 
ATOM      9  O   UNL     1      -3.254  -1.159   3.380  0.00  0.00    -0.270 OA
ENDROOT
BRANCH   8  10
ATOM     10  C   UNL     1      -1.254  -1.607   4.502  0.00  0.00    +0.037 A 
ATOM     11  C   UNL     1      -0.201  -0.814   4.990  0.00  0.00    +0.013 A 
ATOM     12  C   UNL     1       0.535  -1.213   6.059  0.00  0.00    +0.009 A 
ATOM     13  C   UNL     1       0.247  -2.436   6.693  0.00  0.00    -0.018 A 
ATOM     14  C   UNL     1       0.995  -2.871   7.801  0.00  0.00    +0.008 A 
ATOM     15  C   UNL     1       0.693  -4.059   8.394  0.00  0.00    +0.001 A 
ATOM     16  C   UNL     1      -0.348  -4.854   7.919  0.00  0.00    +0.001 A 
ATOM     17  C   UNL     1      -1.094  -4.466   6.849  0.00  0.00    +0.008 A 
ATOM     18  C   UNL     1      -0.812  -3.245   6.210  0.00  0.00    -0.017 A 
ATOM     19  C   UNL     1      -1.565  -2.813   5.109  0.00  0.00    +0.021 A 
ENDBRANCH   8  10
BRANCH   7  20
ATOM     20  C   UNL     1       2.061  -1.140   0.773  0.00  0.00    +0.124 C 
BRANCH  20  21
ATOM     21  N   UNL     1       2.511  -1.732  -0.489  0.00  0.00    -0.312 N 
ATOM     22  C   UNL     1       3.846  -1.664  -0.848  0.00  0.00    +0.217 A 
ATOM     23  N   UNL     1       4.704  -1.063  -0.036  0.00  0.00    -0.223 NA
ATOM     24  C   UNL     1       5.988  -0.978  -0.345  0.00  0.00    +0.118 A 
ATOM     25  C   UNL     1       6.435  -1.526  -1.534  0.00  0.00    +0.066 A 
ATOM     26  C   UNL     1       5.509  -2.151  -2.367  0.00  0.00    +0.144 A 
ATOM     27  N   UNL     1       4.236  -2.205  -1.992  0.00  0.00    -0.197 NA
ATOM     28  H   UNL     1       1.874  -2.173  -1.073  0.00  0.00    +0.149 HD
BRANCH  26  29
ATOM     29  N   UNL     1       5.914  -2.717  -3.575  0.00  0.00    -0.283 N 
ATOM     30  C   UNL     1       7.185  -2.741  -4.071  0.00  0.00    +0.206 A 
ATOM     31  N   UNL     1       7.203  -3.349  -5.221  0.00  0.00    -0.235 NA
ATOM     32  C   UNL     1       5.948  -3.758  -5.543  0.00  0.00    +0.089 A 
ATOM     33  C   UNL     1       5.104  -3.364  -4.491  0.00  0.00    +0.075 A 
ATOM     34  C   UNL     1       3.749  -3.656  -4.544  0.00  0.00    +0.028 A 
ATOM     35  C   UNL     1       3.235  -4.335  -5.628  0.00  0.00    +0.002 A 
ATOM     36  C   UNL     1       4.065  -4.729  -6.668  0.00  0.00    +0.002 A 
ATOM     37  C   UNL     1       5.410  -4.441  -6.636  0.00  0.00    +0.030 A 
ENDBRANCH  26  29
ENDBRANCH  20  21
ENDBRANCH   7  20
TORSDOF 4
