REMARK  Name = CHEMBL187120
REMARK  5 active torsions:
REMARK  status: ('A' for Active; 'I' for Inactive)
REMARK    1  A    between atoms: C_1  and  C_2
REMARK    2  A    between atoms: C_7  and  N_8
REMARK    3  A    between atoms: C_17  and  C_18
REMARK    4  A    between atoms: N_19  and  C_23
REMARK    5  A    between atoms: C_21  and  C_22
REMARK                            x       y       z     vdW  Elec       q    Type
REMARK                         _______ _______ _______ _____ _____    ______ ____
ROOT
ATOM      1  N   UNL     1       0.377  -0.747   2.585  0.00  0.00    -0.229 NA
ATOM      2  C   UNL     1      -0.785  -0.383   3.084  0.00  0.00    +0.145 C 
ATOM      3  N   UNL     1      -0.951   0.243   4.327  0.00  0.00    -0.316 N 
ATOM      4  C   UNL     1      -1.945  -0.271   5.255  0.00  0.00    +0.160 C 
ATOM      5  C   UNL     1      -3.262  -0.720   4.621  0.00  0.00    +0.219 C 
ATOM      6  N   UNL     1      -3.239  -0.706   3.165  0.00  0.00    -0.303 N 
ATOM      7  C   UNL     1      -2.080  -0.577   2.404  0.00  0.00    +0.103 A 
ATOM      8  C   UNL     1      -2.428  -0.662   1.109  0.00  0.00    +0.142 A 
ATOM      9  N   UNL     1      -3.761  -0.797   1.063  0.00  0.00    -0.240 NA
ATOM     10  C   UNL     1      -4.247  -0.822   2.289  0.00  0.00    +0.109 A 
ATOM     11  C   UNL     1      -5.706  -0.943   2.648  0.00  0.00    +0.086 C 
ATOM     12  N   UNL     1      -3.401  -2.114   5.086  0.00  0.00    -0.234 N 
ATOM     13  N   UNL     1      -2.272  -2.447   5.832  0.00  0.00    -0.190 NA
ATOM     14  C   UNL     1      -1.433  -1.501   5.966  0.00  0.00    +0.057 C 
ATOM     15  C   UNL     1      -0.129  -1.593   6.716  0.00  0.00    +0.064 C 
ATOM     16  C   UNL     1      -4.535  -2.999   4.810  0.00  0.00    +0.154 C 
ATOM     17  H   UNL     1      -0.407   1.010   4.566  0.00  0.00    +0.148 HD
ENDROOT
BRANCH   1  24
ATOM     18  C   UNL     1       0.670   0.928   0.308  0.00  0.00    +0.046 C 
ATOM     19  C   UNL     1       0.580  -0.573   0.204  0.00  0.00    -0.024 A 
ATOM     20  C   UNL     1       0.645  -1.186  -1.030  0.00  0.00    +0.005 A 
ATOM     21  C   UNL     1       0.562  -2.563  -1.128  0.00  0.00    +0.002 A 
ATOM     22  C   UNL     1       0.414  -3.337   0.010  0.00  0.00    +0.022 A 
ATOM     23  C   UNL     1       0.348  -2.738   1.251  0.00  0.00    +0.067 A 
ATOM     24  C   UNL     1       0.436  -1.347   1.358  0.00  0.00    +0.087 A 
ATOM     25 CL   UNL     1       0.162  -3.711   2.678  0.00  0.00    -0.081 Cl
ENDBRANCH   1  24
TORSDOF 1
