REMARK  Name = CHEMBL49860
REMARK  13 active torsions:
REMARK  status: ('A' for Active; 'I' for Inactive)
REMARK    1  A    between atoms: C_3  and  O_31
REMARK    2  A    between atoms: C_4  and  N_30
REMARK    3  A    between atoms: C_6  and  C_7
REMARK    4  A    between atoms: C_7  and  C_8
REMARK    5  A    between atoms: C_8  and  C_9
REMARK    6  A    between atoms: C_8  and  N_29
REMARK    7  A    between atoms: N_11  and  C_12
REMARK    8  A    between atoms: C_12  and  C_18
REMARK    9  A    between atoms: N_20  and  C_21
REMARK   10  A    between atoms: C_21  and  C_22
REMARK   11  A    between atoms: C_21  and  C_26
REMARK   12  A    between atoms: C_22  and  C_23
REMARK   13  A    between atoms: O_31  and  P_32
REMARK                            x       y       z     vdW  Elec       q    Type
REMARK                         _______ _______ _______ _____ _____    ______ ____
ROOT
ATOM      1  C   UNL     1      -2.838  -1.996  -1.574  0.00  0.00    +0.231 C 
ATOM      2  O   UNL     1      -3.900  -1.450  -1.788  0.00  0.00    -0.274 OA
ATOM      3  N   UNL     1      -2.802  -3.315  -1.298  0.00  0.00    -0.300 N 
ATOM      4  H   UNL     1      -1.949  -3.767  -1.198  0.00  0.00    +0.150 HD
ENDROOT
BRANCH   3   5
ATOM      5  C   UNL     1      -4.051  -4.066  -1.147  0.00  0.00    +0.111 C 
ATOM      6  C   UNL     1      -4.890  -3.442  -0.031  0.00  0.00    +0.035 C 
ATOM      7  C   UNL     1      -4.107  -3.488   1.282  0.00  0.00    +0.003 C 
ATOM      8  C   UNL     1      -3.788  -4.941   1.636  0.00  0.00    +0.000 C 
ATOM      9  C   UNL     1      -2.948  -5.566   0.520  0.00  0.00    +0.003 C 
ATOM     10  C   UNL     1      -3.732  -5.520  -0.794  0.00  0.00    +0.035 C 
BRANCH   5  11
ATOM     11  C   UNL     1      -4.822  -4.022  -2.441  0.00  0.00    +0.237 C 
ATOM     12  O   UNL     1      -6.034  -3.969  -2.423  0.00  0.00    -0.273 OA
ATOM     13  N   UNL     1      -4.166  -4.041  -3.618  0.00  0.00    -0.302 N 
ATOM     14  H   UNL     1      -3.197  -4.011  -3.634  0.00  0.00    +0.150 HD
BRANCH  13  15
ATOM     15  C   UNL     1      -4.917  -4.106  -4.874  0.00  0.00    +0.167 C 
BRANCH  15  16
ATOM     16  C   UNL     1      -5.236  -5.544  -5.194  0.00  0.00    +0.231 C 
ATOM     17  O   UNL     1      -4.872  -6.427  -4.446  0.00  0.00    -0.274 OA
ATOM     18  N   UNL     1      -5.926  -5.849  -6.311  0.00  0.00    -0.328 N 
ATOM     19  H   UNL     1      -6.217  -5.143  -6.909  0.00  0.00    +0.145 HD
ATOM     20  H   UNL     1      -6.132  -6.774  -6.517  0.00  0.00    +0.145 HD
ENDBRANCH  15  16
BRANCH  15  21
ATOM     21  C   UNL     1      -4.075  -3.508  -6.003  0.00  0.00    +0.127 C 
BRANCH  21  22
ATOM     22  C   UNL     1      -3.860  -2.039  -5.744  0.00  0.00    +0.213 C 
ATOM     23  O   UNL     1      -4.332  -1.522  -4.754  0.00  0.00    -0.276 OA
ATOM     24  N   UNL     1      -3.142  -1.300  -6.613  0.00  0.00    -0.329 N 
ATOM     25  H   UNL     1      -2.764  -1.713  -7.405  0.00  0.00    +0.145 HD
ATOM     26  H   UNL     1      -3.003  -0.354  -6.446  0.00  0.00    +0.145 HD
ENDBRANCH  21  22
ENDBRANCH  15  21
ENDBRANCH  13  15
ENDBRANCH   5  11
ENDBRANCH   3   5
BRANCH   1  27
ATOM     27  C   UNL     1      -1.559  -1.200  -1.618  0.00  0.00    +0.142 C 
BRANCH  27  28
ATOM     28  N   UNL     1      -1.778   0.036  -2.380  0.00  0.00    -0.320 NA
ATOM     29  H   UNL     1      -2.001  -0.168  -3.343  0.00  0.00    +0.119 HD
ATOM     30  H   UNL     1      -2.496   0.601  -1.954  0.00  0.00    +0.119 HD
ENDBRANCH  27  28
BRANCH  27  31
ATOM     31  C   UNL     1      -1.127  -0.851  -0.192  0.00  0.00    +0.063 C 
BRANCH  31  37
ATOM     32  C   UNL     1       0.278   1.214  -0.339  0.00  0.00    +0.007 A 
ATOM     33  C   UNL     1       1.505   1.851  -0.371  0.00  0.00    +0.048 A 
ATOM     34  C   UNL     1       2.673   1.111  -0.293  0.00  0.00    +0.153 A 
ATOM     35  C   UNL     1       2.608  -0.277  -0.182  0.00  0.00    +0.068 A 
ATOM     36  C   UNL     1       1.374  -0.909  -0.149  0.00  0.00    +0.030 A 
ATOM     37  C   UNL     1       0.213  -0.162  -0.228  0.00  0.00    -0.043 A 
BRANCH  35  38
ATOM     38  N   UNL     1       3.785  -1.030  -0.103  0.00  0.00    -0.355 N 
ATOM     39  H   UNL     1       4.647  -0.586  -0.127  0.00  0.00    +0.142 HD
ATOM     40  H   UNL     1       3.738  -1.996  -0.025  0.00  0.00    +0.142 HD
ENDBRANCH  35  38
BRANCH  34  41
ATOM     41  O   UNL     1       3.880   1.737  -0.327  0.00  0.00    -0.399 OA
BRANCH  41  42
ATOM     42  P   UNL     1       4.265   2.490   1.043  0.00  0.00    +0.589 P 
ATOM     43  O   UNL     1       3.123   3.492   1.427  0.00  0.00    -0.211 OA
ATOM     44  O   UNL     1       4.440   1.435   2.188  0.00  0.00    -0.104 OA
ATOM     45  O   UNL     1       5.606   3.276   0.848  0.00  0.00    -0.104 OA
ENDBRANCH  41  42
ENDBRANCH  34  41
ENDBRANCH  31  37
ENDBRANCH  27  31
ENDBRANCH   1  27
TORSDOF 13
