REMARK  Name = CHEMBL572197
REMARK  7 active torsions:
REMARK  status: ('A' for Active; 'I' for Inactive)
REMARK    1  A    between atoms: C_1  and  C_2
REMARK    2  A    between atoms: C_2  and  C_4
REMARK    3  A    between atoms: C_2  and  N_25
REMARK    4  A    between atoms: N_10  and  C_11
REMARK    5  A    between atoms: N_14  and  C_15
REMARK    6  A    between atoms: C_30  and  N_32
REMARK    7  A    between atoms: C_39  and  C_41
REMARK                            x       y       z     vdW  Elec       q    Type
REMARK                         _______ _______ _______ _____ _____    ______ ____
ROOT
ATOM      1  C   UNL     1       1.137   0.156   1.609  0.00  0.00    +0.026 C 
ATOM      2  C   UNL     1       0.470   0.710   0.348  0.00  0.00    +0.058 C 
ENDROOT
BRANCH   2   3
ATOM      3  C   UNL     1       1.096   0.059  -0.887  0.00  0.00    -0.031 C 
ATOM      4  C   UNL     1       2.572   0.457  -0.983  0.00  0.00    +0.096 C 
ATOM      5  N   UNL     1       3.117  -0.071  -2.243  0.00  0.00    -0.289 N 
ATOM      6  C   UNL     1       2.378   0.200  -3.486  0.00  0.00    +0.091 C 
ATOM      7  C   UNL     1       0.910  -0.186  -3.272  0.00  0.00    -0.059 C 
ATOM      8  N   UNL     1       0.388   0.513  -2.091  0.00  0.00    +0.383 N 
ATOM      9  C   UNL     1       0.584   1.960  -2.255  0.00  0.00    -0.096 C 
ATOM     10  C   UNL     1       4.261  -0.783  -2.259  0.00  0.00    +0.306 C 
ATOM     11  O   UNL     1       4.809  -1.077  -1.214  0.00  0.00    -0.252 OA
ATOM     12  N   UNL     1       4.798  -1.170  -3.433  0.00  0.00    -0.269 N 
ATOM     13  H   UNL     1       4.399  -0.879  -4.268  0.00  0.00    +0.156 HD
ATOM     14  H   UNL     1      -0.597   0.318  -1.995  0.00  0.00    -0.082 HD
BRANCH  12  15
ATOM     15  C   UNL     1       5.929  -1.989  -3.448  0.00  0.00    +0.042 A 
ATOM     16  C   UNL     1       6.276  -2.715  -2.329  0.00  0.00    +0.024 A 
ATOM     17  C   UNL     1       7.402  -3.533  -2.333  0.00  0.00    +0.002 A 
ATOM     18  C   UNL     1       8.190  -3.640  -3.438  0.00  0.00    +0.008 A 
ATOM     19  C   UNL     1       7.870  -2.917  -4.600  0.00  0.00    -0.016 A 
ATOM     20  C   UNL     1       6.724  -2.084  -4.610  0.00  0.00    +0.003 A 
ATOM     21  C   UNL     1       6.403  -1.367  -5.773  0.00  0.00    +0.010 A 
ATOM     22  C   UNL     1       7.192  -1.483  -6.876  0.00  0.00    +0.001 A 
ATOM     23  C   UNL     1       8.316  -2.307  -6.869  0.00  0.00    +0.001 A 
ATOM     24  C   UNL     1       8.665  -3.007  -5.756  0.00  0.00    +0.008 A 
ENDBRANCH  12  15
ENDBRANCH   2   3
BRANCH   2  25
ATOM     25  N   UNL     1      -0.964   0.413   0.384  0.00  0.00    -0.312 N 
ATOM     26  C   UNL     1      -1.829   1.260   1.053  0.00  0.00    +0.217 A 
ATOM     27  N   UNL     1      -1.344   2.338   1.652  0.00  0.00    -0.223 NA
ATOM     28  C   UNL     1      -2.142   3.171   2.302  0.00  0.00    +0.118 A 
ATOM     29  C   UNL     1      -3.498   2.908   2.353  0.00  0.00    +0.066 A 
ATOM     30  C   UNL     1      -3.979   1.766   1.714  0.00  0.00    +0.144 A 
ATOM     31  N   UNL     1      -3.123   0.976   1.075  0.00  0.00    -0.197 NA
ATOM     32  H   UNL     1      -1.306  -0.378  -0.062  0.00  0.00    +0.149 HD
BRANCH  30  33
ATOM     33  N   UNL     1      -5.338   1.460   1.739  0.00  0.00    -0.283 N 
ATOM     34  C   UNL     1      -6.320   2.189   2.346  0.00  0.00    +0.206 A 
ATOM     35  N   UNL     1      -7.473   1.615   2.172  0.00  0.00    -0.235 NA
ATOM     36  C   UNL     1      -7.315   0.479   1.443  0.00  0.00    +0.090 A 
ATOM     37  C   UNL     1      -5.944   0.366   1.149  0.00  0.00    +0.075 A 
ATOM     38  C   UNL     1      -5.477  -0.707   0.402  0.00  0.00    +0.029 A 
ATOM     39  C   UNL     1      -6.348  -1.655  -0.054  0.00  0.00    +0.010 A 
ATOM     40  C   UNL     1      -7.715  -1.557   0.226  0.00  0.00    -0.016 A 
ATOM     41  C   UNL     1      -8.199  -0.495   0.979  0.00  0.00    +0.038 A 
BRANCH  40  42
ATOM     42  C   UNL     1      -8.649  -2.594  -0.276  0.00  0.00    -0.015 A 
ATOM     43  C   UNL     1     -10.019  -2.513  -0.013  0.00  0.00    +0.028 A 
ATOM     44  C   UNL     1     -10.853  -3.499  -0.499  0.00  0.00    +0.111 A 
ATOM     45  N   UNL     1     -10.372  -4.507  -1.202  0.00  0.00    -0.263 NA
ATOM     46  C   UNL     1      -9.086  -4.621  -1.472  0.00  0.00    +0.111 A 
ATOM     47  C   UNL     1      -8.183  -3.676  -1.029  0.00  0.00    +0.028 A 
ENDBRANCH  40  42
ENDBRANCH  30  33
ENDBRANCH   2  25
TORSDOF 5
