REMARK  Name = CHEMBL240430
REMARK  10 active torsions:
REMARK  status: ('A' for Active; 'I' for Inactive)
REMARK    1  A    between atoms: C_4  and  C_7
REMARK    2  A    between atoms: C_9  and  N_31
REMARK    3  A    between atoms: C_15  and  C_16
REMARK    4  A    between atoms: C_19  and  O_22
REMARK    5  A    between atoms: O_22  and  C_23
REMARK    6  A    between atoms: C_23  and  C_24
REMARK    7  A    between atoms: C_24  and  N_25
REMARK    8  A    between atoms: N_31  and  C_32
REMARK    9  A    between atoms: C_32  and  C_33
REMARK   10  A    between atoms: C_33  and  N_34
REMARK                            x       y       z     vdW  Elec       q    Type
REMARK                         _______ _______ _______ _____ _____    ______ ____
ROOT
ATOM      1  C   UNL     1       2.881  -0.839   0.319  0.00  0.00    +0.039 A 
ATOM      2  C   UNL     1       3.255  -1.766  -0.759  0.00  0.00    +0.067 A 
ATOM      3  C   UNL     1       2.584  -2.305  -1.866  0.00  0.00    +0.042 A 
ATOM      4  C   UNL     1       3.287  -3.179  -2.691  0.00  0.00    +0.041 A 
ATOM      5  C   UNL     1       4.603  -3.478  -2.390  0.00  0.00    +0.087 A 
ATOM      6  N   UNL     1       5.208  -2.957  -1.341  0.00  0.00    -0.332 N 
ATOM      7  C   UNL     1       4.591  -2.118  -0.519  0.00  0.00    +0.209 A 
ATOM      8  O   UNL     1       4.990  -1.469   0.594  0.00  0.00    -0.438 OA
ATOM      9  C   UNL     1       3.999  -0.708   1.097  0.00  0.00    +0.146 A 
ATOM     10  H   UNL     1       6.132  -3.194  -1.166  0.00  0.00    +0.168 HD
ENDROOT
BRANCH   1  14
ATOM     11  C   UNL     1      -0.880   1.054   0.887  0.00  0.00    +0.000 A 
ATOM     12  C   UNL     1       0.228   1.811   0.550  0.00  0.00    +0.001 A 
ATOM     13  C   UNL     1       1.452   1.202   0.364  0.00  0.00    +0.008 A 
ATOM     14  C   UNL     1       1.571  -0.179   0.517  0.00  0.00    -0.014 A 
ATOM     15  C   UNL     1       0.450  -0.937   0.858  0.00  0.00    +0.008 A 
ATOM     16  C   UNL     1      -0.768  -0.316   1.041  0.00  0.00    +0.001 A 
ENDBRANCH   1  14
BRANCH   9  17
ATOM     17  C   UNL     1       4.101   0.135   2.303  0.00  0.00    +0.018 A 
ATOM     18  C   UNL     1       3.102   0.087   3.279  0.00  0.00    +0.015 A 
ATOM     19  C   UNL     1       3.202   0.876   4.404  0.00  0.00    +0.046 A 
ATOM     20  C   UNL     1       4.294   1.718   4.570  0.00  0.00    +0.120 A 
ATOM     21  C   UNL     1       5.290   1.769   3.603  0.00  0.00    +0.046 A 
ATOM     22  C   UNL     1       5.201   0.979   2.477  0.00  0.00    +0.015 A 
BRANCH  20  23
ATOM     23  O   UNL     1       4.388   2.495   5.680  0.00  0.00    -0.494 OA
BRANCH  23  24
ATOM     24  C   UNL     1       5.537   3.338   5.787  0.00  0.00    +0.210 C 
BRANCH  24  25
ATOM     25  C   UNL     1       5.468   4.131   7.094  0.00  0.00    -0.037 C 
BRANCH  25  26
ATOM     26  N   UNL     1       5.541   3.205   8.232  0.00  0.00    +0.385 N 
ATOM     27  C   UNL     1       5.332   3.949   9.483  0.00  0.00    -0.050 C 
ATOM     28  C   UNL     1       5.409   2.983  10.667  0.00  0.00    +0.141 C 
ATOM     29  O   UNL     1       6.677   2.321  10.655  0.00  0.00    -0.383 OA
ATOM     30  C   UNL     1       6.937   1.601   9.446  0.00  0.00    +0.141 C 
ATOM     31  C   UNL     1       6.863   2.565   8.259  0.00  0.00    -0.050 C 
ATOM     32  H   UNL     1       4.827   2.499   8.138  0.00  0.00    -0.081 HD
ENDBRANCH  25  26
ENDBRANCH  24  25
ENDBRANCH  23  24
ENDBRANCH  20  23
ENDBRANCH   9  17
BRANCH   3  33
ATOM     33  N   UNL     1       1.260  -1.977  -2.132  0.00  0.00    -0.342 N 
ATOM     34  H   UNL     1       0.784  -1.366  -1.547  0.00  0.00    +0.146 HD
BRANCH  33  35
ATOM     35  C   UNL     1       0.582  -2.553  -3.296  0.00  0.00    +0.117 C 
BRANCH  35  36
ATOM     36  C   UNL     1      -0.856  -2.033  -3.358  0.00  0.00    +0.103 C 
BRANCH  36  37
ATOM     37  N   UNL     1      -1.536  -2.611  -4.525  0.00  0.00    -0.304 NA
ATOM     38  C   UNL     1      -1.701  -4.064  -4.372  0.00  0.00    +0.065 C 
ATOM     39  C   UNL     1      -2.358  -4.635  -5.631  0.00  0.00    -0.067 C 
ATOM     40  N   UNL     1      -3.664  -3.994  -5.835  0.00  0.00    +0.381 N 
ATOM     41  C   UNL     1      -3.480  -2.548  -6.010  0.00  0.00    -0.067 C 
ATOM     42  C   UNL     1      -2.833  -1.960  -4.755  0.00  0.00    +0.065 C 
ATOM     43  H   UNL     1      -4.102  -4.380  -6.658  0.00  0.00    -0.086 HD
ATOM     44  H   UNL     1      -4.251  -4.164  -5.032  0.00  0.00    -0.086 HD
ENDBRANCH  36  37
ENDBRANCH  35  36
ENDBRANCH  33  35
ENDBRANCH   3  33
TORSDOF 10
