REMARK  Name = CHEMBL187120
REMARK  5 active torsions:
REMARK  status: ('A' for Active; 'I' for Inactive)
REMARK    1  A    between atoms: C_1  and  C_2
REMARK    2  A    between atoms: C_7  and  N_8
REMARK    3  A    between atoms: C_17  and  C_18
REMARK    4  A    between atoms: N_19  and  C_23
REMARK    5  A    between atoms: C_21  and  C_22
REMARK                            x       y       z     vdW  Elec       q    Type
REMARK                         _______ _______ _______ _____ _____    ______ ____
ROOT
ATOM      1  N   UNL     1       0.084   0.152   2.375  0.00  0.00    -0.229 NA
ATOM      2  C   UNL     1      -1.064   0.416   2.960  0.00  0.00    +0.145 C 
ATOM      3  N   UNL     1      -2.308   0.007   2.420  0.00  0.00    -0.316 N 
ATOM      4  C   UNL     1      -3.313  -0.223   3.433  0.00  0.00    +0.160 C 
ATOM      5  C   UNL     1      -3.605   1.138   4.145  0.00  0.00    +0.218 C 
ATOM      6  N   UNL     1      -2.384   1.492   4.820  0.00  0.00    -0.304 N 
ATOM      7  C   UNL     1      -1.155   1.155   4.235  0.00  0.00    +0.101 A 
ATOM      8  C   UNL     1      -0.197   1.634   5.054  0.00  0.00    +0.113 A 
ATOM      9  N   UNL     1      -0.805   2.207   6.101  0.00  0.00    -0.349 N 
ATOM     10  C   UNL     1      -2.108   2.122   5.960  0.00  0.00    +0.086 A 
ATOM     11  C   UNL     1      -3.128   2.641   6.940  0.00  0.00    +0.084 C 
ATOM     12  N   UNL     1      -4.788   0.714   4.886  0.00  0.00    -0.234 N 
ATOM     13  N   UNL     1      -5.491  -0.096   3.950  0.00  0.00    -0.190 NA
ATOM     14  C   UNL     1      -4.697  -0.648   3.083  0.00  0.00    +0.057 C 
ATOM     15  C   UNL     1      -5.100  -1.546   1.941  0.00  0.00    +0.064 C 
ATOM     16  C   UNL     1      -5.163   1.043   6.263  0.00  0.00    +0.154 C 
ATOM     17  H   UNL     1      -2.469  -0.105   1.470  0.00  0.00    +0.148 HD
ATOM     18  H   UNL     1      -0.351   2.628   6.848  0.00  0.00    +0.166 HD
ENDROOT
BRANCH   1  25
ATOM     19  C   UNL     1      -0.043   1.654  -0.034  0.00  0.00    +0.046 C 
ATOM     20  C   UNL     1       0.047   0.150  -0.021  0.00  0.00    -0.024 A 
ATOM     21  C   UNL     1       0.076  -0.552  -1.208  0.00  0.00    +0.005 A 
ATOM     22  C   UNL     1       0.159  -1.933  -1.199  0.00  0.00    +0.002 A 
ATOM     23  C   UNL     1       0.213  -2.621   0.001  0.00  0.00    +0.022 A 
ATOM     24  C   UNL     1       0.185  -1.933   1.197  0.00  0.00    +0.067 A 
ATOM     25  C   UNL     1       0.107  -0.537   1.194  0.00  0.00    +0.087 A 
ATOM     26 CL   UNL     1       0.253  -2.798   2.700  0.00  0.00    -0.081 Cl
ENDBRANCH   1  25
TORSDOF 1
