REMARK  Name = CHEMBL107183
REMARK  5 active torsions:
REMARK  status: ('A' for Active; 'I' for Inactive)
REMARK    1  A    between atoms: C_1  and  C_2
REMARK    2  A    between atoms: C_7  and  N_8
REMARK    3  A    between atoms: C_21  and  O_22
REMARK    4  A    between atoms: O_22  and  C_23
REMARK    5  A    between atoms: C_23  and  C_24
REMARK                            x       y       z     vdW  Elec       q    Type
REMARK                         _______ _______ _______ _____ _____    ______ ____
ROOT
ATOM      1  N   UNL     1       0.026  -0.015   2.416  0.00  0.00    -0.296 N 
ATOM      2  C   UNL     1      -0.364  -0.657   3.576  0.00  0.00    +0.149 A 
ATOM      3  C   UNL     1      -0.473   0.091   4.827  0.00  0.00    +0.106 A 
ATOM      4  C   UNL     1      -0.267   1.401   5.183  0.00  0.00    +0.142 A 
ATOM      5  N   UNL     1      -0.526   1.507   6.488  0.00  0.00    -0.243 NA
ATOM      6  C   UNL     1      -0.882   0.340   6.966  0.00  0.00    +0.204 A 
ATOM      7  N   UNL     1      -0.865  -0.569   5.977  0.00  0.00    -0.291 N 
ATOM      8  C   UNL     1      -1.143  -1.930   5.907  0.00  0.00    +0.115 A 
ATOM      9  C   UNL     1      -1.024  -2.603   4.682  0.00  0.00    +0.093 A 
ATOM     10  N   UNL     1      -0.643  -1.943   3.556  0.00  0.00    -0.228 NA
ATOM     11  C   UNL     1      -1.307  -3.974   4.622  0.00  0.00    +0.030 A 
ATOM     12  C   UNL     1      -1.699  -4.648   5.756  0.00  0.00    +0.006 A 
ATOM     13  C   UNL     1      -1.817  -3.981   6.965  0.00  0.00    +0.048 A 
ATOM     14  C   UNL     1      -1.541  -2.626   7.044  0.00  0.00    +0.147 A 
ATOM     15  H   UNL     1       0.231   0.933   2.432  0.00  0.00    +0.154 HD
ENDROOT
BRANCH   1  22
ATOM     16  C   UNL     1       2.525  -1.212   1.769  0.00  0.00    +0.046 C 
ATOM     17  C   UNL     1       1.325  -1.332   0.865  0.00  0.00    -0.028 A 
ATOM     18  C   UNL     1       1.418  -2.045  -0.315  0.00  0.00    +0.005 A 
ATOM     19  C   UNL     1       0.318  -2.156  -1.146  0.00  0.00    +0.002 A 
ATOM     20  C   UNL     1      -0.878  -1.555  -0.799  0.00  0.00    +0.022 A 
ATOM     21  C   UNL     1      -0.978  -0.841   0.380  0.00  0.00    +0.062 A 
ATOM     22  C   UNL     1       0.124  -0.732   1.220  0.00  0.00    +0.054 A 
ATOM     23 CL   UNL     1      -2.480  -0.086   0.814  0.00  0.00    -0.082 Cl
ENDBRANCH   1  22
BRANCH  14  24
ATOM     24  O   UNL     1      -1.658  -1.977   8.233  0.00  0.00    -0.485 OA
BRANCH  24  25
ATOM     25  C   UNL     1      -2.070  -2.754   9.359  0.00  0.00    +0.264 C 
BRANCH  25  26
ATOM     26  C   UNL     1      -2.143  -1.872  10.579  0.00  0.00    -0.010 A 
ATOM     27  C   UNL     1      -1.031  -1.711  11.383  0.00  0.00    +0.007 A 
ATOM     28  C   UNL     1      -1.097  -0.902  12.502  0.00  0.00    +0.000 A 
ATOM     29  C   UNL     1      -2.277  -0.254  12.816  0.00  0.00    +0.000 A 
ATOM     30  C   UNL     1      -3.390  -0.414  12.011  0.00  0.00    +0.000 A 
ATOM     31  C   UNL     1      -3.321  -1.219  10.890  0.00  0.00    +0.007 A 
ENDBRANCH  25  26
ENDBRANCH  24  25
ENDBRANCH  14  24
TORSDOF 4
