REMARK  Name = CHEMBL239590
REMARK  16 active torsions:
REMARK  status: ('A' for Active; 'I' for Inactive)
REMARK    1  A    between atoms: C_1  and  C_2
REMARK    2  A    between atoms: C_2  and  C_3
REMARK    3  A    between atoms: C_2  and  N_4
REMARK    4  A    between atoms: N_4  and  C_5
REMARK    5  A    between atoms: N_4  and  C_38
REMARK    6  A    between atoms: C_5  and  C_6
REMARK    7  A    between atoms: C_6  and  O_7
REMARK    8  A    between atoms: O_7  and  C_8
REMARK    9  A    between atoms: C_11  and  C_14
REMARK   10  A    between atoms: C_15  and  C_32
REMARK   11  A    between atoms: C_17  and  N_23
REMARK   12  A    between atoms: N_23  and  C_24
REMARK   13  A    between atoms: C_24  and  C_25
REMARK   14  A    between atoms: C_25  and  N_26
REMARK   15  A    between atoms: C_38  and  C_39
REMARK   16  A    between atoms: C_38  and  C_40
REMARK                            x       y       z     vdW  Elec       q    Type
REMARK                         _______ _______ _______ _____ _____    ______ ____
ROOT
ATOM      1  C   UNL     1       0.191   7.652  -0.132  0.00  0.00    +0.146 A 
ATOM      2  C   UNL     1       1.231   8.390  -0.628  0.00  0.00    +0.039 A 
ATOM      3  C   UNL     1       0.992   9.769  -0.175  0.00  0.00    +0.067 A 
ATOM      4  C   UNL     1       1.668  10.986  -0.337  0.00  0.00    +0.042 A 
ATOM      5  C   UNL     1       1.120  12.119   0.257  0.00  0.00    +0.041 A 
ATOM      6  C   UNL     1      -0.056  12.001   0.974  0.00  0.00    +0.087 A 
ATOM      7  N   UNL     1      -0.671  10.844   1.110  0.00  0.00    -0.332 N 
ATOM      8  C   UNL     1      -0.198   9.729   0.567  0.00  0.00    +0.209 A 
ATOM      9  O   UNL     1      -0.640   8.455   0.561  0.00  0.00    -0.438 OA
ATOM     10  H   UNL     1      -1.494  10.805   1.621  0.00  0.00    +0.168 HD
ENDROOT
BRANCH   1  14
ATOM     11  C   UNL     1      -0.346   3.480  -0.705  0.00  0.00    +0.120 A 
ATOM     12  C   UNL     1       0.890   3.970  -0.305  0.00  0.00    +0.046 A 
ATOM     13  C   UNL     1       1.069   5.324  -0.118  0.00  0.00    +0.015 A 
ATOM     14  C   UNL     1       0.004   6.203  -0.332  0.00  0.00    +0.018 A 
ATOM     15  C   UNL     1      -1.238   5.705  -0.734  0.00  0.00    +0.015 A 
ATOM     16  C   UNL     1      -1.406   4.351  -0.923  0.00  0.00    +0.046 A 
BRANCH  11  17
ATOM     17  O   UNL     1      -0.518   2.144  -0.888  0.00  0.00    -0.494 OA
BRANCH  17  18
ATOM     18  C   UNL     1       0.613   1.306  -0.646  0.00  0.00    +0.210 C 
BRANCH  18  19
ATOM     19  C   UNL     1       0.264  -0.139  -1.010  0.00  0.00    -0.036 C 
BRANCH  19  20
ATOM     20  N   UNL     1       0.083  -0.247  -2.464  0.00  0.00    +0.385 N 
ATOM     21  H   UNL     1       0.904   0.104  -2.933  0.00  0.00    -0.081 HD
BRANCH  20  23
ATOM     22  C   UNL     1      -1.343   0.340  -4.367  0.00  0.00    -0.014 C 
ATOM     23  C   UNL     1      -1.088   0.541  -2.872  0.00  0.00    -0.074 C 
ATOM     24  C   UNL     1      -2.313   0.081  -2.079  0.00  0.00    -0.014 C 
ENDBRANCH  20  23
BRANCH  20  25
ATOM     25  C   UNL     1      -0.124  -1.655  -2.828  0.00  0.00    -0.074 C 
ATOM     26  C   UNL     1       0.323  -1.879  -4.274  0.00  0.00    -0.014 C 
ATOM     27  C   UNL     1       0.697  -2.549  -1.897  0.00  0.00    -0.014 C 
ENDBRANCH  20  25
ENDBRANCH  19  20
ENDBRANCH  18  19
ENDBRANCH  17  18
ENDBRANCH  11  17
ENDBRANCH   1  14
BRANCH   2  28
ATOM     28  C   UNL     1       2.362   7.902  -1.448  0.00  0.00    -0.014 A 
ATOM     29  C   UNL     1       3.654   7.885  -0.921  0.00  0.00    +0.008 A 
ATOM     30  C   UNL     1       4.704   7.428  -1.691  0.00  0.00    +0.001 A 
ATOM     31  C   UNL     1       4.478   6.989  -2.983  0.00  0.00    +0.000 A 
ATOM     32  C   UNL     1       3.199   7.004  -3.512  0.00  0.00    +0.001 A 
ATOM     33  C   UNL     1       2.140   7.452  -2.750  0.00  0.00    +0.008 A 
ENDBRANCH   2  28
BRANCH   4  34
ATOM     34  N   UNL     1       2.849  11.058  -1.066  0.00  0.00    -0.342 N 
ATOM     35  H   UNL     1       3.218  10.259  -1.473  0.00  0.00    +0.146 HD
BRANCH  34  36
ATOM     36  C   UNL     1       3.537  12.343  -1.220  0.00  0.00    +0.117 C 
BRANCH  36  37
ATOM     37  C   UNL     1       4.801  12.147  -2.060  0.00  0.00    +0.103 C 
BRANCH  37  38
ATOM     38  N   UNL     1       5.491  13.435  -2.215  0.00  0.00    -0.304 NA
ATOM     39  C   UNL     1       6.006  13.914  -0.924  0.00  0.00    +0.065 C 
ATOM     40  C   UNL     1       6.663  15.282  -1.118  0.00  0.00    -0.067 C 
ATOM     41  N   UNL     1       7.759  15.166  -2.089  0.00  0.00    +0.381 N 
ATOM     42  C   UNL     1       7.225  14.710  -3.380  0.00  0.00    -0.067 C 
ATOM     43  C   UNL     1       6.572  13.337  -3.205  0.00  0.00    +0.065 C 
ATOM     44  H   UNL     1       8.200  16.066  -2.207  0.00  0.00    -0.086 HD
ATOM     45  H   UNL     1       8.438  14.501  -1.752  0.00  0.00    -0.086 HD
ENDBRANCH  37  38
ENDBRANCH  36  37
ENDBRANCH  34  36
ENDBRANCH   4  34
TORSDOF 12
