REMARK  Name = CHEMBL219557
REMARK  11 active torsions:
REMARK  status: ('A' for Active; 'I' for Inactive)
REMARK    1  A    between atoms: C_1  and  N_2
REMARK    2  A    between atoms: N_5  and  C_8
REMARK    3  A    between atoms: C_8  and  C_9
REMARK    4  A    between atoms: C_11  and  C_14
REMARK    5  A    between atoms: C_19  and  O_20
REMARK    6  A    between atoms: O_20  and  C_21
REMARK    7  A    between atoms: C_22  and  N_28
REMARK    8  A    between atoms: C_23  and  C_26
REMARK    9  A    between atoms: N_28  and  C_29
REMARK   10  A    between atoms: C_31  and  O_37
REMARK   11  A    between atoms: O_37  and  C_38
REMARK                            x       y       z     vdW  Elec       q    Type
REMARK                         _______ _______ _______ _____ _____    ______ ____
ROOT
ATOM      1  C   UNL     1      -4.162  -6.941   7.600  0.00  0.00    +0.029 A 
ATOM      2  C   UNL     1      -3.476  -5.770   7.866  0.00  0.00    +0.040 A 
ATOM      3  C   UNL     1      -2.269  -5.818   8.578  0.00  0.00    +0.074 A 
ATOM      4  C   UNL     1      -1.773  -7.071   9.014  0.00  0.00    +0.026 A 
ATOM      5  C   UNL     1      -2.486  -8.246   8.733  0.00  0.00    +0.058 A 
ATOM      6  C   UNL     1      -3.662  -8.180   8.043  0.00  0.00    +0.129 A 
ATOM      7  C   UNL     1      -0.555  -7.114   9.732  0.00  0.00    +0.060 A 
ATOM      8  C   UNL     1       0.104  -5.901   9.976  0.00  0.00    +0.091 A 
ATOM      9  C   UNL     1      -0.461  -4.704   9.507  0.00  0.00    +0.132 A 
ATOM     10  N   UNL     1      -1.590  -4.693   8.845  0.00  0.00    -0.254 NA
ENDROOT
BRANCH   1  13
ATOM     11  C   UNL     1      -7.508  -6.325   6.181  0.00  0.00    +0.089 A 
ATOM     12  C   UNL     1      -6.590  -6.020   7.113  0.00  0.00    +0.051 A 
ATOM     13  C   UNL     1      -5.439  -6.891   6.847  0.00  0.00    +0.024 A 
ATOM     14  C   UNL     1      -5.785  -7.642   5.769  0.00  0.00    +0.203 A 
ATOM     15  O   UNL     1      -7.023  -7.293   5.390  0.00  0.00    -0.469 OA
BRANCH  11  16
ATOM     16  C   UNL     1      -8.867  -5.686   6.050  0.00  0.00    -0.003 C 
BRANCH  16  21
ATOM     17  C   UNL     1      -9.541  -1.887   1.944  0.00  0.00    +0.104 C 
ATOM     18  N   UNL     1      -9.592  -3.031   2.864  0.00  0.00    -0.309 NA
ATOM     19  C   UNL     1      -9.972  -2.603   4.217  0.00  0.00    +0.065 C 
ATOM     20  C   UNL     1     -10.071  -3.828   5.128  0.00  0.00    -0.063 C 
ATOM     21  N   UNL     1      -8.776  -4.520   5.161  0.00  0.00    +0.386 N 
ATOM     22  C   UNL     1      -8.421  -4.964   3.807  0.00  0.00    -0.063 C 
ATOM     23  C   UNL     1      -8.308  -3.748   2.885  0.00  0.00    +0.065 C 
ATOM     24  H   UNL     1      -8.067  -3.890   5.505  0.00  0.00    -0.081 HD
ENDBRANCH  16  21
ENDBRANCH  11  16
ENDBRANCH   1  13
BRANCH   6  25
ATOM     25  O   UNL     1      -4.353  -9.320   7.777  0.00  0.00    -0.494 OA
ATOM     26  C   UNL     1      -3.792 -10.544   8.254  0.00  0.00    +0.277 C 
ENDBRANCH   6  25
BRANCH   8  27
ATOM     27  C   UNL     1       1.341  -5.881  10.699  0.00  0.00    +0.103 C 
ATOM     28  N   UNL     1       2.322  -5.866  11.271  0.00  0.00    -0.191 NA
ENDBRANCH   8  27
BRANCH   7  29
ATOM     29  N   UNL     1      -0.032  -8.312  10.177  0.00  0.00    -0.312 N 
ATOM     30  H   UNL     1       0.653  -8.764   9.660  0.00  0.00    +0.152 HD
BRANCH  29  31
ATOM     31  C   UNL     1      -0.490  -8.873  11.373  0.00  0.00    +0.053 A 
ATOM     32  C   UNL     1      -1.551  -8.290  12.053  0.00  0.00    +0.071 A 
ATOM     33  C   UNL     1      -2.003  -8.849  13.238  0.00  0.00    +0.140 A 
ATOM     34  C   UNL     1      -1.393  -9.989  13.743  0.00  0.00    +0.084 A 
ATOM     35  C   UNL     1      -0.336 -10.569  13.066  0.00  0.00    +0.045 A 
ATOM     36  C   UNL     1       0.113 -10.018  11.880  0.00  0.00    +0.064 A 
ATOM     37 CL   UNL     1       1.435 -10.753  11.028  0.00  0.00    -0.082 Cl
ATOM     38 CL   UNL     1      -1.960 -10.689  15.228  0.00  0.00    -0.080 Cl
BRANCH  33  39
ATOM     39  O   UNL     1      -3.041  -8.280  13.905  0.00  0.00    -0.494 OA
ATOM     40  C   UNL     1      -3.697  -7.181  13.269  0.00  0.00    +0.277 C 
ENDBRANCH  33  39
ENDBRANCH  29  31
ENDBRANCH   7  29
TORSDOF 8
