REMARK  Name = CHEMBL379733
REMARK  14 active torsions:
REMARK  status: ('A' for Active; 'I' for Inactive)
REMARK    1  A    between atoms: C_1  and  C_2
REMARK    2  A    between atoms: C_6  and  C_44
REMARK    3  A    between atoms: C_7  and  O_8
REMARK    4  A    between atoms: O_8  and  C_9
REMARK    5  A    between atoms: N_11  and  C_12
REMARK    6  A    between atoms: C_15  and  O_20
REMARK    7  A    between atoms: C_17  and  O_18
REMARK    8  A    between atoms: O_18  and  C_19
REMARK    9  A    between atoms: O_20  and  C_21
REMARK   10  A    between atoms: N_28  and  C_29
REMARK   11  A    between atoms: C_32  and  O_35
REMARK   12  A    between atoms: O_35  and  C_36
REMARK   13  A    between atoms: C_36  and  C_37
REMARK   14  A    between atoms: C_37  and  N_38
REMARK                            x       y       z     vdW  Elec       q    Type
REMARK                         _______ _______ _______ _____ _____    ______ ____
ROOT
ATOM      1  C   UNL     1      -2.398   2.052   3.887  0.00  0.00    +0.418 C 
ATOM      2  O   UNL     1      -3.465   1.748   3.392  0.00  0.00    -0.225 OA
ATOM      3  N   UNL     1      -1.755   1.181   4.689  0.00  0.00    -0.186 N 
ATOM      4  C   UNL     1      -0.485   1.484   5.169  0.00  0.00    +0.140 A 
ATOM      5  C   UNL     1       0.647   1.198   4.405  0.00  0.00    +0.064 A 
ATOM      6  C   UNL     1       1.889   1.517   4.921  0.00  0.00    +0.118 A 
ATOM      7  N   UNL     1       1.968   2.079   6.118  0.00  0.00    -0.223 NA
ATOM      8  C   UNL     1       0.876   2.338   6.822  0.00  0.00    +0.221 A 
ATOM      9  N   UNL     1      -0.333   2.054   6.359  0.00  0.00    -0.198 NA
ATOM     10  N   UNL     1       1.000   2.927   8.069  0.00  0.00    -0.284 N 
ATOM     11  H   UNL     1       0.216   3.052   8.627  0.00  0.00    +0.155 HD
ENDROOT
BRANCH   3  12
ATOM     12  C   UNL     1      -2.367  -0.034   5.041  0.00  0.00    +0.088 A 
ATOM     13  C   UNL     1      -2.176  -1.161   4.256  0.00  0.00    +0.031 A 
ATOM     14  C   UNL     1      -2.779  -2.355   4.602  0.00  0.00    +0.048 A 
ATOM     15  C   UNL     1      -3.575  -2.430   5.735  0.00  0.00    +0.124 A 
ATOM     16  C   UNL     1      -3.769  -1.306   6.524  0.00  0.00    +0.093 A 
ATOM     17  C   UNL     1      -3.162  -0.108   6.182  0.00  0.00    +0.145 A 
BRANCH  17  18
ATOM     18  O   UNL     1      -3.347   0.994   6.957  0.00  0.00    -0.493 OA
ATOM     19  C   UNL     1      -4.175   0.844   8.112  0.00  0.00    +0.277 C 
ENDBRANCH  17  18
BRANCH  15  20
ATOM     20  O   UNL     1      -4.167  -3.607   6.073  0.00  0.00    -0.495 OA
ATOM     21  C   UNL     1      -3.925  -4.724   5.215  0.00  0.00    +0.277 C 
ENDBRANCH  15  20
ENDBRANCH   3  12
BRANCH  10  22
ATOM     22  C   UNL     1       2.257   3.343   8.525  0.00  0.00    +0.034 A 
ATOM     23  C   UNL     1       3.199   3.824   7.624  0.00  0.00    +0.027 A 
ATOM     24  C   UNL     1       4.438   4.234   8.075  0.00  0.00    +0.047 A 
ATOM     25  C   UNL     1       4.743   4.165   9.426  0.00  0.00    +0.121 A 
ATOM     26  C   UNL     1       3.803   3.685  10.326  0.00  0.00    +0.047 A 
ATOM     27  C   UNL     1       2.561   3.280   9.878  0.00  0.00    +0.027 A 
BRANCH  25  28
ATOM     28  O   UNL     1       5.964   4.568   9.869  0.00  0.00    -0.494 OA
BRANCH  28  29
ATOM     29  C   UNL     1       6.210   4.470  11.273  0.00  0.00    +0.210 C 
BRANCH  29  30
ATOM     30  C   UNL     1       7.625   4.965  11.579  0.00  0.00    -0.037 C 
BRANCH  30  31
ATOM     31  N   UNL     1       7.720   6.398  11.267  0.00  0.00    +0.382 N 
ATOM     32  C   UNL     1       9.114   6.835  11.403  0.00  0.00    -0.079 C 
ATOM     33  C   UNL     1       9.233   8.306  11.001  0.00  0.00    -0.019 C 
ATOM     34  C   UNL     1       8.340   9.153  11.912  0.00  0.00    -0.004 C 
ATOM     35  C   UNL     1       6.900   8.640  11.818  0.00  0.00    -0.019 C 
ATOM     36  C   UNL     1       6.867   7.156  12.190  0.00  0.00    -0.079 C 
ATOM     37  H   UNL     1       7.412   6.556  10.319  0.00  0.00    -0.082 HD
ENDBRANCH  30  31
ENDBRANCH  29  30
ENDBRANCH  28  29
ENDBRANCH  25  28
ENDBRANCH  10  22
BRANCH   1  38
ATOM     38  O   UNL     1      -1.857   3.259   3.634  0.00  0.00    -0.410 OA
BRANCH  38  45
ATOM     39  C   UNL     1      -3.705   5.022   4.842  0.00  0.00    +0.047 C 
ATOM     40  C   UNL     1      -3.461   4.995   3.355  0.00  0.00    -0.008 A 
ATOM     41  C   UNL     1      -4.149   5.858   2.525  0.00  0.00    +0.007 A 
ATOM     42  C   UNL     1      -3.926   5.834   1.161  0.00  0.00    +0.001 A 
ATOM     43  C   UNL     1      -3.013   4.945   0.624  0.00  0.00    +0.007 A 
ATOM     44  C   UNL     1      -2.322   4.079   1.449  0.00  0.00    -0.008 A 
ATOM     45  C   UNL     1      -2.540   4.106   2.819  0.00  0.00    +0.139 A 
ATOM     46  C   UNL     1      -1.327   3.111   0.863  0.00  0.00    +0.047 C 
ENDBRANCH  38  45
ENDBRANCH   1  38
TORSDOF 10
