REMARK  Name = CHEMBL12253
REMARK  3 active torsions:
REMARK  status: ('A' for Active; 'I' for Inactive)
REMARK    1  A    between atoms: C_4  and  C_13
REMARK    2  A    between atoms: C_11  and  O_12
REMARK    3  A    between atoms: C_13  and  C_14
REMARK                            x       y       z     vdW  Elec       q    Type
REMARK                         _______ _______ _______ _____ _____    ______ ____
ROOT
ATOM      1  C   UNL     1      -0.017   1.389   0.010  0.00  0.00    +0.046 A 
ATOM      2  C   UNL     1       1.151   2.096   0.002  0.00  0.00    +0.015 A 
ATOM      3  C   UNL     1       2.374   1.418  -0.013  0.00  0.00    +0.022 A 
ATOM      4  C   UNL     1       3.643   2.151  -0.021  0.00  0.00    -0.019 A 
ATOM      5  C   UNL     1       4.797   1.435  -0.035  0.00  0.00    +0.096 A 
ATOM      6  C   UNL     1       4.748   0.026  -0.042  0.00  0.00    +0.338 A 
ATOM      7  O   UNL     1       5.791  -0.604  -0.055  0.00  0.00    -0.245 OA
ATOM      8  O   UNL     1       3.583  -0.640  -0.035  0.00  0.00    -0.422 OA
ATOM      9  C   UNL     1       2.400   0.011  -0.021  0.00  0.00    +0.143 A 
ATOM     10  C   UNL     1       1.205  -0.692  -0.013  0.00  0.00    +0.092 A 
ATOM     11  C   UNL     1       0.002  -0.004   0.002  0.00  0.00    +0.120 A 
ENDROOT
BRANCH  11  12
ATOM     12  O   UNL     1      -1.167  -0.693   0.009  0.00  0.00    -0.507 OA
ATOM     13  H   UNL     1      -1.515  -0.888  -0.872  0.00  0.00    +0.292 HD
ENDBRANCH  11  12
BRANCH   4  14
ATOM     14  C   UNL     1       3.666   3.657  -0.013  0.00  0.00    +0.161 C 
BRANCH  14  15
ATOM     15  C   UNL     1       3.538   4.169  -1.425  0.00  0.00    +0.360 C 
ATOM     16  O   UNL     1       3.436   3.382  -2.351  0.00  0.00    -0.246 OA
ATOM     17  O   UNL     1       3.535   5.369  -1.641  0.00  0.00    -0.246 OA
ENDBRANCH  14  15
ENDBRANCH   4  14
TORSDOF 3
