REMARK  Name = CHEMBL566362
REMARK  5 active torsions:
REMARK  status: ('A' for Active; 'I' for Inactive)
REMARK    1  A    between atoms: C_1  and  C_2
REMARK    2  A    between atoms: C_2  and  C_3
REMARK    3  A    between atoms: C_2  and  N_18
REMARK    4  A    between atoms: N_11  and  C_12
REMARK    5  A    between atoms: C_23  and  N_25
REMARK                            x       y       z     vdW  Elec       q    Type
REMARK                         _______ _______ _______ _____ _____    ______ ____
ROOT
ATOM      1  C   UNL     1      -0.669  -0.181   0.061  0.00  0.00    +0.028 C 
ATOM      2  C   UNL     1      -0.594  -1.559   0.722  0.00  0.00    +0.075 C 
ENDROOT
BRANCH   2   3
ATOM      3  C   UNL     1       0.361  -1.501   1.915  0.00  0.00    +0.026 C 
ATOM      4  C   UNL     1      -0.212  -0.567   2.983  0.00  0.00    +0.008 C 
ATOM      5  C   UNL     1       0.726  -0.533   4.192  0.00  0.00    +0.019 C 
ATOM      6  C   UNL     1       2.092   0.009   3.757  0.00  0.00    +0.109 C 
ATOM      7  N   UNL     1       2.585  -0.797   2.632  0.00  0.00    -0.285 N 
ATOM      8  C   UNL     1       1.722  -0.970   1.455  0.00  0.00    +0.114 C 
ATOM      9  C   UNL     1       3.805  -1.367   2.679  0.00  0.00    +0.306 C 
ATOM     10  O   UNL     1       4.164  -2.109   1.784  0.00  0.00    -0.252 OA
ATOM     11  N   UNL     1       4.628  -1.115   3.716  0.00  0.00    -0.269 N 
ATOM     12  H   UNL     1       4.314  -0.586   4.466  0.00  0.00    +0.156 HD
BRANCH  11  13
ATOM     13  C   UNL     1       5.934  -1.617   3.711  0.00  0.00    +0.035 A 
ATOM     14  C   UNL     1       6.627  -1.741   2.514  0.00  0.00    +0.023 A 
ATOM     15  C   UNL     1       7.917  -2.236   2.512  0.00  0.00    +0.002 A 
ATOM     16  C   UNL     1       8.518  -2.608   3.701  0.00  0.00    +0.000 A 
ATOM     17  C   UNL     1       7.830  -2.486   4.894  0.00  0.00    +0.002 A 
ATOM     18  C   UNL     1       6.542  -1.987   4.903  0.00  0.00    +0.023 A 
ENDBRANCH  11  13
ENDBRANCH   2   3
BRANCH   2  19
ATOM     19  N   UNL     1      -0.104  -2.540  -0.249  0.00  0.00    -0.311 N 
ATOM     20  C   UNL     1      -0.987  -3.152  -1.121  0.00  0.00    +0.217 A 
ATOM     21  N   UNL     1      -2.273  -2.835  -1.067  0.00  0.00    -0.223 NA
ATOM     22  C   UNL     1      -3.147  -3.400  -1.885  0.00  0.00    +0.118 A 
ATOM     23  C   UNL     1      -2.707  -4.333  -2.806  0.00  0.00    +0.066 A 
ATOM     24  C   UNL     1      -1.349  -4.646  -2.839  0.00  0.00    +0.144 A 
ATOM     25  N   UNL     1      -0.526  -4.037  -1.992  0.00  0.00    -0.197 NA
ATOM     26  H   UNL     1       0.840  -2.760  -0.281  0.00  0.00    +0.149 HD
BRANCH  24  27
ATOM     27  N   UNL     1      -0.861  -5.580  -3.750  0.00  0.00    -0.283 N 
ATOM     28  C   UNL     1      -1.591  -6.266  -4.676  0.00  0.00    +0.206 A 
ATOM     29  N   UNL     1      -0.816  -7.055  -5.360  0.00  0.00    -0.235 NA
ATOM     30  C   UNL     1       0.464  -6.932  -4.924  0.00  0.00    +0.089 A 
ATOM     31  C   UNL     1       0.456  -5.981  -3.889  0.00  0.00    +0.075 A 
ATOM     32  C   UNL     1       1.640  -5.643  -3.249  0.00  0.00    +0.028 A 
ATOM     33  C   UNL     1       2.822  -6.241  -3.634  0.00  0.00    +0.002 A 
ATOM     34  C   UNL     1       2.836  -7.177  -4.657  0.00  0.00    +0.002 A 
ATOM     35  C   UNL     1       1.670  -7.530  -5.298  0.00  0.00    +0.030 A 
ENDBRANCH  24  27
ENDBRANCH   2  19
TORSDOF 4
