REMARK  Name = CHEMBL443240
REMARK  4 active torsions:
REMARK  status: ('A' for Active; 'I' for Inactive)
REMARK    1  A    between atoms: C_3  and  C_25
REMARK    2  A    between atoms: C_5  and  N_7
REMARK    3  A    between atoms: C_12  and  N_14
REMARK    4  A    between atoms: N_14  and  C_15
REMARK                            x       y       z     vdW  Elec       q    Type
REMARK                         _______ _______ _______ _____ _____    ______ ____
ROOT
ATOM      1  N   UNL     1       1.207  -2.054   0.378  0.00  0.00    -0.284 N 
ATOM      2  C   UNL     1       0.022  -2.772   0.406  0.00  0.00    +0.221 A 
ATOM      3  N   UNL     1      -1.129  -2.117   0.448  0.00  0.00    -0.223 NA
ATOM      4  C   UNL     1      -2.282  -2.768   0.475  0.00  0.00    +0.118 A 
ATOM      5  C   UNL     1      -2.279  -4.150   0.459  0.00  0.00    +0.063 A 
ATOM      6  C   UNL     1      -1.050  -4.812   0.414  0.00  0.00    +0.128 A 
ATOM      7  N   UNL     1       0.069  -4.095   0.384  0.00  0.00    -0.199 NA
ATOM      8  H   UNL     1       2.052  -2.517   0.267  0.00  0.00    +0.155 HD
ENDROOT
BRANCH   1  13
ATOM      9  C   UNL     1       2.099   1.492  -0.037  0.00  0.00    +0.003 A 
ATOM     10  C   UNL     1       1.155   2.103   0.763  0.00  0.00    +0.013 A 
ATOM     11  C   UNL     1       0.213   1.331   1.446  0.00  0.00    +0.038 A 
ATOM     12  C   UNL     1       0.231  -0.058   1.317  0.00  0.00    +0.036 A 
ATOM     13  C   UNL     1       1.184  -0.662   0.511  0.00  0.00    +0.034 A 
ATOM     14  C   UNL     1       2.117   0.116  -0.165  0.00  0.00    +0.023 A 
BRANCH  11  15
ATOM     15  C   UNL     1      -0.799   1.983   2.304  0.00  0.00    +0.242 C 
ATOM     16  O   UNL     1      -1.618   1.308   2.897  0.00  0.00    -0.270 OA
ATOM     17  N   UNL     1      -0.814   3.325   2.427  0.00  0.00    -0.325 N 
ATOM     18  H   UNL     1      -0.161   3.863   1.954  0.00  0.00    +0.145 HD
ATOM     19  H   UNL     1      -1.478   3.753   2.990  0.00  0.00    +0.145 HD
ENDBRANCH  11  15
ENDBRANCH   1  13
BRANCH   6  20
ATOM     20  N   UNL     1      -0.999  -6.197   0.397  0.00  0.00    -0.298 N 
ATOM     21  H   UNL     1      -1.817  -6.712   0.320  0.00  0.00    +0.154 HD
BRANCH  20  22
ATOM     22  C   UNL     1       0.233  -6.852   0.490  0.00  0.00    +0.060 A 
ATOM     23  C   UNL     1       1.340  -6.189   0.991  0.00  0.00    +0.025 A 
ATOM     24  C   UNL     1       2.565  -6.834   1.085  0.00  0.00    +0.004 A 
ATOM     25  C   UNL     1       2.703  -8.133   0.687  0.00  0.00    +0.032 A 
ATOM     26  C   UNL     1       1.601  -8.827   0.178  0.00  0.00    +0.114 A 
ATOM     27  C   UNL     1       0.355  -8.182   0.084  0.00  0.00    +0.107 A 
ATOM     28  N   UNL     1      -0.500  -9.120  -0.438  0.00  0.00    -0.255 N 
ATOM     29  H   UNL     1      -1.442  -8.987  -0.630  0.00  0.00    +0.191 HD
ATOM     30  N   UNL     1       0.164 -10.207  -0.628  0.00  0.00    -0.067 NA
ATOM     31  N   UNL     1       1.399 -10.076  -0.289  0.00  0.00    -0.130 NA
ENDBRANCH  20  22
ENDBRANCH   6  20
TORSDOF 4
