REMARK  Name = CHEMBL567886
REMARK  4 active torsions:
REMARK  status: ('A' for Active; 'I' for Inactive)
REMARK    1  A    between atoms: C_6  and  C_11
REMARK    2  A    between atoms: C_17  and  C_19
REMARK    3  A    between atoms: C_19  and  N_20
REMARK    4  A    between atoms: C_25  and  N_27
REMARK                            x       y       z     vdW  Elec       q    Type
REMARK                         _______ _______ _______ _____ _____    ______ ____
ROOT
ATOM      1  C   UNL     1       4.977  -2.713  -0.059  0.00  0.00    +0.247 C 
ATOM      2  O   UNL     1       6.017  -2.088  -0.135  0.00  0.00    -0.270 OA
ATOM      3  N   UNL     1       5.003  -4.057   0.036  0.00  0.00    -0.297 N 
ATOM      4  C   UNL     1       3.755  -4.832   0.039  0.00  0.00    +0.108 C 
ATOM      5  C   UNL     1       3.741  -5.740   1.273  0.00  0.00    +0.019 C 
ATOM      6  C   UNL     1       5.011  -6.594   1.286  0.00  0.00    +0.008 C 
ATOM      7  C   UNL     1       6.239  -5.684   1.369  0.00  0.00    +0.024 C 
ATOM      8  C   UNL     1       6.281  -4.776   0.131  0.00  0.00    +0.113 C 
ENDROOT
BRANCH   1  14
ATOM      9  C   UNL     1      -0.943  -0.328  -0.936  0.00  0.00    +0.001 A 
ATOM     10  C   UNL     1      -0.744  -1.387  -1.819  0.00  0.00    +0.001 A 
ATOM     11  C   UNL     1       0.432  -2.070  -1.840  0.00  0.00    +0.008 A 
ATOM     12  C   UNL     1       1.465  -1.705  -0.958  0.00  0.00    -0.017 A 
ATOM     13  C   UNL     1       2.691  -2.388  -0.953  0.00  0.00    +0.021 A 
ATOM     14  C   UNL     1       3.684  -1.998  -0.070  0.00  0.00    +0.037 A 
ATOM     15  C   UNL     1       3.470  -0.927   0.817  0.00  0.00    +0.013 A 
ATOM     16  C   UNL     1       2.291  -0.256   0.827  0.00  0.00    +0.009 A 
ATOM     17  C   UNL     1       1.262  -0.627  -0.059  0.00  0.00    -0.018 A 
ATOM     18  C   UNL     1       0.034   0.054  -0.068  0.00  0.00    +0.008 A 
ENDBRANCH   1  14
BRANCH   7  19
ATOM     19  C   UNL     1       7.506  -6.540   1.416  0.00  0.00    +0.109 C 
BRANCH  19  20
ATOM     20  N   UNL     1       8.672  -5.676   1.615  0.00  0.00    -0.313 N 
ATOM     21  C   UNL     1       9.939  -6.229   1.690  0.00  0.00    +0.217 A 
ATOM     22  N   UNL     1      10.079  -7.541   1.575  0.00  0.00    -0.223 NA
ATOM     23  C   UNL     1      11.275  -8.106   1.641  0.00  0.00    +0.118 A 
ATOM     24  C   UNL     1      12.389  -7.310   1.834  0.00  0.00    +0.066 A 
ATOM     25  C   UNL     1      12.209  -5.932   1.952  0.00  0.00    +0.144 A 
ATOM     26  N   UNL     1      10.982  -5.432   1.871  0.00  0.00    -0.197 NA
ATOM     27  H   UNL     1       8.557  -4.716   1.695  0.00  0.00    +0.149 HD
BRANCH  25  28
ATOM     28  N   UNL     1      13.303  -5.092   2.148  0.00  0.00    -0.283 N 
ATOM     29  C   UNL     1      14.610  -5.472   2.238  0.00  0.00    +0.206 A 
ATOM     30  N   UNL     1      15.366  -4.430   2.421  0.00  0.00    -0.235 NA
ATOM     31  C   UNL     1      14.600  -3.308   2.461  0.00  0.00    +0.089 A 
ATOM     32  C   UNL     1      13.267  -3.715   2.281  0.00  0.00    +0.075 A 
ATOM     33  C   UNL     1      12.251  -2.771   2.271  0.00  0.00    +0.028 A 
ATOM     34  C   UNL     1      12.553  -1.435   2.434  0.00  0.00    +0.002 A 
ATOM     35  C   UNL     1      13.868  -1.028   2.609  0.00  0.00    +0.002 A 
ATOM     36  C   UNL     1      14.888  -1.952   2.630  0.00  0.00    +0.030 A 
ENDBRANCH  25  28
ENDBRANCH  19  20
ENDBRANCH   7  19
TORSDOF 4
