REMARK  Name = CHEMBL597592
REMARK  9 active torsions:
REMARK  status: ('A' for Active; 'I' for Inactive)
REMARK    1  A    between atoms: C_1  and  C_2
REMARK    2  A    between atoms: C_2  and  C_3
REMARK    3  A    between atoms: C_2  and  C_4
REMARK    4  A    between atoms: C_2  and  C_5
REMARK    5  A    between atoms: C_7  and  N_16
REMARK    6  A    between atoms: N_8  and  C_10
REMARK    7  A    between atoms: N_19  and  C_20
REMARK    8  A    between atoms: C_24  and  O_26
REMARK    9  A    between atoms: O_26  and  C_27
REMARK                            x       y       z     vdW  Elec       q    Type
REMARK                         _______ _______ _______ _____ _____    ______ ____
ROOT
ATOM      1  N   UNL     1       3.155   0.969  -3.596  0.00  0.00    -0.254 N 
ATOM      2  C   UNL     1       4.324   0.957  -2.925  0.00  0.00    +0.309 C 
ATOM      3  O   UNL     1       4.562   1.820  -2.103  0.00  0.00    -0.252 OA
ATOM      4  N   UNL     1       5.229  -0.012  -3.166  0.00  0.00    -0.269 N 
ATOM      5  H   UNL     1       2.965   0.280  -4.252  0.00  0.00    +0.158 HD
ATOM      6  H   UNL     1       5.005  -0.749  -3.756  0.00  0.00    +0.156 HD
ENDROOT
BRANCH   4   7
ATOM      7  C   UNL     1       6.492   0.045  -2.566  0.00  0.00    +0.038 A 
ATOM      8  C   UNL     1       7.609  -0.415  -3.252  0.00  0.00    +0.023 A 
ATOM      9  C   UNL     1       8.856  -0.358  -2.660  0.00  0.00    +0.005 A 
ATOM     10  C   UNL     1       8.995   0.154  -1.384  0.00  0.00    +0.046 A 
ATOM     11  C   UNL     1       7.882   0.615  -0.694  0.00  0.00    +0.130 A 
ATOM     12  C   UNL     1       6.630   0.565  -1.287  0.00  0.00    +0.069 A 
BRANCH  11  13
ATOM     13  O   UNL     1       8.021   1.118   0.561  0.00  0.00    -0.454 OA
BRANCH  13  14
ATOM     14  C   UNL     1       7.867   0.268   1.610  0.00  0.00    +0.154 A 
ATOM     15  C   UNL     1       7.693  -1.089   1.387  0.00  0.00    +0.048 A 
ATOM     16  C   UNL     1       7.537  -1.956   2.454  0.00  0.00    +0.006 A 
ATOM     17  C   UNL     1       7.552  -1.477   3.749  0.00  0.00    +0.028 A 
ATOM     18  C   UNL     1       7.726  -0.121   3.985  0.00  0.00    +0.070 A 
ATOM     19  C   UNL     1       7.889   0.756   2.913  0.00  0.00    +0.110 A 
ATOM     20  N   UNL     1       8.046   2.031   3.454  0.00  0.00    -0.303 N 
ATOM     21  H   UNL     1       8.176   2.850   2.951  0.00  0.00    +0.171 HD
ATOM     22  C   UNL     1       7.986   1.931   4.796  0.00  0.00    +0.325 A 
ATOM     23  O   UNL     1       8.086   2.862   5.573  0.00  0.00    -0.247 OA
ATOM     24  N   UNL     1       7.785   0.647   5.146  0.00  0.00    -0.306 N 
ATOM     25  H   UNL     1       7.706   0.312   6.053  0.00  0.00    +0.170 HD
ENDBRANCH  13  14
ENDBRANCH  11  13
ENDBRANCH   4   7
BRANCH   1  28
ATOM     26  C   UNL     1       1.190   3.771  -2.521  0.00  0.00    +0.071 A 
ATOM     27  C   UNL     1       2.352   2.996  -2.459  0.00  0.00    +0.069 A 
ATOM     28  C   UNL     1       2.219   1.972  -3.346  0.00  0.00    +0.130 A 
ATOM     29  N   UNL     1       1.004   2.107  -3.946  0.00  0.00    -0.218 N 
ATOM     30  N   UNL     1       0.383   3.239  -3.403  0.00  0.00    -0.169 NA
BRANCH  29  31
ATOM     31  C   UNL     1       0.469   1.262  -4.927  0.00  0.00    +0.067 A 
ATOM     32  C   UNL     1       1.303   0.673  -5.868  0.00  0.00    +0.028 A 
ATOM     33  C   UNL     1       0.772  -0.161  -6.834  0.00  0.00    +0.002 A 
ATOM     34  C   UNL     1      -0.588  -0.408  -6.864  0.00  0.00    +0.000 A 
ATOM     35  C   UNL     1      -1.421   0.177  -5.928  0.00  0.00    +0.002 A 
ATOM     36  C   UNL     1      -0.896   1.007  -4.957  0.00  0.00    +0.028 A 
ENDBRANCH  29  31
BRANCH  26  38
ATOM     37  C   UNL     1       1.723   6.179  -2.261  0.00  0.00    +0.017 C 
ATOM     38  C   UNL     1       0.912   5.007  -1.705  0.00  0.00    +0.006 C 
ATOM     39  C   UNL     1       1.309   4.757  -0.249  0.00  0.00    +0.017 C 
ATOM     40  C   UNL     1      -0.580   5.340  -1.776  0.00  0.00    +0.017 C 
ENDBRANCH  26  38
ENDBRANCH   1  28
TORSDOF 6
