REMARK  Name = CHEMBL102821
REMARK  7 active torsions:
REMARK  status: ('A' for Active; 'I' for Inactive)
REMARK    1  A    between atoms: C_3  and  O_20
REMARK    2  A    between atoms: C_4  and  C_17
REMARK    3  A    between atoms: C_6  and  C_7
REMARK    4  A    between atoms: C_7  and  C_8
REMARK    5  A    between atoms: C_8  and  C_9
REMARK    6  A    between atoms: C_12  and  O_16
REMARK    7  A    between atoms: C_13  and  O_15
REMARK                            x       y       z     vdW  Elec       q    Type
REMARK                         _______ _______ _______ _____ _____    ______ ____
ROOT
ATOM      1  C   UNL     1      -1.295  -0.772   0.010  0.00  0.00    +0.040 C 
ENDROOT
BRANCH   1   7
ATOM      2  C   UNL     1      -0.017   1.381   0.010  0.00  0.00    +0.007 A 
ATOM      3  C   UNL     1       1.164   2.097   0.002  0.00  0.00    +0.046 A 
ATOM      4  C   UNL     1       2.381   1.431  -0.013  0.00  0.00    +0.131 A 
ATOM      5  C   UNL     1       2.405   0.028  -0.021  0.00  0.00    +0.105 A 
ATOM      6  C   UNL     1       1.200  -0.683  -0.013  0.00  0.00    +0.022 A 
ATOM      7  C   UNL     1       0.002  -0.004   0.002  0.00  0.00    -0.046 A 
BRANCH   5   8
ATOM      8  C   UNL     1       3.689  -0.691  -0.038  0.00  0.00    +0.390 C 
ATOM      9  O   UNL     1       3.705  -1.914  -0.045  0.00  0.00    -0.240 OA
ATOM     10  O   UNL     1       4.740  -0.065  -0.046  0.00  0.00    -0.240 OA
ENDBRANCH   5   8
BRANCH   4  11
ATOM     11  O   UNL     1       3.541   2.132  -0.022  0.00  0.00    -0.506 OA
ATOM     12  H   UNL     1       3.887   2.331   0.859  0.00  0.00    +0.292 HD
ENDBRANCH   4  11
ENDBRANCH   1   7
BRANCH   1  13
ATOM     13  C   UNL     1      -1.748  -1.024  -1.429  0.00  0.00    +0.040 C 
BRANCH  13  14
ATOM     14  C   UNL     1      -3.044  -1.791  -1.421  0.00  0.00    -0.043 A 
ATOM     15  C   UNL     1      -3.028  -3.174  -1.423  0.00  0.00    +0.007 A 
ATOM     16  C   UNL     1      -4.215  -3.882  -1.415  0.00  0.00    +0.049 A 
ATOM     17  C   UNL     1      -5.425  -3.207  -1.405  0.00  0.00    +0.158 A 
ATOM     18  C   UNL     1      -5.441  -1.815  -1.403  0.00  0.00    +0.158 A 
ATOM     19  C   UNL     1      -4.248  -1.111  -1.406  0.00  0.00    +0.052 A 
BRANCH  18  20
ATOM     20  O   UNL     1      -6.626  -1.148  -1.393  0.00  0.00    -0.503 OA
ATOM     21  H   UNL     1      -6.963  -0.957  -0.507  0.00  0.00    +0.292 HD
ENDBRANCH  18  20
BRANCH  17  22
ATOM     22  O   UNL     1      -6.593  -3.902  -1.398  0.00  0.00    -0.503 OA
ATOM     23  H   UNL     1      -6.925  -4.105  -0.513  0.00  0.00    +0.292 HD
ENDBRANCH  17  22
ENDBRANCH  13  14
ENDBRANCH   1  13
TORSDOF 7
