REMARK  Name = CHEMBL584044
REMARK  5 active torsions:
REMARK  status: ('A' for Active; 'I' for Inactive)
REMARK    1  A    between atoms: C_1  and  C_2
REMARK    2  A    between atoms: C_2  and  C_3
REMARK    3  A    between atoms: C_2  and  N_13
REMARK    4  A    between atoms: N_11  and  C_12
REMARK    5  A    between atoms: C_18  and  N_20
REMARK                            x       y       z     vdW  Elec       q    Type
REMARK                         _______ _______ _______ _____ _____    ______ ____
ROOT
ATOM      1  N   UNL     1       0.709  -0.488   1.192  0.00  0.00    -0.311 N 
ATOM      2  C   UNL     1       2.088  -0.601   1.176  0.00  0.00    +0.217 A 
ATOM      3  N   UNL     1       2.752  -0.259   0.082  0.00  0.00    -0.223 NA
ATOM      4  C   UNL     1       4.072  -0.353   0.029  0.00  0.00    +0.118 A 
ATOM      5  C   UNL     1       4.761  -0.814   1.136  0.00  0.00    +0.066 A 
ATOM      6  C   UNL     1       4.035  -1.166   2.273  0.00  0.00    +0.144 A 
ATOM      7  N   UNL     1       2.713  -1.042   2.258  0.00  0.00    -0.197 NA
ATOM      8  H   UNL     1       0.212  -0.731   1.989  0.00  0.00    +0.149 HD
ENDROOT
BRANCH   6   9
ATOM      9  N   UNL     1       4.688  -1.636   3.411  0.00  0.00    -0.283 N 
ATOM     10  C   UNL     1       6.034  -1.800   3.563  0.00  0.00    +0.206 A 
ATOM     11  N   UNL     1       6.296  -2.257   4.752  0.00  0.00    -0.235 NA
ATOM     12  C   UNL     1       5.140  -2.418   5.447  0.00  0.00    +0.089 A 
ATOM     13  C   UNL     1       4.092  -2.018   4.600  0.00  0.00    +0.075 A 
ATOM     14  C   UNL     1       2.781  -2.069   5.050  0.00  0.00    +0.028 A 
ATOM     15  C   UNL     1       2.510  -2.511   6.328  0.00  0.00    +0.002 A 
ATOM     16  C   UNL     1       3.541  -2.904   7.168  0.00  0.00    +0.002 A 
ATOM     17  C   UNL     1       4.848  -2.868   6.737  0.00  0.00    +0.030 A 
ENDBRANCH   6   9
BRANCH   1  19
ATOM     18  C   UNL     1      -0.021   1.528   0.016  0.00  0.00    +0.028 C 
ATOM     19  C   UNL     1       0.001  -0.002   0.006  0.00  0.00    +0.075 C 
BRANCH  19  20
ATOM     20  C   UNL     1      -1.435  -0.532   0.016  0.00  0.00    +0.026 C 
ATOM     21  C   UNL     1      -2.174  -0.028  -1.225  0.00  0.00    +0.008 C 
ATOM     22  C   UNL     1      -3.619  -0.531  -1.199  0.00  0.00    +0.019 C 
ATOM     23  C   UNL     1      -3.623  -2.062  -1.223  0.00  0.00    +0.109 C 
ATOM     24  N   UNL     1      -2.793  -2.555  -0.115  0.00  0.00    -0.285 N 
ATOM     25  C   UNL     1      -1.414  -2.064   0.006  0.00  0.00    +0.114 C 
ATOM     26  C   UNL     1      -3.288  -3.439   0.773  0.00  0.00    +0.302 C 
ATOM     27  O   UNL     1      -2.565  -3.909   1.630  0.00  0.00    -0.253 OA
ATOM     28  N   UNL     1      -4.584  -3.804   0.711  0.00  0.00    -0.302 N 
ATOM     29  C   UNL     1      -5.149  -4.678   1.742  0.00  0.00    +0.129 C 
ATOM     30  H   UNL     1      -5.143  -3.487  -0.016  0.00  0.00    +0.150 HD
ENDBRANCH  19  20
ENDBRANCH   1  19
TORSDOF 3
