REMARK  Name = CHEMBL198136
REMARK  9 active torsions:
REMARK  status: ('A' for Active; 'I' for Inactive)
REMARK    1  A    between atoms: C_1  and  N_2
REMARK    2  A    between atoms: C_5  and  N_8
REMARK    3  A    between atoms: C_11  and  C_13
REMARK    4  A    between atoms: C_16  and  N_21
REMARK    5  A    between atoms: C_17  and  O_19
REMARK    6  A    between atoms: O_19  and  C_20
REMARK    7  A    between atoms: C_22  and  C_24
REMARK    8  A    between atoms: C_27  and  C_31
REMARK    9  A    between atoms: C_35  and  N_39
REMARK                            x       y       z     vdW  Elec       q    Type
REMARK                         _______ _______ _______ _____ _____    ______ ____
ROOT
ATOM      1  C   UNL     1      -0.503  -6.866  -1.502  0.00  0.00    +0.006 A 
ATOM      2  C   UNL     1      -1.214  -8.055  -1.661  0.00  0.00    +0.012 A 
ATOM      3  C   UNL     1      -0.818  -8.975  -2.610  0.00  0.00    +0.027 A 
ATOM      4  C   UNL     1       0.289  -8.720  -3.408  0.00  0.00    +0.076 A 
ATOM      5  C   UNL     1       1.004  -7.532  -3.253  0.00  0.00    +0.142 A 
ATOM      6  C   UNL     1       0.606  -6.605  -2.308  0.00  0.00    +0.057 A 
ENDROOT
BRANCH   1  10
ATOM      7  N   UNL     1      -1.441  -3.975   0.539  0.00  0.00    -0.243 N 
ATOM      8  C   UNL     1      -1.656  -4.934   1.483  0.00  0.00    +0.164 A 
ATOM      9  C   UNL     1      -1.345  -6.171   0.888  0.00  0.00    +0.086 A 
ATOM     10  C   UNL     1      -0.928  -5.877  -0.483  0.00  0.00    +0.105 A 
ATOM     11  N   UNL     1      -1.006  -4.577  -0.646  0.00  0.00    -0.168 NA
ATOM     12  C   UNL     1      -1.482  -7.339   1.655  0.00  0.00    +0.131 A 
ATOM     13  N   UNL     1      -1.900  -7.223   2.912  0.00  0.00    -0.220 NA
ATOM     14  C   UNL     1      -2.181  -6.041   3.431  0.00  0.00    +0.225 A 
ATOM     15  N   UNL     1      -2.068  -4.921   2.751  0.00  0.00    -0.216 NA
BRANCH   7  20
ATOM     16  C   UNL     1      -1.714   1.596  -0.304  0.00  0.00    -0.096 C 
ATOM     17  N   UNL     1      -1.550   0.138  -0.376  0.00  0.00    +0.378 N 
ATOM     18  C   UNL     1      -2.838  -0.512  -0.104  0.00  0.00    -0.077 C 
ATOM     19  C   UNL     1      -2.691  -2.027  -0.258  0.00  0.00    +0.008 C 
ATOM     20  C   UNL     1      -1.641  -2.537   0.733  0.00  0.00    +0.106 C 
ATOM     21  C   UNL     1      -0.322  -1.799   0.489  0.00  0.00    +0.008 C 
ATOM     22  C   UNL     1      -0.556  -0.292   0.615  0.00  0.00    -0.077 C 
ATOM     23  H   UNL     1      -1.235  -0.119  -1.300  0.00  0.00    -0.082 HD
ENDBRANCH   7  20
BRANCH  12  24
ATOM     24  N   UNL     1      -1.190  -8.578   1.118  0.00  0.00    -0.342 N 
ATOM     25  H   UNL     1      -0.701  -8.641   0.282  0.00  0.00    +0.144 HD
ATOM     26  H   UNL     1      -1.474  -9.384   1.576  0.00  0.00    +0.144 HD
ENDBRANCH  12  24
ENDBRANCH   1  10
BRANCH   4  27
ATOM     27  N   UNL     1       0.689  -9.655  -4.369  0.00  0.00    -0.278 N 
ATOM     28  C   UNL     1      -0.184 -10.583  -4.810  0.00  0.00    +0.251 C 
ATOM     29  O   UNL     1      -1.344 -10.547  -4.447  0.00  0.00    -0.270 OA
ATOM     30  H   UNL     1       1.594  -9.637  -4.717  0.00  0.00    +0.155 HD
BRANCH  28  31
ATOM     31  C   UNL     1       0.269 -11.643  -5.733  0.00  0.00    +0.072 A 
ATOM     32  C   UNL     1       1.602 -11.691  -6.147  0.00  0.00    +0.016 A 
ATOM     33  C   UNL     1       2.018 -12.683  -7.009  0.00  0.00    +0.013 A 
ATOM     34  C   UNL     1       1.119 -13.632  -7.466  0.00  0.00    +0.058 A 
ATOM     35  C   UNL     1      -0.203 -13.592  -7.062  0.00  0.00    +0.051 A 
ATOM     36  C   UNL     1      -0.634 -12.607  -6.192  0.00  0.00    +0.136 A 
ATOM     37  F   UNL     1      -1.924 -12.573  -5.793  0.00  0.00    -0.205 F 
BRANCH  34  38
ATOM     38  C   UNL     1       1.583 -14.712  -8.408  0.00  0.00    +0.418 C 
ATOM     39  F   UNL     1       2.018 -15.818  -7.671  0.00  0.00    -0.166 F 
ATOM     40  F   UNL     1       0.524 -15.093  -9.239  0.00  0.00    -0.166 F 
ATOM     41  F   UNL     1       2.638 -14.228  -9.189  0.00  0.00    -0.166 F 
ENDBRANCH  34  38
ENDBRANCH  28  31
ENDBRANCH   4  27
BRANCH   5  42
ATOM     42  O   UNL     1       2.088  -7.284  -4.035  0.00  0.00    -0.493 OA
ATOM     43  C   UNL     1       2.772  -6.047  -3.822  0.00  0.00    +0.277 C 
ENDBRANCH   5  42
TORSDOF 7
