REMARK  Name = CHEMBL1076196
REMARK  10 active torsions:
REMARK  status: ('A' for Active; 'I' for Inactive)
REMARK    1  A    between atoms: C_1  and  C_2
REMARK    2  A    between atoms: C_6  and  N_8
REMARK    3  A    between atoms: C_9  and  C_11
REMARK    4  A    between atoms: C_14  and  C_43
REMARK    5  A    between atoms: C_15  and  N_17
REMARK    6  A    between atoms: C_29  and  N_33
REMARK    7  A    between atoms: N_33  and  C_34
REMARK    8  A    between atoms: C_34  and  C_35
REMARK    9  A    between atoms: C_35  and  N_36
REMARK   10  A    between atoms: N_39  and  C_42
REMARK                            x       y       z     vdW  Elec       q    Type
REMARK                         _______ _______ _______ _____ _____    ______ ____
ROOT
ATOM      1  N   UNL     1       1.285  -8.810   4.579  0.00  0.00    -0.284 N 
ATOM      2  C   UNL     1       0.492  -9.264   3.545  0.00  0.00    +0.207 A 
ATOM      3  N   UNL     1       0.328  -8.654   2.398  0.00  0.00    -0.214 NA
ATOM      4  C   UNL     1      -0.515  -9.375   1.612  0.00  0.00    +0.091 A 
ATOM      5  C   UNL     1      -1.020  -9.188   0.323  0.00  0.00    +0.030 A 
ATOM      6  C   UNL     1      -1.879 -10.118  -0.217  0.00  0.00    +0.002 A 
ATOM      7  C   UNL     1      -2.248 -11.240   0.509  0.00  0.00    +0.002 A 
ATOM      8  C   UNL     1      -1.759 -11.440   1.784  0.00  0.00    +0.028 A 
ATOM      9  C   UNL     1      -0.892 -10.514   2.343  0.00  0.00    +0.077 A 
ATOM     10  N   UNL     1      -0.237 -10.424   3.563  0.00  0.00    -0.264 N 
ATOM     11  C   UNL     1      -0.309 -11.340   4.611  0.00  0.00    +0.145 A 
ATOM     12  C   UNL     1      -0.537 -10.906   5.911  0.00  0.00    +0.090 A 
ATOM     13  C   UNL     1      -0.601 -11.861   6.923  0.00  0.00    +0.124 A 
ATOM     14  N   UNL     1      -0.442 -13.145   6.610  0.00  0.00    -0.221 NA
ATOM     15  C   UNL     1      -0.227 -13.515   5.364  0.00  0.00    +0.225 A 
ATOM     16  N   UNL     1      -0.165 -12.642   4.379  0.00  0.00    -0.218 NA
ATOM     17  H   UNL     1       1.424  -9.364   5.363  0.00  0.00    +0.155 HD
ENDROOT
BRANCH   1  22
ATOM     18  C   UNL     1       2.044  -5.373   3.485  0.00  0.00    +0.039 A 
ATOM     19  C   UNL     1       3.097  -5.056   4.345  0.00  0.00    +0.013 A 
ATOM     20  C   UNL     1       3.536  -5.982   5.269  0.00  0.00    +0.006 A 
ATOM     21  C   UNL     1       2.937  -7.225   5.347  0.00  0.00    -0.029 A 
ATOM     22  C   UNL     1       1.887  -7.551   4.496  0.00  0.00    +0.037 A 
ATOM     23  C   UNL     1       1.435  -6.625   3.568  0.00  0.00    +0.036 A 
ATOM     24  C   UNL     1       3.423  -8.231   6.359  0.00  0.00    +0.045 C 
BRANCH  18  26
ATOM     25  N   UNL     1       2.161  -3.173   2.417  0.00  0.00    -0.281 N 
ATOM     26  C   UNL     1       1.571  -4.382   2.495  0.00  0.00    +0.248 C 
ATOM     27  O   UNL     1       0.650  -4.659   1.751  0.00  0.00    -0.270 OA
ATOM     28  H   UNL     1       2.941  -2.978   2.959  0.00  0.00    +0.155 HD
BRANCH  25  34
ATOM     29  C   UNL     1       2.927   0.615  -0.622  0.00  0.00    +0.044 C 
ATOM     30  C   UNL     1       1.997  -0.350   0.068  0.00  0.00    -0.049 A 
ATOM     31  C   UNL     1       0.634  -0.272  -0.153  0.00  0.00    +0.003 A 
ATOM     32  C   UNL     1      -0.223  -1.155   0.478  0.00  0.00    +0.002 A 
ATOM     33  C   UNL     1       0.280  -2.118   1.331  0.00  0.00    +0.023 A 
ATOM     34  C   UNL     1       1.648  -2.199   1.554  0.00  0.00    +0.034 A 
ATOM     35  C   UNL     1       2.507  -1.314   0.914  0.00  0.00    +0.026 A 
ENDBRANCH  25  34
ENDBRANCH  18  26
ENDBRANCH   1  22
BRANCH  13  36
ATOM     36  N   UNL     1      -0.827 -11.480   8.236  0.00  0.00    -0.328 N 
ATOM     37  H   UNL     1      -0.870 -12.151   8.936  0.00  0.00    +0.147 HD
BRANCH  36  38
ATOM     38  C   UNL     1      -1.000 -10.064   8.569  0.00  0.00    +0.118 C 
BRANCH  38  39
ATOM     39  C   UNL     1      -1.232  -9.918  10.074  0.00  0.00    +0.103 C 
BRANCH  39  40
ATOM     40  N   UNL     1      -1.406  -8.498  10.407  0.00  0.00    -0.304 NA
ATOM     41  C   UNL     1      -0.163  -7.747  10.177  0.00  0.00    +0.066 C 
ATOM     42  C   UNL     1      -0.403  -6.266  10.478  0.00  0.00    -0.064 C 
ATOM     43  N   UNL     1      -0.835  -6.114  11.873  0.00  0.00    +0.379 N 
ATOM     44  C   UNL     1      -2.089  -6.848  12.082  0.00  0.00    -0.064 C 
ATOM     45  C   UNL     1      -1.864  -8.334  11.794  0.00  0.00    +0.066 C 
ATOM     46  C   UNL     1      -1.047  -4.690  12.167  0.00  0.00    -0.096 C 
ATOM     47  H   UNL     1      -0.124  -6.481  12.488  0.00  0.00    -0.082 HD
ENDBRANCH  39  40
ENDBRANCH  38  39
ENDBRANCH  36  38
ENDBRANCH  13  36
TORSDOF 7
