REMARK  Name = CHEMBL411050
REMARK  9 active torsions:
REMARK  status: ('A' for Active; 'I' for Inactive)
REMARK    1  A    between atoms: C_1  and  C_2
REMARK    2  A    between atoms: C_5  and  N_31
REMARK    3  A    between atoms: C_7  and  C_8
REMARK    4  A    between atoms: N_10  and  C_11
REMARK    5  A    between atoms: N_17  and  C_18
REMARK    6  A    between atoms: C_21  and  N_24
REMARK    7  A    between atoms: N_27  and  C_30
REMARK    8  A    between atoms: C_32  and  C_34
REMARK    9  A    between atoms: C_38  and  C_39
REMARK                            x       y       z     vdW  Elec       q    Type
REMARK                         _______ _______ _______ _____ _____    ______ ____
ROOT
ATOM      1  C   UNL     1      -0.107  -0.451   4.997  0.00  0.00    +0.070 A 
ATOM      2  C   UNL     1      -0.256   0.927   5.127  0.00  0.00    +0.139 A 
ATOM      3  N   UNL     1      -0.199   1.470   6.331  0.00  0.00    -0.221 NA
ATOM      4  C   UNL     1      -0.002   0.719   7.405  0.00  0.00    +0.220 A 
ATOM      5  N   UNL     1       0.144  -0.594   7.319  0.00  0.00    -0.221 NA
ATOM      6  C   UNL     1       0.093  -1.207   6.148  0.00  0.00    +0.139 A 
ATOM      7  N   UNL     1       0.052   1.325   8.651  0.00  0.00    -0.284 N 
ATOM      8  H   UNL     1      -0.134   2.273   8.739  0.00  0.00    +0.155 HD
ENDROOT
BRANCH   7   9
ATOM      9  C   UNL     1       0.376   0.568   9.784  0.00  0.00    +0.034 A 
ATOM     10  C   UNL     1       1.287  -0.476   9.685  0.00  0.00    +0.025 A 
ATOM     11  C   UNL     1       1.605  -1.222  10.802  0.00  0.00    +0.025 A 
ATOM     12  C   UNL     1       1.014  -0.930  12.025  0.00  0.00    +0.030 A 
ATOM     13  C   UNL     1       0.103   0.113  12.124  0.00  0.00    +0.025 A 
ATOM     14  C   UNL     1      -0.211   0.863  11.008  0.00  0.00    +0.025 A 
BRANCH  12  15
ATOM     15  N   UNL     1       1.337  -1.688  13.157  0.00  0.00    -0.333 N 
ATOM     16  C   UNL     1       0.631  -1.482  14.431  0.00  0.00    +0.086 C 
ATOM     17  C   UNL     1       0.152  -2.843  14.946  0.00  0.00    -0.060 C 
ATOM     18  N   UNL     1       1.294  -3.763  15.028  0.00  0.00    +0.380 N 
ATOM     19  C   UNL     1       1.830  -4.016  13.684  0.00  0.00    -0.060 C 
ATOM     20  C   UNL     1       2.387  -2.716  13.104  0.00  0.00    +0.086 C 
ATOM     21  C   UNL     1       0.857  -5.032  15.625  0.00  0.00    -0.096 C 
ATOM     22  H   UNL     1       2.014  -3.353  15.604  0.00  0.00    -0.082 HD
ENDBRANCH  12  15
ENDBRANCH   7   9
BRANCH   1  25
ATOM     23  C   UNL     1       0.334  -0.426   2.657  0.00  0.00    +0.249 C 
ATOM     24  O   UNL     1       0.751   0.711   2.759  0.00  0.00    -0.270 OA
ATOM     25  N   UNL     1      -0.161  -1.062   3.737  0.00  0.00    -0.279 N 
ATOM     26  H   UNL     1      -0.555  -1.944   3.643  0.00  0.00    +0.155 HD
BRANCH  23  33
ATOM     27  C   UNL     1       1.557   0.888   0.391  0.00  0.00    +0.044 C 
ATOM     28  C   UNL     1       0.957  -0.487   0.246  0.00  0.00    -0.038 A 
ATOM     29  C   UNL     1       0.994  -1.131  -0.974  0.00  0.00    +0.006 A 
ATOM     30  C   UNL     1       0.445  -2.392  -1.112  0.00  0.00    +0.023 A 
ATOM     31  C   UNL     1      -0.148  -3.020  -0.023  0.00  0.00    +0.034 A 
ATOM     32  C   UNL     1      -0.190  -2.382   1.207  0.00  0.00    +0.036 A 
ATOM     33  C   UNL     1       0.369  -1.111   1.347  0.00  0.00    +0.042 A 
BRANCH  31  34
ATOM     34  N   UNL     1      -0.703  -4.296  -0.168  0.00  0.00    -0.281 N 
ATOM     35  C   UNL     1      -1.804  -4.635   0.530  0.00  0.00    +0.253 C 
ATOM     36  O   UNL     1      -2.371  -3.804   1.214  0.00  0.00    -0.270 OA
ATOM     37  H   UNL     1      -0.294  -4.936  -0.771  0.00  0.00    +0.155 HD
BRANCH  35  38
ATOM     38  C   UNL     1      -2.323  -6.013   0.465  0.00  0.00    +0.098 A 
ATOM     39  C   UNL     1      -1.756  -7.123  -0.302  0.00  0.00    +0.170 A 
ATOM     40  N   UNL     1      -2.510  -8.161  -0.088  0.00  0.00    -0.086 NA
ATOM     41  O   UNL     1      -3.555  -7.790   0.788  0.00  0.00    -0.359 OA
ATOM     42  C   UNL     1      -3.422  -6.501   1.113  0.00  0.00    +0.146 A 
ATOM     43  C   UNL     1      -4.328  -5.720   2.029  0.00  0.00    +0.090 C 
ENDBRANCH  35  38
ENDBRANCH  31  34
ENDBRANCH  23  33
ENDBRANCH   1  25
TORSDOF 6
