REMARK  Name = CHEMBL423312
REMARK  6 active torsions:
REMARK  status: ('A' for Active; 'I' for Inactive)
REMARK    1  A    between atoms: C_1  and  C_2
REMARK    2  A    between atoms: C_7  and  N_8
REMARK    3  A    between atoms: C_9  and  C_11
REMARK    4  A    between atoms: C_23  and  C_34
REMARK    5  A    between atoms: C_25  and  C_27
REMARK    6  A    between atoms: C_27  and  N_28
REMARK                            x       y       z     vdW  Elec       q    Type
REMARK                         _______ _______ _______ _____ _____    ______ ____
ROOT
ATOM      1  C   UNL     1      -0.500   0.119   4.803  0.00  0.00    +0.038 A 
ATOM      2  C   UNL     1      -0.209   1.490   4.836  0.00  0.00    +0.015 A 
ATOM      3  C   UNL     1      -0.290   2.203   5.987  0.00  0.00    +0.029 A 
ATOM      4  C   UNL     1      -0.673   1.586   7.204  0.00  0.00    +0.080 A 
ATOM      5  C   UNL     1      -0.963   0.200   7.144  0.00  0.00    +0.041 A 
ATOM      6  C   UNL     1      -0.888  -0.521   5.984  0.00  0.00    +0.030 A 
ATOM      7  S   UNL     1      -1.388  -0.171   8.829  0.00  0.00    -0.052 S 
ATOM      8  C   UNL     1      -1.163   1.477   9.484  0.00  0.00    +0.165 A 
ATOM      9  N   UNL     1      -0.798   2.155   8.418  0.00  0.00    -0.225 NA
ATOM     10  N   UNL     1      -1.331   1.924  10.780  0.00  0.00    -0.279 N 
ATOM     11  C   UNL     1      -1.209   3.276  11.069  0.00  0.00    +0.128 A 
ATOM     12  C   UNL     1      -1.486   3.755  12.350  0.00  0.00    +0.067 A 
ATOM     13  C   UNL     1      -1.351   5.109  12.588  0.00  0.00    +0.044 A 
ATOM     14  N   UNL     1      -0.966   5.903  11.599  0.00  0.00    -0.236 NA
ATOM     15  C   UNL     1      -0.712   5.420  10.400  0.00  0.00    +0.145 A 
ATOM     16  N   UNL     1      -0.822   4.135  10.130  0.00  0.00    -0.216 NA
ATOM     17  C   UNL     1      -1.639   5.676  13.954  0.00  0.00    +0.066 C 
ATOM     18  H   UNL     1      -1.532   1.292  11.488  0.00  0.00    +0.155 HD
ENDROOT
BRANCH   1  20
ATOM     19  N   UNL     1      -0.030  -0.008   2.406  0.00  0.00    -0.280 N 
ATOM     20  C   UNL     1      -0.405  -0.635   3.539  0.00  0.00    +0.248 C 
ATOM     21  O   UNL     1      -0.664  -1.823   3.519  0.00  0.00    -0.270 OA
ATOM     22  H   UNL     1       0.254   0.919   2.437  0.00  0.00    +0.155 HD
BRANCH  19  29
ATOM     23  C   UNL     1      -1.417   1.177   0.223  0.00  0.00    +0.046 C 
ATOM     24  C   UNL     1      -0.717  -0.152   0.096  0.00  0.00    -0.028 A 
ATOM     25  C   UNL     1      -0.732  -0.829  -1.108  0.00  0.00    +0.005 A 
ATOM     26  C   UNL     1      -0.090  -2.048  -1.226  0.00  0.00    +0.002 A 
ATOM     27  C   UNL     1       0.569  -2.594  -0.140  0.00  0.00    +0.022 A 
ATOM     28  C   UNL     1       0.588  -1.922   1.067  0.00  0.00    +0.062 A 
ATOM     29  C   UNL     1      -0.052  -0.694   1.187  0.00  0.00    +0.055 A 
ATOM     30 CL   UNL     1       1.415  -2.608   2.431  0.00  0.00    -0.082 Cl
ENDBRANCH  19  29
ENDBRANCH   1  20
BRANCH  15  31
ATOM     31  C   UNL     1      -0.276   6.362   9.307  0.00  0.00    +0.160 C 
BRANCH  31  32
ATOM     32  N   UNL     1       1.188   6.473   9.311  0.00  0.00    -0.291 NA
ATOM     33  C   UNL     1       1.664   7.128  10.539  0.00  0.00    +0.113 C 
ATOM     34  C   UNL     1       3.194   7.169  10.529  0.00  0.00    +0.175 C 
ATOM     35  O   UNL     1       3.640   7.843   9.349  0.00  0.00    -0.377 OA
ATOM     36  C   UNL     1       3.196   7.231   8.135  0.00  0.00    +0.175 C 
ATOM     37  C   UNL     1       1.666   7.191   8.120  0.00  0.00    +0.113 C 
ENDBRANCH  31  32
ENDBRANCH  15  31
TORSDOF 4
