REMARK  Name = CHEMBL1080475
REMARK  9 active torsions:
REMARK  status: ('A' for Active; 'I' for Inactive)
REMARK    1  A    between atoms: C_1  and  C_2
REMARK    2  A    between atoms: C_5  and  N_25
REMARK    3  A    between atoms: C_7  and  N_8
REMARK    4  A    between atoms: C_20  and  N_24
REMARK    5  A    between atoms: C_26  and  C_28
REMARK    6  A    between atoms: C_33  and  C_34
REMARK    7  A    between atoms: C_34  and  C_35
REMARK    8  A    between atoms: C_34  and  C_36
REMARK    9  A    between atoms: C_34  and  C_37
REMARK                            x       y       z     vdW  Elec       q    Type
REMARK                         _______ _______ _______ _____ _____    ______ ____
ROOT
ATOM      1  C   UNL     1      -7.657  -0.759   6.794  0.00  0.00    +0.045 C 
ATOM      2  C   UNL     1      -6.553  -1.676   6.334  0.00  0.00    -0.029 A 
ATOM      3  C   UNL     1      -6.733  -3.045   6.372  0.00  0.00    +0.007 A 
ATOM      4  C   UNL     1      -5.723  -3.889   5.952  0.00  0.00    +0.024 A 
ATOM      5  C   UNL     1      -4.522  -3.363   5.490  0.00  0.00    +0.035 A 
ATOM      6  C   UNL     1      -4.339  -1.988   5.450  0.00  0.00    +0.047 A 
ATOM      7  C   UNL     1      -5.358  -1.143   5.868  0.00  0.00    +0.038 A 
ENDROOT
BRANCH   7   8
ATOM      8  N   UNL     1      -5.179   0.243   5.824  0.00  0.00    -0.284 N 
ATOM      9  C   UNL     1      -4.055   0.775   5.227  0.00  0.00    +0.207 A 
ATOM     10  N   UNL     1      -3.152   0.087   4.575  0.00  0.00    -0.214 NA
ATOM     11  C   UNL     1      -2.182   0.922   4.117  0.00  0.00    +0.091 A 
ATOM     12  C   UNL     1      -1.013   0.720   3.379  0.00  0.00    +0.030 A 
ATOM     13  C   UNL     1      -0.211   1.794   3.060  0.00  0.00    +0.002 A 
ATOM     14  C   UNL     1      -0.556   3.074   3.466  0.00  0.00    +0.002 A 
ATOM     15  C   UNL     1      -1.707   3.290   4.196  0.00  0.00    +0.028 A 
ATOM     16  C   UNL     1      -2.526   2.221   4.525  0.00  0.00    +0.077 A 
ATOM     17  N   UNL     1      -3.720   2.103   5.221  0.00  0.00    -0.264 N 
ATOM     18  C   UNL     1      -4.442   3.141   5.809  0.00  0.00    +0.145 A 
ATOM     19  C   UNL     1      -5.274   3.945   5.038  0.00  0.00    +0.090 A 
ATOM     20  C   UNL     1      -5.974   4.968   5.672  0.00  0.00    +0.121 A 
ATOM     21  N   UNL     1      -5.822   5.138   6.984  0.00  0.00    -0.221 NA
ATOM     22  C   UNL     1      -5.023   4.355   7.678  0.00  0.00    +0.225 A 
ATOM     23  N   UNL     1      -4.348   3.373   7.115  0.00  0.00    -0.218 NA
ATOM     24  H   UNL     1      -5.845   0.830   6.214  0.00  0.00    +0.155 HD
BRANCH  20  25
ATOM     25  N   UNL     1      -6.816   5.797   4.948  0.00  0.00    -0.343 N 
ATOM     26  H   UNL     1      -6.921   5.667   3.993  0.00  0.00    +0.144 HD
ATOM     27  H   UNL     1      -7.300   6.508   5.397  0.00  0.00    +0.144 HD
ENDBRANCH  20  25
ENDBRANCH   7   8
BRANCH   5  28
ATOM     28  N   UNL     1      -3.501  -4.218   5.066  0.00  0.00    -0.281 N 
ATOM     29  C   UNL     1      -3.805  -5.396   4.487  0.00  0.00    +0.249 C 
ATOM     30  O   UNL     1      -4.964  -5.678   4.254  0.00  0.00    -0.270 OA
ATOM     31  H   UNL     1      -2.573  -3.963   5.188  0.00  0.00    +0.155 HD
BRANCH  29  32
ATOM     32  C   UNL     1      -2.726  -6.349   4.134  0.00  0.00    +0.044 A 
ATOM     33  C   UNL     1      -1.398  -6.093   4.490  0.00  0.00    +0.033 A 
ATOM     34  C   UNL     1      -0.424  -7.009   4.141  0.00  0.00    +0.111 A 
ATOM     35  N   UNL     1      -0.733  -8.109   3.484  0.00  0.00    -0.263 NA
ATOM     36  C   UNL     1      -1.972  -8.388   3.130  0.00  0.00    +0.115 A 
ATOM     37  C   UNL     1      -3.009  -7.530   3.443  0.00  0.00    -0.012 A 
BRANCH  37  38
ATOM     38  C   UNL     1      -4.423  -7.861   3.039  0.00  0.00    -0.011 C 
ATOM     39  C   UNL     1      -4.435  -9.174   2.254  0.00  0.00    +0.015 C 
ATOM     40  C   UNL     1      -5.289  -8.008   4.292  0.00  0.00    +0.015 C 
ATOM     41  C   UNL     1      -4.979  -6.737   2.163  0.00  0.00    +0.015 C 
ENDBRANCH  37  38
ENDBRANCH  29  32
ENDBRANCH   5  28
TORSDOF 5
