REMARK  Name = CHEMBL568101
REMARK  6 active torsions:
REMARK  status: ('A' for Active; 'I' for Inactive)
REMARK    1  A    between atoms: C_1  and  C_2
REMARK    2  A    between atoms: C_2  and  C_3
REMARK    3  A    between atoms: C_2  and  N_23
REMARK    4  A    between atoms: N_8  and  C_9
REMARK    5  A    between atoms: N_12  and  C_13
REMARK    6  A    between atoms: C_28  and  N_30
REMARK                            x       y       z     vdW  Elec       q    Type
REMARK                         _______ _______ _______ _____ _____    ______ ____
ROOT
ATOM      1  C   UNL     1      -1.826  -0.904   1.333  0.00  0.00    +0.094 C 
ATOM      2  C   UNL     1      -2.292   0.103   0.276  0.00  0.00    +0.130 C 
ATOM      3  N   UNL     1      -3.504  -0.423  -0.369  0.00  0.00    -0.283 N 
ATOM      4  C   UNL     1      -3.473  -1.796  -0.896  0.00  0.00    +0.124 C 
ATOM      5  C   UNL     1      -2.961  -2.729   0.207  0.00  0.00    +0.103 C 
ATOM      6  N   UNL     1      -1.675  -2.227   0.711  0.00  0.00    -0.298 NA
ATOM      7  C   UNL     1      -1.067  -3.182   1.647  0.00  0.00    +0.105 C 
ATOM      8  C   UNL     1      -4.615   0.333  -0.474  0.00  0.00    +0.307 C 
ATOM      9  O   UNL     1      -4.595   1.496  -0.120  0.00  0.00    -0.252 OA
ATOM     10  N   UNL     1      -5.748  -0.200  -0.973  0.00  0.00    -0.269 N 
ATOM     11  H   UNL     1      -5.781  -1.142  -1.202  0.00  0.00    +0.156 HD
ENDROOT
BRANCH  10  12
ATOM     12  C   UNL     1      -6.877   0.605  -1.159  0.00  0.00    +0.035 A 
ATOM     13  C   UNL     1      -6.718   1.942  -1.544  0.00  0.00    +0.024 A 
ATOM     14  C   UNL     1      -7.796   2.747  -1.733  0.00  0.00    +0.010 A 
ATOM     15  C   UNL     1      -9.093   2.239  -1.541  0.00  0.00    -0.018 A 
ATOM     16  C   UNL     1     -10.227   3.048  -1.730  0.00  0.00    +0.008 A 
ATOM     17  C   UNL     1     -11.468   2.525  -1.537  0.00  0.00    +0.001 A 
ATOM     18  C   UNL     1     -11.635   1.195  -1.153  0.00  0.00    +0.001 A 
ATOM     19  C   UNL     1     -10.561   0.381  -0.962  0.00  0.00    +0.008 A 
ATOM     20  C   UNL     1      -9.263   0.886  -1.152  0.00  0.00    -0.016 A 
ATOM     21  C   UNL     1      -8.133   0.073  -0.969  0.00  0.00    +0.031 A 
ENDBRANCH  10  12
BRANCH   1  23
ATOM     22  C   UNL     1       0.547  -0.349   0.782  0.00  0.00    +0.029 C 
ATOM     23  C   UNL     1      -0.482  -0.455   1.909  0.00  0.00    +0.089 C 
BRANCH  23  24
ATOM     24  N   UNL     1      -0.639   0.852   2.552  0.00  0.00    -0.309 N 
ATOM     25  C   UNL     1       0.269   1.264   3.511  0.00  0.00    +0.217 A 
ATOM     26  N   UNL     1       1.277   0.467   3.832  0.00  0.00    -0.223 NA
ATOM     27  C   UNL     1       2.166   0.828   4.745  0.00  0.00    +0.118 A 
ATOM     28  C   UNL     1       2.035   2.055   5.369  0.00  0.00    +0.066 A 
ATOM     29  C   UNL     1       0.963   2.872   5.010  0.00  0.00    +0.144 A 
ATOM     30  N   UNL     1       0.112   2.449   4.082  0.00  0.00    -0.197 NA
ATOM     31  H   UNL     1      -1.379   1.428   2.305  0.00  0.00    +0.149 HD
BRANCH  29  32
ATOM     32  N   UNL     1       0.791   4.117   5.612  0.00  0.00    -0.283 N 
ATOM     33  C   UNL     1       1.594   4.673   6.565  0.00  0.00    +0.206 A 
ATOM     34  N   UNL     1       1.139   5.843   6.903  0.00  0.00    -0.235 NA
ATOM     35  C   UNL     1       0.015   6.122   6.193  0.00  0.00    +0.089 A 
ATOM     36  C   UNL     1      -0.222   5.022   5.351  0.00  0.00    +0.075 A 
ATOM     37  C   UNL     1      -1.314   5.028   4.495  0.00  0.00    +0.028 A 
ATOM     38  C   UNL     1      -2.162   6.115   4.472  0.00  0.00    +0.002 A 
ATOM     39  C   UNL     1      -1.930   7.205   5.299  0.00  0.00    +0.002 A 
ATOM     40  C   UNL     1      -0.856   7.213   6.160  0.00  0.00    +0.030 A 
ENDBRANCH  29  32
ENDBRANCH  23  24
ENDBRANCH   1  23
TORSDOF 4
