REMARK  Name = CHEMBL215630
REMARK  8 active torsions:
REMARK  status: ('A' for Active; 'I' for Inactive)
REMARK    1  A    between atoms: C_1  and  C_2
REMARK    2  A    between atoms: C_4  and  C_29
REMARK    3  A    between atoms: C_5  and  N_9
REMARK    4  A    between atoms: C_6  and  C_8
REMARK    5  A    between atoms: C_10  and  C_12
REMARK    6  A    between atoms: C_13  and  C_28
REMARK    7  A    between atoms: N_20  and  C_21
REMARK    8  A    between atoms: C_21  and  C_22
REMARK                            x       y       z     vdW  Elec       q    Type
REMARK                         _______ _______ _______ _____ _____    ______ ____
ROOT
ATOM      1  C   UNL     1       0.399  -6.430   0.970  0.00  0.00    +0.098 A 
ATOM      2  C   UNL     1       0.767  -7.332   1.959  0.00  0.00    +0.060 A 
ATOM      3  N   UNL     1       0.718  -8.600   1.637  0.00  0.00    -0.229 NA
ATOM      4  C   UNL     1       0.338  -8.993   0.435  0.00  0.00    +0.166 A 
ATOM      5  S   UNL     1       0.001  -7.550  -0.363  0.00  0.00    -0.047 S 
ATOM      6  N   UNL     1       0.236 -10.284  -0.051  0.00  0.00    -0.248 N 
ATOM      7  C   UNL     1      -0.173 -10.497  -1.317  0.00  0.00    +0.306 C 
ATOM      8  O   UNL     1      -0.453  -9.555  -2.033  0.00  0.00    -0.252 OA
ATOM      9  N   UNL     1      -0.272 -11.755  -1.791  0.00  0.00    -0.295 N 
ATOM     10  C   UNL     1       1.200  -6.875   3.329  0.00  0.00    +0.067 C 
ATOM     11  H   UNL     1       0.460 -11.036   0.519  0.00  0.00    +0.158 HD
ATOM     12  H   UNL     1      -0.049 -12.507  -1.220  0.00  0.00    +0.151 HD
ENDROOT
BRANCH   1  14
ATOM     13  N   UNL     1      -0.051  -4.279  -0.077  0.00  0.00    -0.281 N 
ATOM     14  C   UNL     1       0.346  -4.969   1.010  0.00  0.00    +0.257 C 
ATOM     15  O   UNL     1       0.661  -4.376   2.026  0.00  0.00    -0.269 OA
ATOM     16  H   UNL     1      -0.370  -4.752  -0.862  0.00  0.00    +0.155 HD
BRANCH  13  21
ATOM     17  C   UNL     1       0.136   1.390  -0.064  0.00  0.00    +0.044 C 
ATOM     18  C   UNL     1       0.086  -0.116  -0.068  0.00  0.00    -0.050 A 
ATOM     19  C   UNL     1       0.757  -0.826  -1.046  0.00  0.00    +0.008 A 
ATOM     20  C   UNL     1       0.714  -2.206  -1.052  0.00  0.00    -0.029 A 
ATOM     21  C   UNL     1      -0.005  -2.881  -0.074  0.00  0.00    +0.040 A 
ATOM     22  C   UNL     1      -0.678  -2.165   0.907  0.00  0.00    -0.029 A 
ATOM     23  C   UNL     1      -0.627  -0.785   0.911  0.00  0.00    +0.008 A 
ATOM     24  C   UNL     1      -1.460  -2.893   1.970  0.00  0.00    +0.045 C 
ATOM     25  C   UNL     1       1.446  -2.979  -2.118  0.00  0.00    +0.045 C 
ENDBRANCH  13  21
ENDBRANCH   1  14
BRANCH   9  26
ATOM     26  C   UNL     1      -0.717 -11.986  -3.167  0.00  0.00    +0.141 C 
BRANCH  26  27
ATOM     27  C   UNL     1      -0.741 -13.467  -3.445  0.00  0.00    -0.030 A 
ATOM     28  C   UNL     1       0.385 -14.096  -3.943  0.00  0.00    +0.005 A 
ATOM     29  C   UNL     1       0.363 -15.454  -4.198  0.00  0.00    +0.000 A 
ATOM     30  C   UNL     1      -0.785 -16.184  -3.954  0.00  0.00    +0.000 A 
ATOM     31  C   UNL     1      -1.911 -15.556  -3.456  0.00  0.00    +0.000 A 
ATOM     32  C   UNL     1      -1.888 -14.198  -3.197  0.00  0.00    +0.005 A 
ENDBRANCH  26  27
ENDBRANCH   9  26
TORSDOF 4
