REMARK  Name = CHEMBL102362
REMARK  6 active torsions:
REMARK  status: ('A' for Active; 'I' for Inactive)
REMARK    1  A    between atoms: C_3  and  O_20
REMARK    2  A    between atoms: C_4  and  C_17
REMARK    3  A    between atoms: C_6  and  C_7
REMARK    4  A    between atoms: C_8  and  C_9
REMARK    5  A    between atoms: C_11  and  O_16
REMARK    6  A    between atoms: C_14  and  O_15
REMARK                            x       y       z     vdW  Elec       q    Type
REMARK                         _______ _______ _______ _____ _____    ______ ____
ROOT
ATOM      1  C   UNL     1      -1.264  -0.758   0.011  0.00  0.00    +0.008 C 
ATOM      2  C   UNL     1      -2.436  -0.103   0.026  0.00  0.00    +0.012 C 
ENDROOT
BRANCH   1   8
ATOM      3  C   UNL     1      -0.017   1.396   0.010  0.00  0.00    +0.011 A 
ATOM      4  C   UNL     1       1.163   2.106   0.002  0.00  0.00    +0.047 A 
ATOM      5  C   UNL     1       2.381   1.440  -0.013  0.00  0.00    +0.131 A 
ATOM      6  C   UNL     1       2.413   0.036  -0.021  0.00  0.00    +0.105 A 
ATOM      7  C   UNL     1       1.218  -0.684  -0.013  0.00  0.00    +0.026 A 
ATOM      8  C   UNL     1       0.002  -0.004   0.002  0.00  0.00    -0.024 A 
BRANCH   6   9
ATOM      9  C   UNL     1       3.703  -0.673  -0.038  0.00  0.00    +0.390 C 
ATOM     10  O   UNL     1       3.729  -1.896  -0.045  0.00  0.00    -0.240 OA
ATOM     11  O   UNL     1       4.750  -0.040  -0.046  0.00  0.00    -0.240 OA
ENDBRANCH   6   9
BRANCH   5  12
ATOM     12  O   UNL     1       3.539   2.145  -0.022  0.00  0.00    -0.506 OA
ATOM     13  H   UNL     1       3.884   2.345   0.859  0.00  0.00    +0.292 HD
ENDBRANCH   5  12
ENDBRANCH   1   8
BRANCH   2  14
ATOM     14  C   UNL     1      -3.701  -0.857   0.034  0.00  0.00    +0.020 A 
ATOM     15  C   UNL     1      -3.686  -2.254   0.033  0.00  0.00    +0.057 A 
ATOM     16  C   UNL     1      -4.879  -2.955   0.041  0.00  0.00    +0.118 A 
ATOM     17  C   UNL     1      -6.089  -2.274   0.051  0.00  0.00    +0.049 A 
ATOM     18  C   UNL     1      -6.112  -0.892   0.052  0.00  0.00    +0.049 A 
ATOM     19  C   UNL     1      -4.927  -0.176   0.050  0.00  0.00    +0.124 A 
BRANCH  19  20
ATOM     20  O   UNL     1      -4.951   1.183   0.057  0.00  0.00    -0.506 OA
ATOM     21  H   UNL     1      -4.967   1.580  -0.824  0.00  0.00    +0.292 HD
ENDBRANCH  19  20
BRANCH  16  22
ATOM     22  O   UNL     1      -4.866  -4.315   0.039  0.00  0.00    -0.507 OA
ATOM     23  H   UNL     1      -4.855  -4.709   0.922  0.00  0.00    +0.292 HD
ENDBRANCH  16  22
ENDBRANCH   2  14
TORSDOF 6
