REMARK  Name = CHEMBL426438
REMARK  4 active torsions:
REMARK  status: ('A' for Active; 'I' for Inactive)
REMARK    1  A    between atoms: C_1  and  C_2
REMARK    2  A    between atoms: C_7  and  N_8
REMARK    3  A    between atoms: C_17  and  C_18
REMARK    4  A    between atoms: N_19  and  C_22
REMARK                            x       y       z     vdW  Elec       q    Type
REMARK                         _______ _______ _______ _____ _____    ______ ____
ROOT
ATOM      1  N   UNL     1       0.354   0.035   2.640  0.00  0.00    -0.229 NA
ATOM      2  C   UNL     1      -0.806   0.275   3.212  0.00  0.00    +0.146 C 
ATOM      3  N   UNL     1      -2.033  -0.184   2.672  0.00  0.00    -0.303 N 
ATOM      4  C   UNL     1      -3.149   0.673   2.996  0.00  0.00    +0.233 C 
ATOM      5  C   UNL     1      -3.353   0.651   4.545  0.00  0.00    +0.220 C 
ATOM      6  N   UNL     1      -2.165   1.245   5.101  0.00  0.00    -0.302 N 
ATOM      7  C   UNL     1      -0.932   1.038   4.469  0.00  0.00    +0.103 A 
ATOM      8  C   UNL     1      -0.004   1.658   5.226  0.00  0.00    +0.142 A 
ATOM      9  N   UNL     1      -0.638   2.232   6.258  0.00  0.00    -0.240 NA
ATOM     10  C   UNL     1      -1.926   1.998   6.173  0.00  0.00    +0.109 A 
ATOM     11  C   UNL     1      -2.968   2.489   7.145  0.00  0.00    +0.086 C 
ATOM     12  N   UNL     1      -4.629   1.361   4.574  0.00  0.00    -0.301 N 
ATOM     13  C   UNL     1      -5.309   0.831   3.481  0.00  0.00    +0.182 C 
ATOM     14  N   UNL     1      -4.495   0.405   2.545  0.00  0.00    -0.250 NA
ATOM     15  C   UNL     1      -5.083   2.380   5.524  0.00  0.00    +0.132 C 
ATOM     16  H   UNL     1      -2.115  -0.991   2.140  0.00  0.00    +0.150 HD
ENDROOT
BRANCH   1  23
ATOM     17  C   UNL     1       0.200   1.480   0.199  0.00  0.00    +0.046 C 
ATOM     18  C   UNL     1       0.336  -0.020   0.245  0.00  0.00    -0.024 A 
ATOM     19  C   UNL     1       0.397  -0.746  -0.926  0.00  0.00    +0.005 A 
ATOM     20  C   UNL     1       0.522  -2.123  -0.886  0.00  0.00    +0.002 A 
ATOM     21  C   UNL     1       0.589  -2.784   0.328  0.00  0.00    +0.022 A 
ATOM     22  C   UNL     1       0.530  -2.071   1.509  0.00  0.00    +0.067 A 
ATOM     23  C   UNL     1       0.408  -0.679   1.475  0.00  0.00    +0.087 A 
ATOM     24 CL   UNL     1       0.613  -2.901   3.031  0.00  0.00    -0.081 Cl
ENDBRANCH   1  23
TORSDOF 1
