REMARK  Name = CHEMBL297363
REMARK  9 active torsions:
REMARK  status: ('A' for Active; 'I' for Inactive)
REMARK    1  A    between atoms: C_1  and  N_2
REMARK    2  A    between atoms: N_5  and  C_8
REMARK    3  A    between atoms: C_11  and  N_14
REMARK    4  A    between atoms: C_17  and  C_19
REMARK    5  A    between atoms: C_22  and  N_27
REMARK    6  A    between atoms: C_23  and  O_25
REMARK    7  A    between atoms: O_25  and  C_26
REMARK    8  A    between atoms: C_28  and  C_30
REMARK    9  A    between atoms: C_36  and  N_40
REMARK                            x       y       z     vdW  Elec       q    Type
REMARK                         _______ _______ _______ _____ _____    ______ ____
ROOT
ATOM      1  N   UNL     1      -2.085  -8.043   1.594  0.00  0.00    -0.243 N 
ATOM      2  C   UNL     1      -2.347  -8.956   2.572  0.00  0.00    +0.164 A 
ATOM      3  C   UNL     1      -2.053 -10.224   2.038  0.00  0.00    +0.086 A 
ATOM      4  C   UNL     1      -1.596 -10.000   0.667  0.00  0.00    +0.105 A 
ATOM      5  N   UNL     1      -1.636  -8.707   0.447  0.00  0.00    -0.168 NA
ATOM      6  C   UNL     1      -2.240 -11.355   2.850  0.00  0.00    +0.131 A 
ATOM      7  N   UNL     1      -2.687 -11.175   4.089  0.00  0.00    -0.220 NA
ATOM      8  C   UNL     1      -2.950  -9.965   4.551  0.00  0.00    +0.225 A 
ATOM      9  N   UNL     1      -2.790  -8.879   3.827  0.00  0.00    -0.216 NA
ENDROOT
BRANCH   1  13
ATOM     10  C   UNL     1      -2.096  -3.898   0.585  0.00  0.00    -0.068 C 
ATOM     11  C   UNL     1      -3.441  -4.590   0.817  0.00  0.00    -0.013 C 
ATOM     12  C   UNL     1      -3.265  -6.104   0.684  0.00  0.00    +0.025 C 
ATOM     13  C   UNL     1      -2.253  -6.594   1.722  0.00  0.00    +0.109 C 
ATOM     14  C   UNL     1      -0.909  -5.902   1.490  0.00  0.00    +0.025 C 
ATOM     15  C   UNL     1      -1.085  -4.388   1.624  0.00  0.00    -0.013 C 
BRANCH  10  20
ATOM     16  C   UNL     1      -2.286   1.670  -0.255  0.00  0.00    +0.104 C 
ATOM     17  N   UNL     1      -2.134   0.211  -0.331  0.00  0.00    -0.309 NA
ATOM     18  C   UNL     1      -3.426  -0.464  -0.138  0.00  0.00    +0.065 C 
ATOM     19  C   UNL     1      -3.236  -1.975  -0.283  0.00  0.00    -0.063 C 
ATOM     20  N   UNL     1      -2.265  -2.445   0.713  0.00  0.00    +0.383 N 
ATOM     21  C   UNL     1      -0.973  -1.781   0.492  0.00  0.00    -0.063 C 
ATOM     22  C   UNL     1      -1.145  -0.268   0.644  0.00  0.00    +0.065 C 
ATOM     23  H   UNL     1      -2.601  -2.226   1.639  0.00  0.00    -0.081 HD
ENDBRANCH  10  20
ENDBRANCH   1  13
BRANCH   4  24
ATOM     24  C   UNL     1      -1.171 -11.041  -0.298  0.00  0.00    +0.006 A 
ATOM     25  C   UNL     1      -1.907 -12.219  -0.425  0.00  0.00    +0.012 A 
ATOM     26  C   UNL     1      -1.511 -13.188  -1.322  0.00  0.00    +0.027 A 
ATOM     27  C   UNL     1      -0.379 -12.994  -2.103  0.00  0.00    +0.076 A 
ATOM     28  C   UNL     1       0.361 -11.819  -1.980  0.00  0.00    +0.142 A 
ATOM     29  C   UNL     1      -0.037 -10.842  -1.085  0.00  0.00    +0.057 A 
BRANCH  27  30
ATOM     30  N   UNL     1       0.020 -13.980  -3.013  0.00  0.00    -0.279 N 
ATOM     31  C   UNL     1      -0.865 -14.904  -3.436  0.00  0.00    +0.248 C 
ATOM     32  O   UNL     1      -2.032 -14.825  -3.104  0.00  0.00    -0.270 OA
ATOM     33  H   UNL     1       0.933 -13.997  -3.339  0.00  0.00    +0.155 HD
BRANCH  31  34
ATOM     34  C   UNL     1      -0.416 -16.014  -4.302  0.00  0.00    +0.037 A 
ATOM     35  C   UNL     1       0.924 -16.111  -4.679  0.00  0.00    +0.013 A 
ATOM     36  C   UNL     1       1.336 -17.150  -5.489  0.00  0.00    +0.001 A 
ATOM     37  C   UNL     1       0.424 -18.094  -5.926  0.00  0.00    +0.000 A 
ATOM     38  C   UNL     1      -0.906 -18.003  -5.556  0.00  0.00    +0.001 A 
ATOM     39  C   UNL     1      -1.330 -16.973  -4.742  0.00  0.00    +0.013 A 
ENDBRANCH  31  34
ENDBRANCH  27  30
BRANCH  28  40
ATOM     40  O   UNL     1       1.470 -11.630  -2.744  0.00  0.00    -0.493 OA
ATOM     41  C   UNL     1       2.179 -10.403  -2.566  0.00  0.00    +0.277 C 
ENDBRANCH  28  40
ENDBRANCH   4  24
BRANCH   6  42
ATOM     42  N   UNL     1      -1.966 -12.622   2.373  0.00  0.00    -0.342 N 
ATOM     43  H   UNL     1      -1.458 -12.733   1.555  0.00  0.00    +0.144 HD
ATOM     44  H   UNL     1      -2.283 -13.401   2.857  0.00  0.00    +0.144 HD
ENDBRANCH   6  42
TORSDOF 7
