REMARK  Name = CHEMBL108044
REMARK  4 active torsions:
REMARK  status: ('A' for Active; 'I' for Inactive)
REMARK    1  A    between atoms: C_1  and  C_2
REMARK    2  A    between atoms: C_7  and  N_8
REMARK    3  A    between atoms: C_18  and  N_22
REMARK    4  A    between atoms: N_25  and  C_28
REMARK                            x       y       z     vdW  Elec       q    Type
REMARK                         _______ _______ _______ _____ _____    ______ ____
ROOT
ATOM      1  N   UNL     1      -0.023  -0.005   2.406  0.00  0.00    -0.296 N 
ATOM      2  C   UNL     1      -0.397  -0.651   3.570  0.00  0.00    +0.149 A 
ATOM      3  C   UNL     1      -0.489   0.094   4.823  0.00  0.00    +0.106 A 
ATOM      4  C   UNL     1      -0.280   1.404   5.180  0.00  0.00    +0.142 A 
ATOM      5  N   UNL     1      -0.522   1.506   6.489  0.00  0.00    -0.243 NA
ATOM      6  C   UNL     1      -0.870   0.338   6.968  0.00  0.00    +0.204 A 
ATOM      7  N   UNL     1      -0.865  -0.569   5.977  0.00  0.00    -0.294 N 
ATOM      8  C   UNL     1      -1.144  -1.930   5.907  0.00  0.00    +0.074 A 
ATOM      9  C   UNL     1      -1.525  -2.625   7.047  0.00  0.00    +0.030 A 
ATOM     10  C   UNL     1      -1.801  -3.974   6.975  0.00  0.00    +0.025 A 
ATOM     11  C   UNL     1      -1.700  -4.648   5.761  0.00  0.00    +0.032 A 
ATOM     12  C   UNL     1      -1.323  -3.970   4.617  0.00  0.00    +0.053 A 
ATOM     13  C   UNL     1      -1.040  -2.600   4.678  0.00  0.00    +0.092 A 
ATOM     14  N   UNL     1      -0.675  -1.936   3.549  0.00  0.00    -0.228 NA
ATOM     15  H   UNL     1       0.105   0.957   2.405  0.00  0.00    +0.154 HD
ENDROOT
BRANCH   1  22
ATOM     16  C   UNL     1       2.617  -0.199   1.364  0.00  0.00    +0.046 C 
ATOM     17  C   UNL     1       1.443  -0.858   0.688  0.00  0.00    -0.028 A 
ATOM     18  C   UNL     1       1.632  -1.587  -0.470  0.00  0.00    +0.005 A 
ATOM     19  C   UNL     1       0.555  -2.192  -1.092  0.00  0.00    +0.002 A 
ATOM     20  C   UNL     1      -0.715  -2.070  -0.558  0.00  0.00    +0.022 A 
ATOM     21  C   UNL     1      -0.911  -1.342   0.600  0.00  0.00    +0.062 A 
ATOM     22  C   UNL     1       0.171  -0.737   1.231  0.00  0.00    +0.054 A 
ATOM     23 CL   UNL     1      -2.505  -1.188   1.270  0.00  0.00    -0.082 Cl
ENDBRANCH   1  22
BRANCH  11  24
ATOM     24  N   UNL     1      -1.982  -6.016   5.698  0.00  0.00    -0.327 N 
ATOM     25  C   UNL     1      -1.756  -6.777   4.460  0.00  0.00    +0.120 C 
ATOM     26  C   UNL     1      -0.923  -8.019   4.797  0.00  0.00    +0.103 C 
ATOM     27  N   UNL     1      -1.581  -8.768   5.876  0.00  0.00    -0.302 NA
ATOM     28  C   UNL     1      -1.649  -7.975   7.111  0.00  0.00    +0.103 C 
ATOM     29  C   UNL     1      -2.506  -6.733   6.871  0.00  0.00    +0.120 C 
ATOM     30  C   UNL     1      -0.907 -10.052   6.112  0.00  0.00    +0.105 C 
ENDBRANCH  11  24
TORSDOF 2
