REMARK  Name = CHEMBL106457
REMARK  8 active torsions:
REMARK  status: ('A' for Active; 'I' for Inactive)
REMARK    1  A    between atoms: C_1  and  C_2
REMARK    2  A    between atoms: C_7  and  N_8
REMARK    3  A    between atoms: C_17  and  O_31
REMARK    4  A    between atoms: C_18  and  O_22
REMARK    5  A    between atoms: O_22  and  C_23
REMARK    6  A    between atoms: C_23  and  C_24
REMARK    7  A    between atoms: C_24  and  N_25
REMARK    8  A    between atoms: O_31  and  C_32
REMARK                            x       y       z     vdW  Elec       q    Type
REMARK                         _______ _______ _______ _____ _____    ______ ____
ROOT
ATOM      1  N   UNL     1       0.268   0.107   3.358  0.00  0.00    -0.296 N 
ATOM      2  C   UNL     1      -0.207  -0.636   4.423  0.00  0.00    +0.149 A 
ATOM      3  C   UNL     1      -0.388  -0.010   5.731  0.00  0.00    +0.106 A 
ATOM      4  C   UNL     1      -0.190   1.256   6.225  0.00  0.00    +0.142 A 
ATOM      5  N   UNL     1      -0.534   1.242   7.515  0.00  0.00    -0.243 NA
ATOM      6  C   UNL     1      -0.935   0.041   7.854  0.00  0.00    +0.204 A 
ATOM      7  N   UNL     1      -0.863  -0.769   6.784  0.00  0.00    -0.294 N 
ATOM      8  C   UNL     1      -1.155  -2.111   6.565  0.00  0.00    +0.077 A 
ATOM      9  C   UNL     1      -1.634  -2.901   7.601  0.00  0.00    +0.077 A 
ATOM     10  C   UNL     1      -1.923  -4.235   7.380  0.00  0.00    +0.164 A 
ATOM     11  C   UNL     1      -1.734  -4.793   6.115  0.00  0.00    +0.164 A 
ATOM     12  C   UNL     1      -1.258  -4.019   5.077  0.00  0.00    +0.079 A 
ATOM     13  C   UNL     1      -0.963  -2.667   5.290  0.00  0.00    +0.094 A 
ATOM     14  N   UNL     1      -0.500  -1.908   4.261  0.00  0.00    -0.228 NA
ATOM     15  H   UNL     1       0.410   1.062   3.458  0.00  0.00    +0.154 HD
ENDROOT
BRANCH   1  22
ATOM     16  C   UNL     1       2.979  -0.051   2.510  0.00  0.00    +0.046 C 
ATOM     17  C   UNL     1       1.851  -0.616   1.685  0.00  0.00    -0.028 A 
ATOM     18  C   UNL     1       2.120  -1.238   0.481  0.00  0.00    +0.005 A 
ATOM     19  C   UNL     1       1.086  -1.756  -0.277  0.00  0.00    +0.002 A 
ATOM     20  C   UNL     1      -0.220  -1.655   0.167  0.00  0.00    +0.022 A 
ATOM     21  C   UNL     1      -0.496  -1.034   1.370  0.00  0.00    +0.062 A 
ATOM     22  C   UNL     1       0.542  -0.516   2.137  0.00  0.00    +0.054 A 
ATOM     23 CL   UNL     1      -2.135  -0.906   1.927  0.00  0.00    -0.082 Cl
ENDBRANCH   1  22
BRANCH  10  24
ATOM     24  O   UNL     1      -2.391  -5.005   8.398  0.00  0.00    -0.491 OA
ATOM     25  C   UNL     1      -2.561  -4.371   9.667  0.00  0.00    +0.277 C 
ENDBRANCH  10  24
BRANCH  11  26
ATOM     26  O   UNL     1      -2.020  -6.107   5.905  0.00  0.00    -0.490 OA
BRANCH  26  27
ATOM     27  C   UNL     1      -1.804  -6.615   4.587  0.00  0.00    +0.211 C 
BRANCH  27  28
ATOM     28  C   UNL     1      -2.178  -8.098   4.545  0.00  0.00    -0.037 C 
BRANCH  28  29
ATOM     29  N   UNL     1      -3.621  -8.245   4.777  0.00  0.00    +0.385 N 
ATOM     30  C   UNL     1      -3.954  -9.672   4.896  0.00  0.00    -0.050 C 
ATOM     31  C   UNL     1      -5.458  -9.823   5.138  0.00  0.00    +0.141 C 
ATOM     32  O   UNL     1      -6.173  -9.204   4.064  0.00  0.00    -0.383 OA
ATOM     33  C   UNL     1      -5.864  -7.818   3.893  0.00  0.00    +0.141 C 
ATOM     34  C   UNL     1      -4.361  -7.663   3.649  0.00  0.00    -0.050 C 
ATOM     35  H   UNL     1      -3.875  -7.768   5.628  0.00  0.00    -0.081 HD
ENDBRANCH  28  29
ENDBRANCH  27  28
ENDBRANCH  26  27
ENDBRANCH  11  26
TORSDOF 6
