REMARK  Name = CHEMBL1084233
REMARK  7 active torsions:
REMARK  status: ('A' for Active; 'I' for Inactive)
REMARK    1  A    between atoms: C_1  and  N_2
REMARK    2  A    between atoms: N_5  and  C_8
REMARK    3  A    between atoms: C_11  and  C_14
REMARK    4  A    between atoms: C_21  and  C_24
REMARK    5  A    between atoms: C_22  and  N_23
REMARK    6  A    between atoms: C_27  and  N_30
REMARK    7  A    between atoms: N_33  and  C_34
REMARK                            x       y       z     vdW  Elec       q    Type
REMARK                         _______ _______ _______ _____ _____    ______ ____
ROOT
ATOM      1  C   UNL     1      -2.329  -6.942   3.933  0.00  0.00    +0.046 A 
ATOM      2  C   UNL     1      -3.532  -6.984   4.648  0.00  0.00    +0.145 A 
ATOM      3  N   UNL     1      -3.625  -8.142   5.253  0.00  0.00    -0.171 NA
ATOM      4  N   UNL     1      -2.490  -8.906   4.962  0.00  0.00    -0.200 N 
ATOM      5  C   UNL     1      -1.683  -8.167   4.136  0.00  0.00    +0.165 A 
ATOM      6  N   UNL     1      -0.521  -8.657   3.689  0.00  0.00    -0.235 NA
ATOM      7  C   UNL     1      -0.113  -9.861   4.021  0.00  0.00    +0.125 A 
ATOM      8  C   UNL     1      -0.899 -10.667   4.861  0.00  0.00    +0.040 A 
ATOM      9  C   UNL     1      -2.105 -10.165   5.339  0.00  0.00    +0.129 A 
ENDROOT
BRANCH   1  13
ATOM     10  C   UNL     1      -0.910  -3.701   1.572  0.00  0.00    +0.030 A 
ATOM     11  C   UNL     1      -2.206  -4.172   1.397  0.00  0.00    +0.024 A 
ATOM     12  C   UNL     1      -2.669  -5.223   2.161  0.00  0.00    +0.010 A 
ATOM     13  C   UNL     1      -1.835  -5.813   3.110  0.00  0.00    -0.013 A 
ATOM     14  C   UNL     1      -0.535  -5.339   3.284  0.00  0.00    +0.010 A 
ATOM     15  C   UNL     1      -0.075  -4.292   2.513  0.00  0.00    +0.024 A 
BRANCH  10  20
ATOM     16  C   UNL     1       0.003   1.459  -0.005  0.00  0.00    +0.105 C 
ATOM     17  N   UNL     1       0.022  -0.009  -0.009  0.00  0.00    -0.302 NA
ATOM     18  C   UNL     1      -1.339  -0.554  -0.102  0.00  0.00    +0.103 C 
ATOM     19  C   UNL     1      -1.266  -2.074  -0.286  0.00  0.00    +0.120 C 
ATOM     20  N   UNL     1      -0.444  -2.636   0.796  0.00  0.00    -0.327 N 
ATOM     21  C   UNL     1       0.882  -2.048   1.040  0.00  0.00    +0.120 C 
ATOM     22  C   UNL     1       0.725  -0.530   1.171  0.00  0.00    +0.103 C 
ENDBRANCH  10  20
ENDBRANCH   1  13
BRANCH   8  23
ATOM     23  C   UNL     1      -0.446 -12.027   5.240  0.00  0.00    -0.013 A 
ATOM     24  C   UNL     1      -0.150 -12.319   6.572  0.00  0.00    +0.010 A 
ATOM     25  C   UNL     1       0.271 -13.584   6.921  0.00  0.00    +0.024 A 
ATOM     26  C   UNL     1       0.402 -14.568   5.949  0.00  0.00    +0.035 A 
ATOM     27  C   UNL     1       0.108 -14.280   4.622  0.00  0.00    +0.024 A 
ATOM     28  C   UNL     1      -0.319 -13.017   4.268  0.00  0.00    +0.010 A 
BRANCH  26  29
ATOM     29  N   UNL     1       0.830 -15.852   6.307  0.00  0.00    -0.269 N 
ATOM     30  C   UNL     1       0.469 -16.375   7.495  0.00  0.00    +0.308 C 
ATOM     31  O   UNL     1      -0.307 -15.776   8.213  0.00  0.00    -0.252 OA
ATOM     32  N   UNL     1       0.970 -17.563   7.888  0.00  0.00    -0.268 N 
ATOM     33  H   UNL     1       1.385 -16.365   5.699  0.00  0.00    +0.156 HD
ATOM     34  H   UNL     1       1.538 -18.072   7.288  0.00  0.00    +0.156 HD
BRANCH  32  35
ATOM     35  C   UNL     1       0.671 -18.062   9.161  0.00  0.00    +0.053 A 
ATOM     36  C   UNL     1      -0.574 -17.825   9.727  0.00  0.00    +0.025 A 
ATOM     37  C   UNL     1      -0.866 -18.319  10.983  0.00  0.00    +0.002 A 
ATOM     38  C   UNL     1       0.080 -19.050  11.678  0.00  0.00    +0.002 A 
ATOM     39  C   UNL     1       1.321 -19.289  11.118  0.00  0.00    +0.022 A 
ATOM     40  C   UNL     1       1.619 -18.802   9.859  0.00  0.00    +0.062 A 
ATOM     41 CL   UNL     1       3.175 -19.108   9.154  0.00  0.00    -0.082 Cl
ENDBRANCH  32  35
ENDBRANCH  26  29
ENDBRANCH   8  23
BRANCH   9  42
ATOM     42  N   UNL     1      -2.904 -10.925   6.163  0.00  0.00    -0.343 N 
ATOM     43  H   UNL     1      -3.748 -10.570   6.481  0.00  0.00    +0.144 HD
ATOM     44  H   UNL     1      -2.622 -11.815   6.425  0.00  0.00    +0.144 HD
ENDBRANCH   9  42
TORSDOF 6
