REMARK  Name = CHEMBL131346
REMARK  10 active torsions:
REMARK  status: ('A' for Active; 'I' for Inactive)
REMARK    1  A    between atoms: C_1  and  C_2
REMARK    2  A    between atoms: C_2  and  C_3
REMARK    3  A    between atoms: C_3  and  C_4
REMARK    4  A    between atoms: C_4  and  N_5
REMARK    5  A    between atoms: C_11  and  C_26
REMARK    6  A    between atoms: C_12  and  C_14
REMARK    7  A    between atoms: N_16  and  C_17
REMARK    8  A    between atoms: C_18  and  C_25
REMARK    9  A    between atoms: C_20  and  C_24
REMARK   10  A    between atoms: C_22  and  C_23
REMARK                            x       y       z     vdW  Elec       q    Type
REMARK                         _______ _______ _______ _____ _____    ______ ____
ROOT
ATOM      1  N   UNL     1      -3.433  -3.141   3.469  0.00  0.00    -0.299 N 
ATOM      2  C   UNL     1      -3.478  -4.337   2.848  0.00  0.00    +0.305 C 
ATOM      3  O   UNL     1      -2.757  -5.242   3.221  0.00  0.00    -0.252 OA
ATOM      4  N   UNL     1      -4.322  -4.529   1.815  0.00  0.00    -0.248 N 
ATOM      5  C   UNL     1      -4.368  -5.756   1.178  0.00  0.00    +0.166 A 
ATOM      6  N   UNL     1      -5.121  -6.119   0.155  0.00  0.00    -0.229 NA
ATOM      7  C   UNL     1      -5.057  -7.325  -0.348  0.00  0.00    +0.060 A 
ATOM      8  C   UNL     1      -4.158  -8.196   0.252  0.00  0.00    +0.098 A 
ATOM      9  S   UNL     1      -3.471  -7.140   1.517  0.00  0.00    -0.047 S 
ATOM     10  C   UNL     1      -5.914  -7.747  -1.514  0.00  0.00    +0.067 C 
ATOM     11  H   UNL     1      -4.008  -2.419   3.171  0.00  0.00    +0.150 HD
ATOM     12  H   UNL     1      -4.897  -3.806   1.518  0.00  0.00    +0.158 HD
ENDROOT
BRANCH   8  13
ATOM     13  C   UNL     1      -3.852  -9.591  -0.068  0.00  0.00    +0.257 C 
ATOM     14  O   UNL     1      -4.431 -10.146  -0.985  0.00  0.00    -0.269 OA
ATOM     15  N   UNL     1      -2.931 -10.261   0.651  0.00  0.00    -0.281 N 
ATOM     16  H   UNL     1      -2.417  -9.799   1.332  0.00  0.00    +0.155 HD
BRANCH  15  17
ATOM     17  C   UNL     1      -2.716 -11.623   0.417  0.00  0.00    +0.040 A 
ATOM     18  C   UNL     1      -1.437 -12.088   0.140  0.00  0.00    -0.029 A 
ATOM     19  C   UNL     1      -1.227 -13.433  -0.091  0.00  0.00    +0.008 A 
ATOM     20  C   UNL     1      -2.290 -14.317  -0.046  0.00  0.00    -0.050 A 
ATOM     21  C   UNL     1      -3.565 -13.857   0.229  0.00  0.00    +0.008 A 
ATOM     22  C   UNL     1      -3.780 -12.514   0.466  0.00  0.00    -0.029 A 
ATOM     23  C   UNL     1      -5.168 -12.015   0.772  0.00  0.00    +0.045 C 
ATOM     24  C   UNL     1      -2.058 -15.785  -0.298  0.00  0.00    +0.044 C 
ATOM     25  C   UNL     1      -0.278 -11.125   0.091  0.00  0.00    +0.045 C 
ENDBRANCH  15  17
ENDBRANCH   8  13
BRANCH   1  26
ATOM     26  C   UNL     1      -2.516  -2.933   4.592  0.00  0.00    +0.106 C 
BRANCH  26  27
ATOM     27  C   UNL     1      -2.663  -1.501   5.111  0.00  0.00    +0.018 C 
BRANCH  27  29
ATOM     28  C   UNL     1      -1.852   0.148   6.804  0.00  0.00    +0.004 C 
ATOM     29  C   UNL     1      -1.705  -1.284   6.284  0.00  0.00    -0.002 C 
ENDBRANCH  27  29
ENDBRANCH  26  27
ENDBRANCH   1  26
TORSDOF 5
