REMARK  Name = CHEMBL337689
REMARK  3 active torsions:
REMARK  status: ('A' for Active; 'I' for Inactive)
REMARK    1  A    between atoms: C_1  and  O_2
REMARK    2  A    between atoms: O_2  and  C_3
REMARK    3  A    between atoms: C_4  and  C_20
REMARK                            x       y       z     vdW  Elec       q    Type
REMARK                         _______ _______ _______ _____ _____    ______ ____
ROOT
ATOM      1  C   UNL     1      -1.141  -0.712  -0.042  0.00  0.00    +0.123 C 
ATOM      2  C   UNL     1      -2.348  -0.074  -0.108  0.00  0.00    +0.099 C 
ATOM      3  C   UNL     1      -3.588  -0.887  -0.122  0.00  0.00    +0.189 C 
ATOM      4  C   UNL     1      -3.534  -2.163  -0.503  0.00  0.00    +0.037 C 
ATOM      5  C   UNL     1      -2.215  -2.773  -0.908  0.00  0.00    +0.104 C 
ATOM      6  C   UNL     1      -1.107  -2.217  -0.012  0.00  0.00    +0.141 C 
ATOM      7  C   UNL     1       0.230  -2.712  -0.508  0.00  0.00    +0.175 C 
ATOM      8  O   UNL     1       1.058  -3.133   0.271  0.00  0.00    -0.291 OA
ATOM      9  C   UNL     1       0.514  -2.674  -1.954  0.00  0.00    +0.029 A 
ATOM     10  C   UNL     1       1.814  -2.799  -2.433  0.00  0.00    +0.012 A 
ATOM     11  C   UNL     1       2.049  -2.764  -3.796  0.00  0.00    +0.001 A 
ATOM     12  C   UNL     1       1.001  -2.607  -4.687  0.00  0.00    +0.001 A 
ATOM     13  C   UNL     1      -0.299  -2.480  -4.229  0.00  0.00    +0.012 A 
ATOM     14  C   UNL     1      -0.554  -2.510  -2.862  0.00  0.00    +0.029 A 
ATOM     15  C   UNL     1      -1.921  -2.377  -2.339  0.00  0.00    +0.172 C 
ATOM     16  O   UNL     1      -2.803  -1.946  -3.052  0.00  0.00    -0.291 OA
ATOM     17  O   UNL     1      -4.771  -0.334   0.251  0.00  0.00    -0.287 OA
ENDROOT
BRANCH   1  19
ATOM     18  C   UNL     1       0.768  -0.066   1.196  0.00  0.00    +0.276 C 
ATOM     19  O   UNL     1       0.003  -0.004  -0.008  0.00  0.00    -0.498 OA
ENDBRANCH   1  19
BRANCH   2  20
ATOM     20  C   UNL     1      -2.412   1.340  -0.162  0.00  0.00    +0.265 C 
ATOM     21  O   UNL     1      -3.489   1.899  -0.134  0.00  0.00    -0.295 OA
ENDBRANCH   2  20
TORSDOF 2
