REMARK  Name = CHEMBL214530
REMARK  10 active torsions:
REMARK  status: ('A' for Active; 'I' for Inactive)
REMARK    1  A    between atoms: C_1  and  C_2
REMARK    2  A    between atoms: C_5  and  C_28
REMARK    3  A    between atoms: C_7  and  C_8
REMARK    4  A    between atoms: N_18  and  C_19
REMARK    5  A    between atoms: C_19  and  C_20
REMARK    6  A    between atoms: C_20  and  C_21
REMARK    7  A    between atoms: C_21  and  N_22
REMARK    8  A    between atoms: N_30  and  C_31
REMARK    9  A    between atoms: C_35  and  C_38
REMARK   10  A    between atoms: C_36  and  C_37
REMARK                            x       y       z     vdW  Elec       q    Type
REMARK                         _______ _______ _______ _____ _____    ______ ____
ROOT
ATOM      1  C   UNL     1       0.031   1.504   0.009  0.00  0.00    +0.044 C 
ATOM      2  C   UNL     1       0.039  -0.004   0.001  0.00  0.00    -0.043 A 
ATOM      3  C   UNL     1       0.040  -0.686  -1.200  0.00  0.00    +0.005 A 
ATOM      4  C   UNL     1       0.047  -2.066  -1.216  0.00  0.00    +0.013 A 
ATOM      5  C   UNL     1       0.054  -2.781  -0.016  0.00  0.00    +0.038 A 
ATOM      6  C   UNL     1       0.054  -2.096   1.198  0.00  0.00    +0.021 A 
ATOM      7  C   UNL     1       0.052  -0.705   1.206  0.00  0.00    -0.014 A 
ENDROOT
BRANCH   7   8
ATOM      8  C   UNL     1       0.058   0.031   2.494  0.00  0.00    -0.017 A 
ATOM      9  C   UNL     1       0.985   1.065   2.700  0.00  0.00    +0.010 A 
ATOM     10  C   UNL     1       1.012   1.756   3.871  0.00  0.00    +0.029 A 
ATOM     11  C   UNL     1       0.105   1.437   4.894  0.00  0.00    +0.076 A 
ATOM     12  C   UNL     1      -0.836   0.393   4.695  0.00  0.00    +0.019 A 
ATOM     13  C   UNL     1      -0.853  -0.304   3.480  0.00  0.00    +0.020 A 
ATOM     14  C   UNL     1      -1.735   0.094   5.737  0.00  0.00    +0.124 A 
ATOM     15  N   UNL     1      -1.663   0.796   6.848  0.00  0.00    -0.222 NA
ATOM     16  C   UNL     1      -0.767   1.770   7.001  0.00  0.00    +0.216 A 
ATOM     17  N   UNL     1       0.099   2.093   6.060  0.00  0.00    -0.215 NA
ATOM     18  N   UNL     1      -0.745   2.469   8.193  0.00  0.00    -0.313 N 
ATOM     19  H   UNL     1      -0.100   3.182   8.325  0.00  0.00    +0.149 HD
BRANCH  18  20
ATOM     20  C   UNL     1      -1.694   2.134   9.258  0.00  0.00    +0.105 C 
BRANCH  20  21
ATOM     21  C   UNL     1      -1.457   3.050  10.460  0.00  0.00    +0.034 C 
BRANCH  21  22
ATOM     22  C   UNL     1      -2.448   2.700  11.571  0.00  0.00    +0.086 C 
BRANCH  22  23
ATOM     23  N   UNL     1      -2.221   3.580  12.725  0.00  0.00    -0.298 NA
ATOM     24  C   UNL     1      -0.910   3.317  13.338  0.00  0.00    +0.112 C 
ATOM     25  C   UNL     1      -0.690   4.294  14.497  0.00  0.00    +0.175 C 
ATOM     26  O   UNL     1      -1.762   4.164  15.434  0.00  0.00    -0.377 OA
ATOM     27  C   UNL     1      -3.053   4.413  14.871  0.00  0.00    +0.175 C 
ATOM     28  C   UNL     1      -3.297   3.438  13.716  0.00  0.00    +0.112 C 
ENDBRANCH  22  23
ENDBRANCH  21  22
ENDBRANCH  20  21
ENDBRANCH  18  20
ENDBRANCH   7   8
BRANCH   5  29
ATOM     29  C   UNL     1       0.061  -4.259  -0.034  0.00  0.00    +0.248 C 
ATOM     30  O   UNL     1       0.067  -4.879   1.012  0.00  0.00    -0.270 OA
ATOM     31  N   UNL     1       0.061  -4.919  -1.209  0.00  0.00    -0.281 N 
ATOM     32  H   UNL     1      -0.024  -4.428  -2.041  0.00  0.00    +0.155 HD
BRANCH  31  33
ATOM     33  C   UNL     1       0.185  -6.312  -1.228  0.00  0.00    +0.037 A 
ATOM     34  C   UNL     1       0.804  -6.971  -0.174  0.00  0.00    +0.023 A 
ATOM     35  C   UNL     1       0.924  -8.346  -0.197  0.00  0.00    +0.002 A 
ATOM     36  C   UNL     1       0.428  -9.068  -1.267  0.00  0.00    +0.013 A 
ATOM     37  C   UNL     1      -0.189  -8.415  -2.318  0.00  0.00    +0.059 A 
ATOM     38  C   UNL     1      -0.317  -7.040  -2.299  0.00  0.00    -0.018 A 
ATOM     39  C   UNL     1      -0.995  -6.330  -3.443  0.00  0.00    +0.046 C 
BRANCH  37  40
ATOM     40  C   UNL     1      -0.728  -9.205  -3.482  0.00  0.00    +0.418 C 
ATOM     41  F   UNL     1      -0.487 -10.567  -3.273  0.00  0.00    -0.166 F 
ATOM     42  F   UNL     1      -2.106  -8.988  -3.596  0.00  0.00    -0.166 F 
ATOM     43  F   UNL     1      -0.092  -8.795  -4.659  0.00  0.00    -0.166 F 
ENDBRANCH  37  40
ENDBRANCH  31  33
ENDBRANCH   5  29
TORSDOF 8
