REMARK  Name = CHEMBL1076196
REMARK  10 active torsions:
REMARK  status: ('A' for Active; 'I' for Inactive)
REMARK    1  A    between atoms: C_1  and  C_2
REMARK    2  A    between atoms: C_6  and  N_8
REMARK    3  A    between atoms: C_9  and  C_11
REMARK    4  A    between atoms: C_14  and  C_43
REMARK    5  A    between atoms: C_15  and  N_17
REMARK    6  A    between atoms: C_29  and  N_33
REMARK    7  A    between atoms: N_33  and  C_34
REMARK    8  A    between atoms: C_34  and  C_35
REMARK    9  A    between atoms: C_35  and  N_36
REMARK   10  A    between atoms: N_39  and  C_42
REMARK                            x       y       z     vdW  Elec       q    Type
REMARK                         _______ _______ _______ _____ _____    ______ ____
ROOT
ATOM      1  N   UNL     1       1.288  -8.811   4.577  0.00  0.00    -0.284 N 
ATOM      2  C   UNL     1       0.493  -9.265   3.544  0.00  0.00    +0.207 A 
ATOM      3  N   UNL     1       0.329  -8.655   2.398  0.00  0.00    -0.214 NA
ATOM      4  C   UNL     1      -0.516  -9.375   1.613  0.00  0.00    +0.091 A 
ATOM      5  C   UNL     1      -1.022  -9.186   0.324  0.00  0.00    +0.030 A 
ATOM      6  C   UNL     1      -1.883 -10.116  -0.215  0.00  0.00    +0.002 A 
ATOM      7  C   UNL     1      -2.252 -11.238   0.511  0.00  0.00    +0.002 A 
ATOM      8  C   UNL     1      -1.762 -11.438   1.786  0.00  0.00    +0.028 A 
ATOM      9  C   UNL     1      -0.894 -10.513   2.344  0.00  0.00    +0.077 A 
ATOM     10  N   UNL     1      -0.237 -10.424   3.563  0.00  0.00    -0.264 N 
ATOM     11  C   UNL     1      -0.309 -11.340   4.611  0.00  0.00    +0.145 A 
ATOM     12  C   UNL     1      -0.537 -10.906   5.911  0.00  0.00    +0.090 A 
ATOM     13  C   UNL     1      -0.601 -11.861   6.923  0.00  0.00    +0.124 A 
ATOM     14  N   UNL     1      -0.442 -13.145   6.610  0.00  0.00    -0.221 NA
ATOM     15  C   UNL     1      -0.227 -13.515   5.364  0.00  0.00    +0.225 A 
ATOM     16  N   UNL     1      -0.165 -12.642   4.379  0.00  0.00    -0.218 NA
ATOM     17  H   UNL     1       1.427  -9.366   5.361  0.00  0.00    +0.155 HD
ENDROOT
BRANCH   1  22
ATOM     18  C   UNL     1       2.050  -5.376   3.482  0.00  0.00    +0.039 A 
ATOM     19  C   UNL     1       3.104  -5.059   4.343  0.00  0.00    +0.013 A 
ATOM     20  C   UNL     1       3.541  -5.985   5.267  0.00  0.00    +0.006 A 
ATOM     21  C   UNL     1       2.941  -7.228   5.346  0.00  0.00    -0.029 A 
ATOM     22  C   UNL     1       1.891  -7.553   4.494  0.00  0.00    +0.037 A 
ATOM     23  C   UNL     1       1.440  -6.627   3.566  0.00  0.00    +0.036 A 
ATOM     24  C   UNL     1       3.425  -8.233   6.358  0.00  0.00    +0.045 C 
BRANCH  18  26
ATOM     25  N   UNL     1       2.171  -3.177   2.412  0.00  0.00    -0.281 N 
ATOM     26  C   UNL     1       1.579  -4.386   2.491  0.00  0.00    +0.248 C 
ATOM     27  O   UNL     1       0.659  -4.662   1.746  0.00  0.00    -0.270 OA
ATOM     28  H   UNL     1       2.948  -2.981   2.958  0.00  0.00    +0.155 HD
BRANCH  25  34
ATOM     29  C   UNL     1       2.953   0.609  -0.624  0.00  0.00    +0.044 C 
ATOM     30  C   UNL     1       2.019  -0.357   0.059  0.00  0.00    -0.049 A 
ATOM     31  C   UNL     1       0.658  -0.282  -0.172  0.00  0.00    +0.003 A 
ATOM     32  C   UNL     1      -0.202  -1.166   0.452  0.00  0.00    +0.002 A 
ATOM     33  C   UNL     1       0.296  -2.127   1.310  0.00  0.00    +0.023 A 
ATOM     34  C   UNL     1       1.663  -2.205   1.544  0.00  0.00    +0.034 A 
ATOM     35  C   UNL     1       2.525  -1.319   0.911  0.00  0.00    +0.026 A 
ENDBRANCH  25  34
ENDBRANCH  18  26
ENDBRANCH   1  22
BRANCH  13  36
ATOM     36  N   UNL     1      -0.827 -11.480   8.236  0.00  0.00    -0.331 N 
ATOM     37  H   UNL     1      -0.870 -12.151   8.936  0.00  0.00    +0.147 HD
BRANCH  36  38
ATOM     38  C   UNL     1      -1.000 -10.064   8.569  0.00  0.00    +0.084 C 
BRANCH  38  39
ATOM     39  C   UNL     1      -1.232  -9.918  10.074  0.00  0.00    -0.060 C 
BRANCH  39  40
ATOM     40  N   UNL     1      -1.406  -8.498  10.407  0.00  0.00    +0.382 N 
ATOM     41  C   UNL     1      -0.157  -7.775  10.134  0.00  0.00    -0.063 C 
ATOM     42  C   UNL     1      -0.343  -6.292  10.463  0.00  0.00    +0.065 C 
ATOM     43  N   UNL     1      -0.711  -6.150  11.879  0.00  0.00    -0.309 NA
ATOM     44  C   UNL     1      -1.947  -6.889  12.173  0.00  0.00    +0.065 C 
ATOM     45  C   UNL     1      -1.747  -8.367  11.830  0.00  0.00    -0.063 C 
ATOM     46  C   UNL     1      -0.843  -4.734  12.249  0.00  0.00    +0.104 C 
ATOM     47  H   UNL     1      -2.149  -8.109   9.846  0.00  0.00    -0.082 HD
ENDBRANCH  39  40
ENDBRANCH  38  39
ENDBRANCH  36  38
ENDBRANCH  13  36
TORSDOF 7
