REMARK  Name = CHEMBL456683
REMARK  5 active torsions:
REMARK  status: ('A' for Active; 'I' for Inactive)
REMARK    1  A    between atoms: C_1  and  N_2
REMARK    2  A    between atoms: C_7  and  C_9
REMARK    3  A    between atoms: C_14  and  O_15
REMARK    4  A    between atoms: O_15  and  C_16
REMARK    5  A    between atoms: C_19  and  N_26
REMARK                            x       y       z     vdW  Elec       q    Type
REMARK                         _______ _______ _______ _____ _____    ______ ____
ROOT
ATOM      1  C   UNL     1       0.072  -5.071  -1.428  0.00  0.00    +0.138 A 
ATOM      2  C   UNL     1       0.105  -6.442  -1.312  0.00  0.00    +0.049 A 
ATOM      3  C   UNL     1      -0.652  -7.248  -2.157  0.00  0.00    +0.027 A 
ATOM      4  C   UNL     1      -1.455  -6.694  -3.130  0.00  0.00    +0.041 A 
ATOM      5  C   UNL     1      -1.511  -5.291  -3.273  0.00  0.00    +0.007 A 
ATOM      6  C   UNL     1      -0.743  -4.472  -2.409  0.00  0.00    +0.026 A 
ATOM      7  C   UNL     1      -0.804  -3.075  -2.551  0.00  0.00    +0.012 A 
ATOM      8  C   UNL     1      -1.601  -2.529  -3.509  0.00  0.00    +0.001 A 
ATOM      9  C   UNL     1      -2.360  -3.335  -4.355  0.00  0.00    +0.001 A 
ATOM     10  C   UNL     1      -2.317  -4.692  -4.254  0.00  0.00    +0.010 A 
ENDROOT
BRANCH   4  11
ATOM     11  N   UNL     1      -2.209  -7.516  -3.971  0.00  0.00    -0.293 N 
ATOM     12  C   UNL     1      -2.246  -8.879  -3.752  0.00  0.00    +0.163 A 
ATOM     13  N   UNL     1      -1.740  -9.567  -2.753  0.00  0.00    -0.225 NA
ATOM     14  C   UNL     1      -1.854 -10.910  -2.668  0.00  0.00    +0.080 A 
ATOM     15  C   UNL     1      -1.359 -11.765  -1.655  0.00  0.00    +0.029 A 
ATOM     16  C   UNL     1      -1.562 -13.119  -1.721  0.00  0.00    +0.002 A 
ATOM     17  C   UNL     1      -2.255 -13.698  -2.775  0.00  0.00    +0.001 A 
ATOM     18  C   UNL     1      -2.753 -12.891  -3.782  0.00  0.00    +0.017 A 
ATOM     19  C   UNL     1      -2.554 -11.535  -3.724  0.00  0.00    +0.041 A 
ATOM     20  S   UNL     1      -3.001 -10.154  -4.750  0.00  0.00    -0.052 S 
ATOM     21  H   UNL     1      -2.707  -7.130  -4.708  0.00  0.00    +0.154 HD
ENDBRANCH   4  11
BRANCH   1  22
ATOM     22  O   UNL     1       0.818  -4.298  -0.595  0.00  0.00    -0.437 OA
BRANCH  22  28
ATOM     23  C   UNL     1       0.978  -3.081   1.449  0.00  0.00    +0.062 A 
ATOM     24  C   UNL     1       0.343  -2.571   2.583  0.00  0.00    +0.017 A 
ATOM     25  C   UNL     1      -1.014  -2.805   2.738  0.00  0.00    +0.021 A 
ATOM     26  C   UNL     1      -1.693  -3.528   1.776  0.00  0.00    +0.114 A 
ATOM     27  N   UNL     1      -1.071  -4.000   0.712  0.00  0.00    -0.220 NA
ATOM     28  C   UNL     1       0.221  -3.800   0.515  0.00  0.00    +0.230 A 
BRANCH  23  35
ATOM     29  C   UNL     1       6.356  -3.460  -1.412  0.00  0.00    +0.128 C 
ATOM     30  N   UNL     1       4.923  -3.661  -1.182  0.00  0.00    -0.317 N 
ATOM     31  C   UNL     1       4.326  -3.147  -0.044  0.00  0.00    +0.215 A 
ATOM     32  N   UNL     1       5.065  -2.471   0.824  0.00  0.00    -0.223 NA
ATOM     33  C   UNL     1       4.532  -1.963   1.924  0.00  0.00    +0.116 A 
ATOM     34  C   UNL     1       3.182  -2.143   2.167  0.00  0.00    +0.048 A 
ATOM     35  C   UNL     1       2.427  -2.861   1.234  0.00  0.00    +0.081 A 
ATOM     36  N   UNL     1       3.030  -3.338   0.147  0.00  0.00    -0.214 NA
ATOM     37  H   UNL     1       4.393  -4.154  -1.827  0.00  0.00    +0.149 HD
ENDBRANCH  23  35
ENDBRANCH  22  28
ENDBRANCH   1  22
TORSDOF 4
