REMARK  Name = CHEMBL437754
REMARK  10 active torsions:
REMARK  status: ('A' for Active; 'I' for Inactive)
REMARK    1  A    between atoms: C_4  and  C_7
REMARK    2  A    between atoms: C_9  and  N_31
REMARK    3  A    between atoms: C_15  and  C_16
REMARK    4  A    between atoms: C_19  and  O_22
REMARK    5  A    between atoms: O_22  and  C_23
REMARK    6  A    between atoms: C_23  and  C_24
REMARK    7  A    between atoms: C_24  and  N_25
REMARK    8  A    between atoms: N_31  and  C_32
REMARK    9  A    between atoms: C_32  and  C_33
REMARK   10  A    between atoms: C_33  and  C_34
REMARK                            x       y       z     vdW  Elec       q    Type
REMARK                         _______ _______ _______ _____ _____    ______ ____
ROOT
ATOM      1  C   UNL     1       2.879  -0.839   0.320  0.00  0.00    +0.039 A 
ATOM      2  C   UNL     1       3.251  -1.766  -0.759  0.00  0.00    +0.069 A 
ATOM      3  C   UNL     1       2.581  -2.304  -1.865  0.00  0.00    +0.042 A 
ATOM      4  C   UNL     1       3.283  -3.179  -2.691  0.00  0.00    +0.043 A 
ATOM      5  C   UNL     1       4.599  -3.478  -2.389  0.00  0.00    +0.116 A 
ATOM      6  N   UNL     1       5.205  -2.957  -1.341  0.00  0.00    -0.220 NA
ATOM      7  C   UNL     1       4.588  -2.118  -0.519  0.00  0.00    +0.230 A 
ATOM      8  O   UNL     1       4.987  -1.469   0.594  0.00  0.00    -0.436 OA
ATOM      9  C   UNL     1       3.996  -0.707   1.097  0.00  0.00    +0.146 A 
ENDROOT
BRANCH   1  13
ATOM     10  C   UNL     1      -0.882   1.055   0.889  0.00  0.00    +0.000 A 
ATOM     11  C   UNL     1       0.225   1.811   0.551  0.00  0.00    +0.001 A 
ATOM     12  C   UNL     1       1.449   1.203   0.365  0.00  0.00    +0.008 A 
ATOM     13  C   UNL     1       1.569  -0.179   0.518  0.00  0.00    -0.014 A 
ATOM     14  C   UNL     1       0.448  -0.936   0.860  0.00  0.00    +0.008 A 
ATOM     15  C   UNL     1      -0.771  -0.316   1.043  0.00  0.00    +0.001 A 
ENDBRANCH   1  13
BRANCH   9  16
ATOM     16  C   UNL     1       4.099   0.135   2.304  0.00  0.00    +0.018 A 
ATOM     17  C   UNL     1       3.100   0.087   3.279  0.00  0.00    +0.015 A 
ATOM     18  C   UNL     1       3.200   0.876   4.405  0.00  0.00    +0.046 A 
ATOM     19  C   UNL     1       4.293   1.718   4.570  0.00  0.00    +0.120 A 
ATOM     20  C   UNL     1       5.288   1.769   3.603  0.00  0.00    +0.046 A 
ATOM     21  C   UNL     1       5.199   0.979   2.477  0.00  0.00    +0.015 A 
BRANCH  19  22
ATOM     22  O   UNL     1       4.387   2.495   5.681  0.00  0.00    -0.494 OA
BRANCH  22  23
ATOM     23  C   UNL     1       5.536   3.338   5.787  0.00  0.00    +0.210 C 
BRANCH  23  24
ATOM     24  C   UNL     1       5.468   4.131   7.094  0.00  0.00    -0.037 C 
BRANCH  24  25
ATOM     25  N   UNL     1       5.541   3.205   8.232  0.00  0.00    +0.382 N 
ATOM     26  C   UNL     1       5.323   3.948   9.480  0.00  0.00    -0.079 C 
ATOM     27  C   UNL     1       5.317   2.977  10.662  0.00  0.00    -0.019 C 
ATOM     28  C   UNL     1       6.665   2.252  10.727  0.00  0.00    -0.004 C 
ATOM     29  C   UNL     1       6.916   1.542   9.393  0.00  0.00    -0.019 C 
ATOM     30  C   UNL     1       6.862   2.567   8.258  0.00  0.00    -0.079 C 
ATOM     31  H   UNL     1       4.828   2.498   8.136  0.00  0.00    -0.082 HD
ENDBRANCH  24  25
ENDBRANCH  23  24
ENDBRANCH  22  23
ENDBRANCH  19  22
ENDBRANCH   9  16
BRANCH   3  32
ATOM     32  N   UNL     1       1.256  -1.976  -2.131  0.00  0.00    -0.343 N 
ATOM     33  H   UNL     1       0.781  -1.366  -1.546  0.00  0.00    +0.146 HD
BRANCH  32  34
ATOM     34  C   UNL     1       0.578  -2.553  -3.294  0.00  0.00    +0.106 C 
BRANCH  34  35
ATOM     35  C   UNL     1      -0.860  -2.033  -3.356  0.00  0.00    +0.055 C 
BRANCH  35  36
ATOM     36  C   UNL     1      -1.558  -2.626  -4.552  0.00  0.00    -0.028 A 
ATOM     37  C   UNL     1      -1.516  -1.982  -5.780  0.00  0.00    +0.006 A 
ATOM     38  C   UNL     1      -2.173  -2.564  -6.853  0.00  0.00    +0.020 A 
ATOM     39  C   UNL     1      -2.843  -3.759  -6.665  0.00  0.00    +0.111 A 
ATOM     40  N   UNL     1      -2.862  -4.343  -5.483  0.00  0.00    -0.263 NA
ATOM     41  C   UNL     1      -2.243  -3.821  -4.442  0.00  0.00    +0.114 A 
ENDBRANCH  35  36
ENDBRANCH  34  35
ENDBRANCH  32  34
ENDBRANCH   3  32
TORSDOF 10
