REMARK  Name = CHEMBL382939
REMARK  8 active torsions:
REMARK  status: ('A' for Active; 'I' for Inactive)
REMARK    1  A    between atoms: C_1  and  N_2
REMARK    2  A    between atoms: C_10  and  C_11
REMARK    3  A    between atoms: N_13  and  C_14
REMARK    4  A    between atoms: C_17  and  C_22
REMARK    5  A    between atoms: C_19  and  O_20
REMARK    6  A    between atoms: O_20  and  C_21
REMARK    7  A    between atoms: N_29  and  C_31
REMARK    8  A    between atoms: N_34  and  C_37
REMARK                            x       y       z     vdW  Elec       q    Type
REMARK                         _______ _______ _______ _____ _____    ______ ____
ROOT
ATOM      1  C   UNL     1       0.113   0.036   9.015  0.00  0.00    +0.105 A 
ATOM      2  C   UNL     1       0.540   1.310   9.595  0.00  0.00    +0.086 A 
ATOM      3  C   UNL     1       1.087   2.499   9.086  0.00  0.00    +0.131 A 
ATOM      4  N   UNL     1       1.361   3.483   9.937  0.00  0.00    -0.220 NA
ATOM      5  C   UNL     1       1.127   3.350  11.231  0.00  0.00    +0.225 A 
ATOM      6  N   UNL     1       0.617   2.256  11.752  0.00  0.00    -0.216 NA
ATOM      7  C   UNL     1       0.308   1.215  10.980  0.00  0.00    +0.164 A 
ATOM      8  N   UNL     1      -0.218  -0.022  11.209  0.00  0.00    -0.243 N 
ATOM      9  N   UNL     1      -0.329  -0.712   9.998  0.00  0.00    -0.168 NA
ATOM     10  N   UNL     1       1.335   2.643   7.734  0.00  0.00    -0.342 N 
ATOM     11  H   UNL     1       1.152   1.909   7.127  0.00  0.00    +0.144 HD
ATOM     12  H   UNL     1       1.691   3.478   7.393  0.00  0.00    +0.144 HD
ENDROOT
BRANCH   8  13
ATOM     13  C   UNL     1      -0.610  -0.544  12.521  0.00  0.00    +0.106 C 
ATOM     14  C   UNL     1       0.192  -1.812  12.828  0.00  0.00    +0.008 C 
ATOM     15  C   UNL     1      -0.278  -2.396  14.162  0.00  0.00    -0.076 C 
ATOM     16  N   UNL     1      -1.706  -2.727  14.078  0.00  0.00    +0.382 N 
ATOM     17  C   UNL     1      -2.488  -1.506  13.855  0.00  0.00    -0.076 C 
ATOM     18  C   UNL     1      -2.103  -0.887  12.510  0.00  0.00    +0.008 C 
ATOM     19  H   UNL     1      -1.858  -3.367  13.313  0.00  0.00    -0.081 HD
BRANCH  16  20
ATOM     20  C   UNL     1      -2.135  -3.359  15.333  0.00  0.00    -0.064 C 
ATOM     21  C   UNL     1      -1.334  -4.646  15.559  0.00  0.00    +0.013 C 
ATOM     22  C   UNL     1      -1.842  -5.338  16.826  0.00  0.00    +0.158 C 
ATOM     23  O   UNL     1      -3.240  -5.604  16.695  0.00  0.00    -0.380 OA
ATOM     24  C   UNL     1      -4.043  -4.434  16.529  0.00  0.00    +0.158 C 
ATOM     25  C   UNL     1      -3.624  -3.706  15.249  0.00  0.00    +0.013 C 
ENDBRANCH  16  20
ENDBRANCH   8  13
BRANCH   1  29
ATOM     26  C   UNL     1       0.267  -1.034   4.899  0.00  0.00    +0.076 A 
ATOM     27  C   UNL     1       1.373  -0.458   5.509  0.00  0.00    +0.027 A 
ATOM     28  C   UNL     1       1.325  -0.110   6.843  0.00  0.00    +0.012 A 
ATOM     29  C   UNL     1       0.165  -0.337   7.582  0.00  0.00    +0.006 A 
ATOM     30  C   UNL     1      -0.948  -0.915   6.971  0.00  0.00    +0.057 A 
ATOM     31  C   UNL     1      -0.898  -1.257   5.632  0.00  0.00    +0.142 A 
BRANCH  26  34
ATOM     32  C   UNL     1       1.477  -1.814   3.005  0.00  0.00    +0.284 C 
ATOM     33  O   UNL     1       2.497  -1.803   3.666  0.00  0.00    -0.267 OA
ATOM     34  N   UNL     1       0.319  -1.385   3.546  0.00  0.00    -0.276 N 
ATOM     35  H   UNL     1      -0.478  -1.320   2.997  0.00  0.00    +0.155 HD
BRANCH  32  45
ATOM     36  C   UNL     1       3.974  -2.854   1.506  0.00  0.00    +0.151 C 
ATOM     37  N   UNL     1       2.620  -2.756   0.955  0.00  0.00    -0.323 N 
ATOM     38  C   UNL     1       2.226  -3.113  -0.314  0.00  0.00    +0.069 A 
ATOM     39  C   UNL     1       2.887  -3.637  -1.419  0.00  0.00    +0.028 A 
ATOM     40  C   UNL     1       2.185  -3.890  -2.577  0.00  0.00    +0.002 A 
ATOM     41  C   UNL     1       0.823  -3.626  -2.649  0.00  0.00    +0.002 A 
ATOM     42  C   UNL     1       0.155  -3.111  -1.577  0.00  0.00    +0.030 A 
ATOM     43  C   UNL     1       0.845  -2.845  -0.387  0.00  0.00    +0.090 A 
ATOM     44  N   UNL     1       0.471  -2.351   0.807  0.00  0.00    -0.223 NA
ATOM     45  C   UNL     1       1.506  -2.298   1.608  0.00  0.00    +0.198 A 
ENDBRANCH  32  45
ENDBRANCH  26  34
BRANCH  31  46
ATOM     46  O   UNL     1      -1.983  -1.816   5.032  0.00  0.00    -0.493 OA
ATOM     47  C   UNL     1      -3.142  -2.015   5.843  0.00  0.00    +0.277 C 
ENDBRANCH  31  46
ENDBRANCH   1  29
TORSDOF 6
