REMARK  Name = CHEMBL568543
REMARK  7 active torsions:
REMARK  status: ('A' for Active; 'I' for Inactive)
REMARK    1  A    between atoms: C_1  and  C_2
REMARK    2  A    between atoms: C_2  and  C_3
REMARK    3  A    between atoms: C_2  and  N_17
REMARK    4  A    between atoms: N_5  and  C_10
REMARK    5  A    between atoms: N_8  and  C_9
REMARK    6  A    between atoms: C_10  and  C_11
REMARK    7  A    between atoms: C_22  and  N_24
REMARK                            x       y       z     vdW  Elec       q    Type
REMARK                         _______ _______ _______ _____ _____    ______ ____
ROOT
ATOM      1  N   UNL     1      -0.392   1.636   0.544  0.00  0.00    -0.309 N 
ATOM      2  C   UNL     1       0.612   2.406   1.105  0.00  0.00    +0.217 A 
ATOM      3  N   UNL     1       1.735   1.819   1.495  0.00  0.00    -0.223 NA
ATOM      4  C   UNL     1       2.718   2.522   2.035  0.00  0.00    +0.118 A 
ATOM      5  C   UNL     1       2.565   3.887   2.192  0.00  0.00    +0.066 A 
ATOM      6  C   UNL     1       1.373   4.476   1.773  0.00  0.00    +0.144 A 
ATOM      7  N   UNL     1       0.430   3.711   1.234  0.00  0.00    -0.197 NA
ATOM      8  H   UNL     1      -1.217   2.054   0.251  0.00  0.00    +0.149 HD
ENDROOT
BRANCH   6   9
ATOM      9  N   UNL     1       1.175   5.848   1.912  0.00  0.00    -0.283 N 
ATOM     10  C   UNL     1       2.060   6.745   2.436  0.00  0.00    +0.206 A 
ATOM     11  N   UNL     1       1.550   7.941   2.413  0.00  0.00    -0.235 NA
ATOM     12  C   UNL     1       0.304   7.898   1.874  0.00  0.00    +0.089 A 
ATOM     13  C   UNL     1       0.046   6.557   1.540  0.00  0.00    +0.075 A 
ATOM     14  C   UNL     1      -1.164   6.208   0.959  0.00  0.00    +0.028 A 
ATOM     15  C   UNL     1      -2.110   7.180   0.709  0.00  0.00    +0.002 A 
ATOM     16  C   UNL     1      -1.860   8.505   1.033  0.00  0.00    +0.002 A 
ATOM     17  C   UNL     1      -0.667   8.868   1.617  0.00  0.00    +0.030 A 
ENDBRANCH   6   9
BRANCH   1  19
ATOM     18  C   UNL     1       0.489  -0.099  -0.937  0.00  0.00    +0.029 C 
ATOM     19  C   UNL     1      -0.209   0.191   0.393  0.00  0.00    +0.088 C 
BRANCH  19  20
ATOM     20  C   UNL     1      -1.574  -0.501   0.413  0.00  0.00    +0.090 C 
ATOM     21  C   UNL     1      -2.456   0.077  -0.696  0.00  0.00    +0.105 C 
ATOM     22  N   UNL     1      -3.752  -0.616  -0.699  0.00  0.00    -0.295 NA
ATOM     23  C   UNL     1      -3.574  -2.058  -0.920  0.00  0.00    +0.100 C 
ATOM     24  C   UNL     1      -2.692  -2.636   0.190  0.00  0.00    +0.100 C 
ATOM     25  N   UNL     1      -1.397  -1.943   0.193  0.00  0.00    -0.298 NA
ATOM     26  C   UNL     1      -0.493  -2.522   1.196  0.00  0.00    +0.105 C 
BRANCH  22  27
ATOM     27  C   UNL     1      -4.656  -0.037  -1.702  0.00  0.00    +0.119 C 
BRANCH  27  28
ATOM     28  C   UNL     1      -6.041  -0.599  -1.513  0.00  0.00    -0.033 A 
ATOM     29  C   UNL     1      -6.415  -1.754  -2.173  0.00  0.00    +0.005 A 
ATOM     30  C   UNL     1      -7.686  -2.270  -2.000  0.00  0.00    +0.000 A 
ATOM     31  C   UNL     1      -8.583  -1.629  -1.166  0.00  0.00    +0.000 A 
ATOM     32  C   UNL     1      -8.210  -0.474  -0.506  0.00  0.00    +0.000 A 
ATOM     33  C   UNL     1      -6.937   0.039  -0.676  0.00  0.00    +0.005 A 
ENDBRANCH  27  28
ENDBRANCH  22  27
ENDBRANCH  19  20
ENDBRANCH   1  19
TORSDOF 5
