REMARK  Name = CHEMBL213356
REMARK  5 active torsions:
REMARK  status: ('A' for Active; 'I' for Inactive)
REMARK    1  A    between atoms: C_1  and  N_2
REMARK    2  A    between atoms: N_5  and  C_8
REMARK    3  A    between atoms: C_11  and  N_14
REMARK    4  A    between atoms: C_27  and  C_29
REMARK    5  A    between atoms: C_31  and  O_36
REMARK                            x       y       z     vdW  Elec       q    Type
REMARK                         _______ _______ _______ _____ _____    ______ ____
ROOT
ATOM      1  N   UNL     1      -2.284  -6.928   3.836  0.00  0.00    -0.284 N 
ATOM      2  C   UNL     1      -1.495  -7.444   4.850  0.00  0.00    +0.221 A 
ATOM      3  N   UNL     1      -0.312  -6.893   5.082  0.00  0.00    -0.222 NA
ATOM      4  C   UNL     1       0.481  -7.350   6.042  0.00  0.00    +0.125 A 
ATOM      5  C   UNL     1       0.043  -8.428   6.807  0.00  0.00    +0.036 A 
ATOM      6  C   UNL     1      -1.220  -8.988   6.532  0.00  0.00    +0.150 A 
ATOM      7  N   UNL     1      -1.952  -8.469   5.559  0.00  0.00    -0.197 NA
ATOM      8  N   UNL     1      -1.671 -10.060   7.283  0.00  0.00    -0.226 N 
ATOM      9  C   UNL     1      -2.935 -10.809   7.190  0.00  0.00    +0.139 C 
ATOM     10  C   UNL     1      -2.834 -11.876   8.293  0.00  0.00    +0.118 C 
ATOM     11  C   UNL     1      -1.488 -11.630   8.928  0.00  0.00    +0.238 C 
ATOM     12  O   UNL     1      -1.021 -12.265   9.849  0.00  0.00    -0.274 OA
ATOM     13  N   UNL     1      -0.885 -10.591   8.309  0.00  0.00    -0.186 N 
ATOM     14  C   UNL     1       0.376 -10.040   8.593  0.00  0.00    +0.066 C 
ATOM     15  C   UNL     1       0.858  -8.996   7.888  0.00  0.00    +0.038 C 
ATOM     16  H   UNL     1      -3.187  -7.260   3.708  0.00  0.00    +0.155 HD
ENDROOT
BRANCH  14  17
ATOM     17  C   UNL     1       1.189 -10.616   9.683  0.00  0.00    +0.020 A 
ATOM     18  C   UNL     1       0.755 -10.521  11.006  0.00  0.00    +0.056 A 
ATOM     19  C   UNL     1       1.523 -11.064  12.022  0.00  0.00    +0.118 A 
ATOM     20  C   UNL     1       2.721 -11.700  11.725  0.00  0.00    +0.047 A 
ATOM     21  C   UNL     1       3.153 -11.795  10.415  0.00  0.00    +0.024 A 
ATOM     22  C   UNL     1       2.393 -11.263   9.392  0.00  0.00    +0.050 A 
ATOM     23 CL   UNL     1       2.937 -11.391   7.749  0.00  0.00    -0.083 Cl
BRANCH  19  24
ATOM     24  O   UNL     1       1.104 -10.974  13.312  0.00  0.00    -0.507 OA
ATOM     25  H   UNL     1       0.553 -11.715  13.599  0.00  0.00    +0.292 HD
ENDBRANCH  19  24
ENDBRANCH  14  17
BRANCH   1  29
ATOM     26  C   UNL     1      -0.783  -3.948   1.336  0.00  0.00    +0.030 A 
ATOM     27  C   UNL     1       0.062  -4.939   1.820  0.00  0.00    +0.025 A 
ATOM     28  C   UNL     1      -0.436  -5.925   2.648  0.00  0.00    +0.025 A 
ATOM     29  C   UNL     1      -1.780  -5.927   2.997  0.00  0.00    +0.034 A 
ATOM     30  C   UNL     1      -2.624  -4.937   2.512  0.00  0.00    +0.025 A 
ATOM     31  C   UNL     1      -2.126  -3.947   1.689  0.00  0.00    +0.025 A 
BRANCH  26  36
ATOM     32  C   UNL     1       0.824  -1.473  -3.275  0.00  0.00    +0.105 C 
ATOM     33  N   UNL     1       0.539  -1.686  -1.849  0.00  0.00    -0.302 NA
ATOM     34  C   UNL     1       1.350  -2.786  -1.310  0.00  0.00    +0.103 C 
ATOM     35  C   UNL     1       1.161  -2.858   0.209  0.00  0.00    +0.120 C 
ATOM     36  N   UNL     1      -0.279  -2.948   0.496  0.00  0.00    -0.327 N 
ATOM     37  C   UNL     1      -1.175  -1.959  -0.122  0.00  0.00    +0.120 C 
ATOM     38  C   UNL     1      -0.893  -1.922  -1.628  0.00  0.00    +0.103 C 
ENDBRANCH  26  36
ENDBRANCH   1  29
TORSDOF 4
