REMARK  Name = CHEMBL186679
REMARK  3 active torsions:
REMARK  status: ('A' for Active; 'I' for Inactive)
REMARK    1  A    between atoms: C_1  and  C_2
REMARK    2  A    between atoms: C_7  and  N_8
REMARK    3  A    between atoms: C_20  and  N_22
REMARK                            x       y       z     vdW  Elec       q    Type
REMARK                         _______ _______ _______ _____ _____    ______ ____
ROOT
ATOM      1  N   UNL     1       0.025  -0.015   2.416  0.00  0.00    -0.296 N 
ATOM      2  C   UNL     1      -0.365  -0.658   3.577  0.00  0.00    +0.149 A 
ATOM      3  C   UNL     1      -0.476   0.088   4.829  0.00  0.00    +0.107 A 
ATOM      4  C   UNL     1      -0.271   1.398   5.185  0.00  0.00    +0.142 A 
ATOM      5  N   UNL     1      -0.531   1.505   6.490  0.00  0.00    -0.243 NA
ATOM      6  C   UNL     1      -0.886   0.339   6.969  0.00  0.00    +0.205 A 
ATOM      7  N   UNL     1      -0.868  -0.572   5.979  0.00  0.00    -0.278 N 
ATOM      8  C   UNL     1      -1.147  -1.929   5.912  0.00  0.00    +0.167 A 
ATOM      9  C   UNL     1      -1.027  -2.600   4.686  0.00  0.00    +0.109 A 
ATOM     10  N   UNL     1      -0.644  -1.944   3.559  0.00  0.00    -0.227 NA
ATOM     11  C   UNL     1      -1.312  -3.973   4.632  0.00  0.00    +0.035 A 
ATOM     12  C   UNL     1      -1.701  -4.609   5.793  0.00  0.00    +0.046 A 
ATOM     13  C   UNL     1      -1.798  -3.877   6.975  0.00  0.00    +0.124 A 
ATOM     14  N   UNL     1      -1.525  -2.583   7.000  0.00  0.00    -0.212 NA
ATOM     15  H   UNL     1       0.230   0.933   2.433  0.00  0.00    +0.154 HD
ENDROOT
BRANCH  13  16
ATOM     16  N   UNL     1      -2.191  -4.517   8.145  0.00  0.00    -0.317 N 
ATOM     17  C   UNL     1      -2.403  -3.707   9.362  0.00  0.00    +0.104 C 
ATOM     18  C   UNL     1      -3.657  -4.173  10.125  0.00  0.00    -0.000 C 
ATOM     19  C   UNL     1      -4.752  -4.509   9.137  0.00  0.00    -0.081 C 
ATOM     20  N   UNL     1      -4.702  -5.937   8.830  0.00  0.00    +0.380 N 
ATOM     21  C   UNL     1      -3.843  -6.287   7.765  0.00  0.00    -0.063 C 
ATOM     22  C   UNL     1      -2.382  -5.952   8.126  0.00  0.00    +0.087 C 
ATOM     23  H   UNL     1      -4.401  -6.430   9.657  0.00  0.00    -0.086 HD
ATOM     24  H   UNL     1      -5.635  -6.246   8.601  0.00  0.00    -0.086 HD
ENDBRANCH  13  16
BRANCH   1  31
ATOM     25  C   UNL     1       2.522  -1.213   1.768  0.00  0.00    +0.046 C 
ATOM     26  C   UNL     1       1.323  -1.332   0.864  0.00  0.00    -0.028 A 
ATOM     27  C   UNL     1       1.415  -2.043  -0.317  0.00  0.00    +0.005 A 
ATOM     28  C   UNL     1       0.315  -2.153  -1.147  0.00  0.00    +0.002 A 
ATOM     29  C   UNL     1      -0.881  -1.552  -0.800  0.00  0.00    +0.022 A 
ATOM     30  C   UNL     1      -0.981  -0.839   0.380  0.00  0.00    +0.062 A 
ATOM     31  C   UNL     1       0.122  -0.731   1.219  0.00  0.00    +0.054 A 
ATOM     32 CL   UNL     1      -2.482  -0.085   0.816  0.00  0.00    -0.082 Cl
ENDBRANCH   1  31
TORSDOF 2
