REMARK  Name = CHEMBL475817
REMARK  5 active torsions:
REMARK  status: ('A' for Active; 'I' for Inactive)
REMARK    1  A    between atoms: C_3  and  C_11
REMARK    2  A    between atoms: C_5  and  C_7
REMARK    3  A    between atoms: N_13  and  C_14
REMARK    4  A    between atoms: C_18  and  C_20
REMARK    5  A    between atoms: N_22  and  C_23
REMARK                            x       y       z     vdW  Elec       q    Type
REMARK                         _______ _______ _______ _____ _____    ______ ____
ROOT
ATOM      1  C   UNL     1       4.821   4.269   0.023  0.00  0.00    +0.034 A 
ATOM      2  C   UNL     1       6.059   3.638   0.011  0.00  0.00    +0.025 A 
ATOM      3  C   UNL     1       7.220   4.379   0.123  0.00  0.00    +0.022 A 
ATOM      4  C   UNL     1       7.158   5.754   0.246  0.00  0.00    +0.053 A 
ATOM      5  C   UNL     1       5.918   6.398   0.258  0.00  0.00    +0.057 A 
ATOM      6  C   UNL     1       4.747   5.648   0.140  0.00  0.00    +0.037 A 
ATOM      7 CL   UNL     1       8.619   6.680   0.386  0.00  0.00    -0.083 Cl
ENDROOT
BRANCH   1  10
ATOM      8  C   UNL     1       3.579   2.291   0.475  0.00  0.00    +0.248 C 
ATOM      9  O   UNL     1       4.560   1.811   1.008  0.00  0.00    -0.270 OA
ATOM     10  N   UNL     1       3.649   3.513  -0.090  0.00  0.00    -0.281 N 
ATOM     11  H   UNL     1       2.888   3.868  -0.574  0.00  0.00    +0.155 HD
BRANCH   8  14
ATOM     12  C   UNL     1      -0.002   1.374  -0.191  0.00  0.00    +0.001 A 
ATOM     13  C   UNL     1       1.181   2.084  -0.167  0.00  0.00    +0.013 A 
ATOM     14  C   UNL     1       2.309   1.536   0.445  0.00  0.00    +0.038 A 
ATOM     15  C   UNL     1       2.232   0.269   1.028  0.00  0.00    +0.025 A 
ATOM     16  C   UNL     1       1.044  -0.431   0.997  0.00  0.00    +0.056 A 
ATOM     17  C   UNL     1      -0.070   0.119   0.389  0.00  0.00    +0.012 A 
BRANCH  16  18
ATOM     18  C   UNL     1       0.960  -1.798   1.625  0.00  0.00    +0.417 C 
ATOM     19  F   UNL     1       0.581  -1.672   2.966  0.00  0.00    -0.166 F 
ATOM     20  F   UNL     1       0.013  -2.567   0.943  0.00  0.00    -0.166 F 
ATOM     21  F   UNL     1       2.210  -2.423   1.551  0.00  0.00    -0.166 F 
ENDBRANCH  16  18
ENDBRANCH   8  14
ENDBRANCH   1  10
BRANCH   5  22
ATOM     22  C   UNL     1       5.847   7.868   0.390  0.00  0.00    +0.250 C 
ATOM     23  O   UNL     1       6.869   8.519   0.488  0.00  0.00    -0.270 OA
ATOM     24  N   UNL     1       4.650   8.486   0.401  0.00  0.00    -0.280 N 
ATOM     25  H   UNL     1       3.833   7.963   0.407  0.00  0.00    +0.155 HD
BRANCH  24  26
ATOM     26  C   UNL     1       4.585   9.886   0.406  0.00  0.00    +0.053 A 
ATOM     27  C   UNL     1       5.627  10.643  -0.128  0.00  0.00    +0.048 A 
ATOM     28  C   UNL     1       5.520  12.022  -0.102  0.00  0.00    +0.082 A 
ATOM     29  C   UNL     1       4.383  12.604   0.452  0.00  0.00    +0.135 A 
ATOM     30  N   UNL     1       3.413  11.853   0.949  0.00  0.00    -0.237 NA
ATOM     31  C   UNL     1       3.480  10.535   0.936  0.00  0.00    +0.136 A 
ATOM     32  N   UNL     1       4.265  13.991   0.483  0.00  0.00    -0.342 N 
ATOM     33 CL   UNL     1       6.788  13.014  -0.752  0.00  0.00    -0.080 Cl
ATOM     34  H   UNL     1       4.973  14.546   0.120  0.00  0.00    +0.144 HD
ATOM     35  H   UNL     1       3.475  14.402   0.868  0.00  0.00    +0.144 HD
ENDBRANCH  24  26
ENDBRANCH   5  22
TORSDOF 5
