REMARK  Name = CHEMBL207820
REMARK  8 active torsions:
REMARK  status: ('A' for Active; 'I' for Inactive)
REMARK    1  A    between atoms: C_1  and  O_2
REMARK    2  A    between atoms: O_2  and  C_3
REMARK    3  A    between atoms: C_5  and  N_13
REMARK    4  A    between atoms: C_7  and  O_11
REMARK    5  A    between atoms: C_8  and  O_9
REMARK    6  A    between atoms: O_9  and  C_10
REMARK    7  A    between atoms: O_11  and  C_12
REMARK    8  A    between atoms: N_20  and  C_23
REMARK                            x       y       z     vdW  Elec       q    Type
REMARK                         _______ _______ _______ _____ _____    ______ ____
ROOT
ATOM      1  N   UNL     1       2.360   0.321  -4.158  0.00  0.00    -0.283 N 
ATOM      2  C   UNL     1       3.066  -0.289  -5.183  0.00  0.00    +0.221 A 
ATOM      3  N   UNL     1       3.096  -1.616  -5.237  0.00  0.00    -0.222 NA
ATOM      4  C   UNL     1       3.755  -2.245  -6.195  0.00  0.00    +0.126 A 
ATOM      5  C   UNL     1       4.423  -1.486  -7.156  0.00  0.00    +0.037 A 
ATOM      6  C   UNL     1       5.235  -1.790  -8.334  0.00  0.00    +0.031 A 
ATOM      7  C   UNL     1       5.608  -0.615  -8.865  0.00  0.00    +0.094 A 
ATOM      8  N   UNL     1       5.098   0.418  -8.117  0.00  0.00    -0.297 N 
ATOM      9  C   UNL     1       4.370  -0.079  -7.068  0.00  0.00    +0.150 A 
ATOM     10  N   UNL     1       3.680   0.471  -6.074  0.00  0.00    -0.196 NA
ATOM     11  H   UNL     1       2.256   1.285  -4.148  0.00  0.00    +0.155 HD
ENDROOT
BRANCH   8  12
ATOM     12  C   UNL     1       5.293   1.780  -8.388  0.00  0.00    +0.101 A 
ATOM     13  C   UNL     1       4.773   2.350  -9.541  0.00  0.00    +0.139 A 
ATOM     14  N   UNL     1       4.954   3.630  -9.799  0.00  0.00    -0.261 NA
ATOM     15  C   UNL     1       5.629   4.417  -8.983  0.00  0.00    +0.113 A 
ATOM     16  C   UNL     1       6.178   3.924  -7.815  0.00  0.00    +0.060 A 
ATOM     17  C   UNL     1       6.007   2.583  -7.499  0.00  0.00    +0.150 A 
ATOM     18  F   UNL     1       6.525   2.068  -6.363  0.00  0.00    -0.203 F 
ENDBRANCH   8  12
BRANCH   1  21
ATOM     19  C   UNL     1       1.887  -2.376  -1.696  0.00  0.00    +0.167 A 
ATOM     20  C   UNL     1       2.442  -1.608  -2.708  0.00  0.00    +0.073 A 
ATOM     21  C   UNL     1       1.799  -0.454  -3.136  0.00  0.00    +0.041 A 
ATOM     22  C   UNL     1       0.600  -0.069  -2.552  0.00  0.00    +0.073 A 
ATOM     23  C   UNL     1       0.044  -0.836  -1.540  0.00  0.00    +0.167 A 
ATOM     24  C   UNL     1       0.684  -1.994  -1.114  0.00  0.00    +0.204 A 
BRANCH  19  26
ATOM     25  C   UNL     1       3.749  -3.838  -1.919  0.00  0.00    +0.277 C 
ATOM     26  O   UNL     1       2.516  -3.506  -1.277  0.00  0.00    -0.491 OA
ENDBRANCH  19  26
BRANCH  24  27
ATOM     27  O   UNL     1       0.136  -2.750  -0.124  0.00  0.00    -0.488 OA
ATOM     28  C   UNL     1       0.510  -2.433   1.218  0.00  0.00    +0.277 C 
ENDBRANCH  24  27
BRANCH  23  29
ATOM     29  O   UNL     1      -1.130  -0.458  -0.967  0.00  0.00    -0.491 OA
ATOM     30  C   UNL     1      -1.735   0.740  -1.458  0.00  0.00    +0.277 C 
ENDBRANCH  23  29
ENDBRANCH   1  21
TORSDOF 5
