REMARK  Name = CHEMBL452341
REMARK  8 active torsions:
REMARK  status: ('A' for Active; 'I' for Inactive)
REMARK    1  A    between atoms: C_1  and  N_2
REMARK    2  A    between atoms: N_2  and  C_3
REMARK    3  A    between atoms: N_2  and  S_33
REMARK    4  A    between atoms: C_8  and  C_9
REMARK    5  A    between atoms: C_9  and  N_10
REMARK    6  A    between atoms: C_12  and  C_29
REMARK    7  A    between atoms: N_17  and  C_18
REMARK    8  A    between atoms: S_33  and  C_36
REMARK                            x       y       z     vdW  Elec       q    Type
REMARK                         _______ _______ _______ _____ _____    ______ ____
ROOT
ATOM      1  N   UNL     1       3.455   0.084   0.477  0.00  0.00    -0.324 N 
ATOM      2  C   UNL     1       4.538   0.667  -0.159  0.00  0.00    +0.136 A 
ATOM      3  C   UNL     1       5.161   1.791   0.389  0.00  0.00    +0.113 A 
ATOM      4  C   UNL     1       6.239   2.339  -0.280  0.00  0.00    +0.130 A 
ATOM      5  N   UNL     1       6.647   1.787  -1.413  0.00  0.00    -0.222 NA
ATOM      6  C   UNL     1       6.037   0.721  -1.910  0.00  0.00    +0.221 A 
ATOM      7  N   UNL     1       5.004   0.162  -1.297  0.00  0.00    -0.199 NA
ATOM      8  N   UNL     1       6.495   0.174  -3.097  0.00  0.00    -0.284 N 
ATOM      9  H   UNL     1       3.120   0.459   1.307  0.00  0.00    +0.148 HD
ATOM     10  H   UNL     1       6.009  -0.555  -3.514  0.00  0.00    +0.155 HD
ENDROOT
BRANCH   8  11
ATOM     11  C   UNL     1       7.659   0.672  -3.695  0.00  0.00    +0.034 A 
ATOM     12  C   UNL     1       8.696   1.165  -2.913  0.00  0.00    +0.025 A 
ATOM     13  C   UNL     1       9.833   1.650  -3.509  0.00  0.00    +0.026 A 
ATOM     14  C   UNL     1       9.980   1.663  -4.911  0.00  0.00    +0.053 A 
ATOM     15  C   UNL     1       8.944   1.172  -5.676  0.00  0.00    -0.001 A 
ATOM     16  C   UNL     1       7.794   0.675  -5.073  0.00  0.00    +0.030 A 
ATOM     17  C   UNL     1       9.216   1.237  -7.176  0.00  0.00    +0.225 C 
ATOM     18  S   UNL     1      10.888   1.983  -7.201  0.00  0.00    +0.047 S 
ATOM     19  O   UNL     1      11.859   1.042  -7.639  0.00  0.00    -0.155 OA
ATOM     20  O   UNL     1      10.848   3.304  -7.725  0.00  0.00    -0.155 OA
ATOM     21  N   UNL     1      11.133   2.154  -5.559  0.00  0.00    -0.220 N 
ATOM     22  H   UNL     1      11.921   2.522  -5.130  0.00  0.00    +0.173 HD
ENDBRANCH   8  11
BRANCH   3  23
ATOM     23  C   UNL     1       4.669   2.392   1.680  0.00  0.00    +0.422 C 
ATOM     24  F   UNL     1       5.457   3.500   2.009  0.00  0.00    -0.166 F 
ATOM     25  F   UNL     1       3.338   2.796   1.529  0.00  0.00    -0.166 F 
ATOM     26  F   UNL     1       4.754   1.439   2.701  0.00  0.00    -0.166 F 
ENDBRANCH   3  23
BRANCH   1  27
ATOM     27  C   UNL     1       2.813  -1.098  -0.104  0.00  0.00    +0.140 C 
BRANCH  27  33
ATOM     28  C   UNL     1       0.427  -1.017   0.666  0.00  0.00    +0.055 A 
ATOM     29  C   UNL     1      -0.600  -1.450   1.496  0.00  0.00    +0.025 A 
ATOM     30  C   UNL     1      -0.351  -2.413   2.454  0.00  0.00    +0.002 A 
ATOM     31  C   UNL     1       0.918  -2.946   2.587  0.00  0.00    +0.000 A 
ATOM     32  C   UNL     1       1.942  -2.518   1.763  0.00  0.00    +0.007 A 
ATOM     33  C   UNL     1       1.698  -1.560   0.798  0.00  0.00    -0.008 A 
BRANCH  28  35
ATOM     34  C   UNL     1      -0.328  -0.435  -1.622  0.00  0.00    +0.157 C 
ATOM     35  N   UNL     1       0.179  -0.043  -0.304  0.00  0.00    -0.210 N 
BRANCH  35  36
ATOM     36  S   UNL     1       0.457   1.553   0.035  0.00  0.00    +0.042 S 
ATOM     37  O   UNL     1       1.307   1.539   1.173  0.00  0.00    -0.155 OA
ATOM     38  O   UNL     1       0.900   2.113  -1.194  0.00  0.00    -0.155 OA
ATOM     39  C   UNL     1      -1.169   2.226   0.478  0.00  0.00    +0.218 C 
ENDBRANCH  35  36
ENDBRANCH  28  35
ENDBRANCH  27  33
ENDBRANCH   1  27
TORSDOF 6
