REMARK  Name = CHEMBL383300
REMARK  8 active torsions:
REMARK  status: ('A' for Active; 'I' for Inactive)
REMARK    1  A    between atoms: C_1  and  O_2
REMARK    2  A    between atoms: O_2  and  C_3
REMARK    3  A    between atoms: C_5  and  N_13
REMARK    4  A    between atoms: C_7  and  O_11
REMARK    5  A    between atoms: C_8  and  O_9
REMARK    6  A    between atoms: O_9  and  C_10
REMARK    7  A    between atoms: O_11  and  C_12
REMARK    8  A    between atoms: C_21  and  O_24
REMARK                            x       y       z     vdW  Elec       q    Type
REMARK                         _______ _______ _______ _____ _____    ______ ____
ROOT
ATOM      1  N   UNL     1      -4.831  -0.210   0.464  0.00  0.00    -0.285 N 
ATOM      2  C   UNL     1      -6.073  -0.769   0.211  0.00  0.00    +0.199 A 
ATOM      3  N   UNL     1      -6.166  -2.077   0.019  0.00  0.00    -0.334 N 
ATOM      4  C   UNL     1      -7.335  -2.648  -0.227  0.00  0.00    +0.092 A 
ATOM      5  C   UNL     1      -8.472  -1.862  -0.281  0.00  0.00    +0.009 A 
ATOM      6  C   UNL     1      -8.343  -0.493  -0.072  0.00  0.00    +0.137 A 
ATOM      7  N   UNL     1      -7.139   0.016   0.173  0.00  0.00    -0.200 NA
ATOM      8  N   UNL     1      -9.452   0.340  -0.107  0.00  0.00    -0.243 N 
ATOM      9  C   UNL     1     -10.710  -0.176  -0.665  0.00  0.00    +0.210 C 
ATOM     10  C   UNL     1     -10.939  -1.582  -0.095  0.00  0.00    +0.057 C 
ATOM     11  C   UNL     1      -9.806  -2.496  -0.563  0.00  0.00    +0.044 C 
ATOM     12  C   UNL     1      -9.375   1.642   0.379  0.00  0.00    +0.129 A 
ATOM     13  C   UNL     1      -9.047   2.682  -0.485  0.00  0.00    +0.044 A 
ATOM     14  C   UNL     1      -8.975   3.971   0.011  0.00  0.00    +0.005 A 
ATOM     15  C   UNL     1      -9.233   4.178   1.360  0.00  0.00    +0.020 A 
ATOM     16  C   UNL     1      -9.552   3.099   2.160  0.00  0.00    +0.113 A 
ATOM     17  N   UNL     1      -9.620   1.881   1.658  0.00  0.00    -0.240 NA
ATOM     18  H   UNL     1      -4.761   0.728   0.701  0.00  0.00    +0.155 HD
ATOM     19  H   UNL     1      -5.365  -2.623   0.059  0.00  0.00    +0.168 HD
ENDROOT
BRANCH   1  22
ATOM     20  C   UNL     1      -2.395  -2.688  -0.752  0.00  0.00    +0.167 A 
ATOM     21  C   UNL     1      -3.537  -1.908  -0.663  0.00  0.00    +0.073 A 
ATOM     22  C   UNL     1      -3.677  -0.998   0.375  0.00  0.00    +0.041 A 
ATOM     23  C   UNL     1      -2.674  -0.868   1.326  0.00  0.00    +0.073 A 
ATOM     24  C   UNL     1      -1.531  -1.648   1.239  0.00  0.00    +0.167 A 
ATOM     25  C   UNL     1      -1.392  -2.563   0.202  0.00  0.00    +0.204 A 
BRANCH  20  27
ATOM     26  C   UNL     1      -3.327  -3.656  -2.715  0.00  0.00    +0.277 C 
ATOM     27  O   UNL     1      -2.257  -3.580  -1.770  0.00  0.00    -0.491 OA
ENDBRANCH  20  27
BRANCH  25  28
ATOM     28  O   UNL     1      -0.272  -3.333   0.119  0.00  0.00    -0.488 OA
ATOM     29  C   UNL     1       0.824  -2.805  -0.630  0.00  0.00    +0.277 C 
ENDBRANCH  25  28
BRANCH  24  30
ATOM     30  O   UNL     1      -0.549  -1.521   2.170  0.00  0.00    -0.491 OA
ATOM     31  C   UNL     1      -0.760  -0.564   3.210  0.00  0.00    +0.277 C 
ENDBRANCH  24  30
ENDBRANCH   1  22
BRANCH   9  32
ATOM     32  O   UNL     1     -11.792   0.679  -0.291  0.00  0.00    -0.374 OA
ATOM     33  H   UNL     1     -11.743   1.566  -0.675  0.00  0.00    +0.212 HD
ENDBRANCH   9  32
TORSDOF 5
