REMARK  Name = CHEMBL564417
REMARK  11 active torsions:
REMARK  status: ('A' for Active; 'I' for Inactive)
REMARK    1  A    between atoms: C_1  and  C_2
REMARK    2  A    between atoms: C_4  and  N_32
REMARK    3  A    between atoms: C_10  and  C_12
REMARK    4  A    between atoms: C_13  and  N_20
REMARK    5  A    between atoms: N_20  and  C_21
REMARK    6  A    between atoms: C_21  and  C_22
REMARK    7  A    between atoms: C_22  and  C_24
REMARK    8  A    between atoms: C_22  and  O_31
REMARK    9  A    between atoms: N_35  and  C_38
REMARK   10  A    between atoms: C_38  and  C_39
REMARK   11  A    between atoms: C_39  and  C_40
REMARK                            x       y       z     vdW  Elec       q    Type
REMARK                         _______ _______ _______ _____ _____    ______ ____
ROOT
ATOM      1  C   UNL     1      -0.080   2.051   0.189  0.00  0.00    +0.046 C 
ATOM      2  C   UNL     1      -0.108   0.564  -0.051  0.00  0.00    -0.023 A 
ATOM      3  C   UNL     1      -0.153   0.073  -1.338  0.00  0.00    +0.028 A 
ATOM      4  C   UNL     1      -0.179  -1.301  -1.568  0.00  0.00    +0.032 A 
ATOM      5  C   UNL     1      -0.159  -2.188  -0.507  0.00  0.00    +0.053 A 
ATOM      6  C   UNL     1      -0.112  -1.700   0.802  0.00  0.00    +0.091 A 
ATOM      7  C   UNL     1      -0.082  -0.312   1.024  0.00  0.00    +0.070 A 
ATOM      8  N   UNL     1      -0.033  -0.141   2.399  0.00  0.00    -0.337 N 
ATOM      9  H   UNL     1      -0.006   0.704   2.873  0.00  0.00    +0.167 HD
ATOM     10  C   UNL     1      -0.030  -1.391   2.961  0.00  0.00    +0.146 A 
ATOM     11  N   UNL     1      -0.084  -2.303   2.017  0.00  0.00    -0.227 NA
ENDROOT
BRANCH  10  12
ATOM     12  C   UNL     1       0.016  -1.669   4.406  0.00  0.00    +0.102 A 
ATOM     13  C   UNL     1       0.138  -2.984   4.877  0.00  0.00    +0.045 A 
ATOM     14  C   UNL     1       0.179  -3.205   6.267  0.00  0.00    +0.041 A 
ATOM     15  C   UNL     1       0.100  -2.160   7.118  0.00  0.00    +0.088 A 
ATOM     16  N   UNL     1      -0.019  -0.885   6.663  0.00  0.00    -0.328 N 
ATOM     17  H   UNL     1      -0.073  -0.156   7.300  0.00  0.00    +0.168 HD
ATOM     18  C   UNL     1      -0.056  -0.615   5.345  0.00  0.00    +0.261 A 
ATOM     19  O   UNL     1      -0.158   0.538   4.961  0.00  0.00    -0.267 OA
BRANCH  13  20
ATOM     20  N   UNL     1       0.217  -4.041   3.995  0.00  0.00    -0.340 N 
ATOM     21  H   UNL     1       0.269  -3.874   3.041  0.00  0.00    +0.146 HD
BRANCH  20  22
ATOM     22  C   UNL     1       0.222  -5.417   4.499  0.00  0.00    +0.137 C 
BRANCH  22  23
ATOM     23  C   UNL     1       0.315  -6.390   3.323  0.00  0.00    +0.163 C 
BRANCH  23  24
ATOM     24  C   UNL     1       0.197  -7.804   3.830  0.00  0.00    +0.001 A 
ATOM     25  C   UNL     1       1.336  -8.537   4.107  0.00  0.00    +0.007 A 
ATOM     26  C   UNL     1       1.227  -9.834   4.573  0.00  0.00    +0.000 A 
ATOM     27  C   UNL     1      -0.021 -10.399   4.762  0.00  0.00    +0.001 A 
ATOM     28  C   UNL     1      -1.160  -9.667   4.485  0.00  0.00    +0.020 A 
ATOM     29  C   UNL     1      -1.052  -8.367   4.024  0.00  0.00    +0.047 A 
ATOM     30 CL   UNL     1      -2.483  -7.445   3.683  0.00  0.00    -0.083 Cl
ENDBRANCH  23  24
BRANCH  23  31
ATOM     31  O   UNL     1       1.574  -6.224   2.666  0.00  0.00    -0.386 OA
ATOM     32  H   UNL     1       2.339  -6.388   3.234  0.00  0.00    +0.210 HD
ENDBRANCH  23  31
ENDBRANCH  22  23
ENDBRANCH  20  22
ENDBRANCH  13  20
ENDBRANCH  10  12
BRANCH   4  33
ATOM     33  N   UNL     1      -0.226  -1.786  -2.880  0.00  0.00    -0.333 N 
ATOM     34  C   UNL     1      -0.132  -3.228  -3.156  0.00  0.00    +0.086 C 
ATOM     35  C   UNL     1      -1.287  -3.621  -4.083  0.00  0.00    -0.060 C 
ATOM     36  N   UNL     1      -1.263  -2.772  -5.280  0.00  0.00    +0.382 N 
ATOM     37  C   UNL     1      -1.514  -1.374  -4.907  0.00  0.00    -0.060 C 
ATOM     38  C   UNL     1      -0.376  -0.870  -4.020  0.00  0.00    +0.086 C 
ATOM     39  H   UNL     1      -0.360  -2.843  -5.724  0.00  0.00    -0.082 HD
BRANCH  36  40
ATOM     40  C   UNL     1      -2.302  -3.220  -6.218  0.00  0.00    -0.064 C 
BRANCH  40  41
ATOM     41  C   UNL     1      -2.198  -2.418  -7.516  0.00  0.00    +0.100 C 
BRANCH  41  42
ATOM     42  C   UNL     1      -3.238  -2.868  -8.455  0.00  0.00    +0.061 C 
ATOM     43  N   UNL     1      -4.042  -3.215  -9.180  0.00  0.00    -0.197 NA
ENDBRANCH  41  42
ENDBRANCH  40  41
ENDBRANCH  36  40
ENDBRANCH   4  33
TORSDOF 10
