REMARK  Name = CHEMBL383672
REMARK  7 active torsions:
REMARK  status: ('A' for Active; 'I' for Inactive)
REMARK    1  A    between atoms: C_1  and  O_2
REMARK    2  A    between atoms: O_2  and  C_3
REMARK    3  A    between atoms: C_5  and  N_13
REMARK    4  A    between atoms: C_7  and  O_11
REMARK    5  A    between atoms: C_8  and  O_9
REMARK    6  A    between atoms: O_9  and  C_10
REMARK    7  A    between atoms: O_11  and  C_12
REMARK                            x       y       z     vdW  Elec       q    Type
REMARK                         _______ _______ _______ _____ _____    ______ ____
ROOT
ATOM      1  N   UNL     1      -4.786   0.201   0.038  0.00  0.00    -0.283 N 
ATOM      2  C   UNL     1      -6.011  -0.440  -0.059  0.00  0.00    +0.221 A 
ATOM      3  N   UNL     1      -6.040  -1.768  -0.052  0.00  0.00    -0.222 NA
ATOM      4  C   UNL     1      -7.183  -2.426  -0.142  0.00  0.00    +0.126 A 
ATOM      5  C   UNL     1      -8.367  -1.697  -0.243  0.00  0.00    +0.037 A 
ATOM      6  C   UNL     1      -9.787  -2.038  -0.357  0.00  0.00    +0.031 A 
ATOM      7  C   UNL     1     -10.462  -0.881  -0.420  0.00  0.00    +0.095 A 
ATOM      8  N   UNL     1      -9.586   0.177  -0.355  0.00  0.00    -0.285 N 
ATOM      9  C   UNL     1      -8.300  -0.288  -0.246  0.00  0.00    +0.151 A 
ATOM     10  N   UNL     1      -7.109   0.292  -0.148  0.00  0.00    -0.196 NA
ATOM     11  C   UNL     1      -9.950   1.521  -0.394  0.00  0.00    +0.144 A 
ATOM     12  C   UNL     1     -11.291   1.888  -0.501  0.00  0.00    +0.066 A 
ATOM     13  C   UNL     1     -11.602   3.234  -0.536  0.00  0.00    +0.117 A 
ATOM     14  N   UNL     1     -10.625   4.126  -0.467  0.00  0.00    -0.226 NA
ATOM     15  C   UNL     1      -9.366   3.746  -0.367  0.00  0.00    +0.225 A 
ATOM     16  N   UNL     1      -9.025   2.472  -0.324  0.00  0.00    -0.200 NA
ATOM     17 CL   UNL     1      -8.123   4.955  -0.281  0.00  0.00    -0.041 Cl
ATOM     18  H   UNL     1      -4.750   1.167   0.120  0.00  0.00    +0.155 HD
ENDROOT
BRANCH   1  21
ATOM     19  C   UNL     1      -2.350  -2.439  -0.771  0.00  0.00    +0.167 A 
ATOM     20  C   UNL     1      -3.523  -1.700  -0.750  0.00  0.00    +0.073 A 
ATOM     21  C   UNL     1      -3.602  -0.545   0.017  0.00  0.00    +0.041 A 
ATOM     22  C   UNL     1      -2.506  -0.129   0.761  0.00  0.00    +0.073 A 
ATOM     23  C   UNL     1      -1.333  -0.867   0.741  0.00  0.00    +0.167 A 
ATOM     24  C   UNL     1      -1.256  -2.026  -0.022  0.00  0.00    +0.204 A 
BRANCH  19  26
ATOM     25  C   UNL     1      -3.437  -3.935  -2.268  0.00  0.00    +0.277 C 
ATOM     26  O   UNL     1      -2.274  -3.570  -1.522  0.00  0.00    -0.491 OA
ENDBRANCH  19  26
BRANCH  24  27
ATOM     27  O   UNL     1      -0.105  -2.755  -0.038  0.00  0.00    -0.488 OA
ATOM     28  C   UNL     1       0.862  -2.418  -1.035  0.00  0.00    +0.277 C 
ENDBRANCH  24  27
BRANCH  23  29
ATOM     29  O   UNL     1      -0.260  -0.460   1.470  0.00  0.00    -0.491 OA
ATOM     30  C   UNL     1      -0.413   0.738   2.235  0.00  0.00    +0.277 C 
ENDBRANCH  23  29
ENDBRANCH   1  21
TORSDOF 4
