REMARK  Name = CHEMBL207015
REMARK  9 active torsions:
REMARK  status: ('A' for Active; 'I' for Inactive)
REMARK    1  A    between atoms: C_1  and  O_2
REMARK    2  A    between atoms: O_2  and  C_3
REMARK    3  A    between atoms: C_5  and  N_13
REMARK    4  A    between atoms: C_7  and  O_11
REMARK    5  A    between atoms: C_8  and  O_9
REMARK    6  A    between atoms: O_9  and  C_10
REMARK    7  A    between atoms: O_11  and  C_12
REMARK    8  A    between atoms: N_20  and  C_23
REMARK    9  A    between atoms: C_27  and  C_29
REMARK                            x       y       z     vdW  Elec       q    Type
REMARK                         _______ _______ _______ _____ _____    ______ ____
ROOT
ATOM      1  N   UNL     1       2.421   0.276   4.130  0.00  0.00    -0.283 N 
ATOM      2  C   UNL     1       2.966  -0.348   5.241  0.00  0.00    +0.221 A 
ATOM      3  N   UNL     1       3.018  -1.674   5.268  0.00  0.00    -0.222 NA
ATOM      4  C   UNL     1       3.529  -2.317   6.305  0.00  0.00    +0.126 A 
ATOM      5  C   UNL     1       4.015  -1.571   7.378  0.00  0.00    +0.037 A 
ATOM      6  C   UNL     1       4.635  -1.892   8.665  0.00  0.00    +0.031 A 
ATOM      7  C   UNL     1       4.889  -0.725   9.277  0.00  0.00    +0.094 A 
ATOM      8  N   UNL     1       4.481   0.318   8.482  0.00  0.00    -0.301 N 
ATOM      9  C   UNL     1       3.944  -0.164   7.317  0.00  0.00    +0.150 A 
ATOM     10  N   UNL     1       3.419   0.400   6.234  0.00  0.00    -0.196 NA
ATOM     11  H   UNL     1       2.450   1.243   4.054  0.00  0.00    +0.155 HD
ENDROOT
BRANCH   1  14
ATOM     12  C   UNL     1       0.568  -2.417   2.435  0.00  0.00    +0.167 A 
ATOM     13  C   UNL     1       1.155  -1.659   3.437  0.00  0.00    +0.073 A 
ATOM     14  C   UNL     1       1.829  -0.488   3.118  0.00  0.00    +0.041 A 
ATOM     15  C   UNL     1       1.916  -0.075   1.795  0.00  0.00    +0.073 A 
ATOM     16  C   UNL     1       1.330  -0.831   0.792  0.00  0.00    +0.167 A 
ATOM     17  C   UNL     1       0.659  -2.006   1.111  0.00  0.00    +0.204 A 
BRANCH  12  19
ATOM     18  C   UNL     1      -0.147  -3.925   4.130  0.00  0.00    +0.277 C 
ATOM     19  O   UNL     1      -0.092  -3.563   2.748  0.00  0.00    -0.491 OA
ENDBRANCH  12  19
BRANCH  17  20
ATOM     20  O   UNL     1       0.087  -2.752   0.126  0.00  0.00    -0.488 OA
ATOM     21  C   UNL     1      -1.267  -2.449  -0.214  0.00  0.00    +0.277 C 
ENDBRANCH  17  20
BRANCH  16  22
ATOM     22  O   UNL     1       1.414  -0.426  -0.503  0.00  0.00    -0.491 OA
ATOM     23  C   UNL     1       2.123   0.789  -0.757  0.00  0.00    +0.277 C 
ENDBRANCH  16  22
ENDBRANCH   1  14
BRANCH   8  24
ATOM     24  C   UNL     1       4.597   1.675   8.813  0.00  0.00    +0.049 A 
ATOM     25  C   UNL     1       5.156   2.567   7.905  0.00  0.00    +0.026 A 
ATOM     26  C   UNL     1       5.273   3.906   8.227  0.00  0.00    +0.003 A 
ATOM     27  C   UNL     1       4.835   4.367   9.452  0.00  0.00    +0.019 A 
ATOM     28  C   UNL     1       4.271   3.479  10.370  0.00  0.00    +0.054 A 
ATOM     29  C   UNL     1       4.148   2.128  10.043  0.00  0.00    +0.045 A 
BRANCH  28  30
ATOM     30  C   UNL     1       3.816   3.955  11.642  0.00  0.00    +0.099 C 
ATOM     31  N   UNL     1       3.454   4.332  12.651  0.00  0.00    -0.191 NA
ENDBRANCH  28  30
ENDBRANCH   8  24
TORSDOF 6
