REMARK  Name = CHEMBL208368
REMARK  9 active torsions:
REMARK  status: ('A' for Active; 'I' for Inactive)
REMARK    1  A    between atoms: C_1  and  C_2
REMARK    2  A    between atoms: C_5  and  N_8
REMARK    3  A    between atoms: N_17  and  C_18
REMARK    4  A    between atoms: C_20  and  O_28
REMARK    5  A    between atoms: C_21  and  O_26
REMARK    6  A    between atoms: C_22  and  O_24
REMARK    7  A    between atoms: O_24  and  C_25
REMARK    8  A    between atoms: O_26  and  C_27
REMARK    9  A    between atoms: O_28  and  C_29
REMARK                            x       y       z     vdW  Elec       q    Type
REMARK                         _______ _______ _______ _____ _____    ______ ____
ROOT
ATOM      1  N   UNL     1       0.373  -4.204  -0.376  0.00  0.00    -0.301 N 
ATOM      2  C   UNL     1      -0.519  -4.996  -1.057  0.00  0.00    +0.094 A 
ATOM      3  C   UNL     1      -0.386  -6.273  -0.666  0.00  0.00    +0.031 A 
ATOM      4  C   UNL     1       0.673  -6.301   0.344  0.00  0.00    +0.037 A 
ATOM      5  C   UNL     1       1.119  -4.969   0.482  0.00  0.00    +0.150 A 
ATOM      6  N   UNL     1       2.096  -4.711   1.345  0.00  0.00    -0.196 NA
ATOM      7  C   UNL     1       2.638  -5.687   2.055  0.00  0.00    +0.221 A 
ATOM      8  N   UNL     1       2.243  -6.950   1.946  0.00  0.00    -0.222 NA
ATOM      9  C   UNL     1       1.272  -7.293   1.118  0.00  0.00    +0.126 A 
ATOM     10  N   UNL     1       3.655  -5.379   2.945  0.00  0.00    -0.283 N 
ATOM     11  H   UNL     1       3.902  -4.454   3.098  0.00  0.00    +0.155 HD
ENDROOT
BRANCH   1  16
ATOM     12  C   UNL     1       0.905   1.408  -1.036  0.00  0.00    +0.044 C 
ATOM     13  C   UNL     1       0.764  -0.083  -0.861  0.00  0.00    -0.050 A 
ATOM     14  C   UNL     1       0.758  -0.910  -1.968  0.00  0.00    +0.005 A 
ATOM     15  C   UNL     1       0.628  -2.276  -1.811  0.00  0.00    +0.026 A 
ATOM     16  C   UNL     1       0.505  -2.818  -0.539  0.00  0.00    +0.048 A 
ATOM     17  C   UNL     1       0.511  -1.985   0.572  0.00  0.00    +0.026 A 
ATOM     18  C   UNL     1       0.646  -0.620   0.408  0.00  0.00    +0.005 A 
ENDBRANCH   1  16
BRANCH  10  19
ATOM     19  C   UNL     1       4.326  -6.404   3.623  0.00  0.00    +0.041 A 
ATOM     20  C   UNL     1       4.534  -7.627   3.000  0.00  0.00    +0.073 A 
ATOM     21  C   UNL     1       5.198  -8.643   3.671  0.00  0.00    +0.167 A 
ATOM     22  C   UNL     1       5.655  -8.436   4.966  0.00  0.00    +0.204 A 
ATOM     23  C   UNL     1       5.447  -7.211   5.589  0.00  0.00    +0.167 A 
ATOM     24  C   UNL     1       4.787  -6.195   4.915  0.00  0.00    +0.073 A 
BRANCH  23  25
ATOM     25  O   UNL     1       5.894  -7.008   6.857  0.00  0.00    -0.491 OA
ATOM     26  C   UNL     1       5.645  -5.725   7.435  0.00  0.00    +0.277 C 
ENDBRANCH  23  25
BRANCH  22  27
ATOM     27  O   UNL     1       6.308  -9.433   5.626  0.00  0.00    -0.488 OA
ATOM     28  C   UNL     1       7.728  -9.486   5.481  0.00  0.00    +0.277 C 
ENDBRANCH  22  27
BRANCH  21  29
ATOM     29  O   UNL     1       5.401  -9.841   3.061  0.00  0.00    -0.491 OA
ATOM     30  C   UNL     1       4.904  -9.984   1.729  0.00  0.00    +0.277 C 
ENDBRANCH  21  29
ENDBRANCH  10  19
TORSDOF 5
