REMARK  Name = CHEMBL207961
REMARK  15 active torsions:
REMARK  status: ('A' for Active; 'I' for Inactive)
REMARK    1  A    between atoms: C_1  and  N_2
REMARK    2  A    between atoms: N_2  and  C_3
REMARK    3  A    between atoms: N_2  and  C_4
REMARK    4  A    between atoms: C_4  and  C_5
REMARK    5  A    between atoms: C_5  and  C_6
REMARK    6  A    between atoms: C_6  and  N_7
REMARK    7  A    between atoms: C_8  and  C_10
REMARK    8  A    between atoms: C_14  and  N_16
REMARK    9  A    between atoms: N_25  and  C_26
REMARK   10  A    between atoms: C_28  and  O_36
REMARK   11  A    between atoms: C_29  and  O_34
REMARK   12  A    between atoms: C_30  and  O_32
REMARK   13  A    between atoms: O_32  and  C_33
REMARK   14  A    between atoms: O_34  and  C_35
REMARK   15  A    between atoms: O_36  and  C_37
REMARK                            x       y       z     vdW  Elec       q    Type
REMARK                         _______ _______ _______ _____ _____    ______ ____
ROOT
ATOM      1  N   UNL     1      -6.518  -8.696  -0.826  0.00  0.00    -0.301 N 
ATOM      2  C   UNL     1      -7.509  -8.597   0.120  0.00  0.00    +0.094 A 
ATOM      3  C   UNL     1      -8.401  -9.585  -0.048  0.00  0.00    +0.031 A 
ATOM      4  C   UNL     1      -7.947 -10.378  -1.192  0.00  0.00    +0.037 A 
ATOM      5  C   UNL     1      -6.758  -9.767  -1.646  0.00  0.00    +0.150 A 
ATOM      6  N   UNL     1      -6.133 -10.293  -2.694  0.00  0.00    -0.196 NA
ATOM      7  C   UNL     1      -6.621 -11.364  -3.298  0.00  0.00    +0.221 A 
ATOM      8  N   UNL     1      -7.738 -11.960  -2.898  0.00  0.00    -0.222 NA
ATOM      9  C   UNL     1      -8.418 -11.508  -1.858  0.00  0.00    +0.126 A 
ATOM     10  N   UNL     1      -5.941 -11.883  -4.388  0.00  0.00    -0.283 N 
ATOM     11  H   UNL     1      -5.082 -11.512  -4.646  0.00  0.00    +0.155 HD
ENDROOT
BRANCH   1  16
ATOM     12  C   UNL     1      -4.541  -5.592  -1.066  0.00  0.00    +0.039 A 
ATOM     13  C   UNL     1      -3.251  -6.115  -1.168  0.00  0.00    +0.013 A 
ATOM     14  C   UNL     1      -3.057  -7.481  -1.156  0.00  0.00    +0.003 A 
ATOM     15  C   UNL     1      -4.138  -8.336  -1.043  0.00  0.00    +0.026 A 
ATOM     16  C   UNL     1      -5.426  -7.825  -0.941  0.00  0.00    +0.049 A 
ATOM     17  C   UNL     1      -5.630  -6.454  -0.947  0.00  0.00    +0.039 A 
BRANCH  12  19
ATOM     18  N   UNL     1      -3.697  -3.297  -1.193  0.00  0.00    -0.311 N 
ATOM     19  C   UNL     1      -4.751  -4.128  -1.078  0.00  0.00    +0.244 C 
ATOM     20  O   UNL     1      -5.875  -3.675  -0.984  0.00  0.00    -0.270 OA
ATOM     21  H   UNL     1      -2.800  -3.659  -1.269  0.00  0.00    +0.149 HD
BRANCH  18  22
ATOM     22  C   UNL     1      -3.905  -1.847  -1.205  0.00  0.00    +0.102 C 
BRANCH  22  23
ATOM     23  C   UNL     1      -2.556  -1.139  -1.345  0.00  0.00    +0.000 C 
BRANCH  23  24
ATOM     24  C   UNL     1      -2.773   0.376  -1.358  0.00  0.00    -0.078 C 
BRANCH  24  26
ATOM     25  C   UNL     1      -1.695   2.502  -1.625  0.00  0.00    -0.097 C 
ATOM     26  N   UNL     1      -1.478   1.055  -1.492  0.00  0.00    +0.376 N 
ATOM     27  C   UNL     1      -0.659   0.790  -0.301  0.00  0.00    -0.097 C 
ATOM     28  H   UNL     1      -1.001   0.711  -2.312  0.00  0.00    -0.083 HD
ENDBRANCH  24  26
ENDBRANCH  23  24
ENDBRANCH  22  23
ENDBRANCH  18  22
ENDBRANCH  12  19
ENDBRANCH   1  16
BRANCH  10  29
ATOM     29  C   UNL     1      -6.493 -12.943  -5.118  0.00  0.00    +0.041 A 
ATOM     30  C   UNL     1      -7.870 -13.035  -5.273  0.00  0.00    +0.073 A 
ATOM     31  C   UNL     1      -8.417 -14.084  -5.995  0.00  0.00    +0.167 A 
ATOM     32  C   UNL     1      -7.588 -15.043  -6.564  0.00  0.00    +0.204 A 
ATOM     33  C   UNL     1      -6.210 -14.950  -6.409  0.00  0.00    +0.167 A 
ATOM     34  C   UNL     1      -5.664 -13.897  -5.691  0.00  0.00    +0.073 A 
BRANCH  33  35
ATOM     35  O   UNL     1      -5.398 -15.888  -6.965  0.00  0.00    -0.491 OA
ATOM     36  C   UNL     1      -3.992 -15.729  -6.765  0.00  0.00    +0.277 C 
ENDBRANCH  33  35
BRANCH  32  37
ATOM     37  O   UNL     1      -8.125 -16.074  -7.274  0.00  0.00    -0.488 OA
ATOM     38  C   UNL     1      -8.308 -15.870  -8.676  0.00  0.00    +0.277 C 
ENDBRANCH  32  37
BRANCH  31  39
ATOM     39  O   UNL     1      -9.766 -14.175  -6.146  0.00  0.00    -0.491 OA
ATOM     40  C   UNL     1     -10.557 -13.155  -5.535  0.00  0.00    +0.277 C 
ENDBRANCH  31  39
ENDBRANCH  10  29
TORSDOF 10
