REMARK  Name = CHEMBL383241
REMARK  7 active torsions:
REMARK  status: ('A' for Active; 'I' for Inactive)
REMARK    1  A    between atoms: C_1  and  O_2
REMARK    2  A    between atoms: O_2  and  C_3
REMARK    3  A    between atoms: C_5  and  N_13
REMARK    4  A    between atoms: C_7  and  O_11
REMARK    5  A    between atoms: C_8  and  O_9
REMARK    6  A    between atoms: O_9  and  C_10
REMARK    7  A    between atoms: O_11  and  C_12
REMARK                            x       y       z     vdW  Elec       q    Type
REMARK                         _______ _______ _______ _____ _____    ______ ____
ROOT
ATOM      1  N   UNL     1       2.421   0.277   4.130  0.00  0.00    -0.285 N 
ATOM      2  C   UNL     1       2.965  -0.347   5.241  0.00  0.00    +0.199 A 
ATOM      3  N   UNL     1       3.020  -1.671   5.272  0.00  0.00    -0.334 N 
ATOM      4  C   UNL     1       3.534  -2.300   6.320  0.00  0.00    +0.092 A 
ATOM      5  C   UNL     1       4.013  -1.558   7.379  0.00  0.00    +0.010 A 
ATOM      6  C   UNL     1       3.947  -0.168   7.325  0.00  0.00    +0.135 A 
ATOM      7  N   UNL     1       3.420   0.396   6.236  0.00  0.00    -0.200 NA
ATOM      8  N   UNL     1       4.470   0.414   8.467  0.00  0.00    -0.271 N 
ATOM      9  C   UNL     1       4.939  -0.620   9.394  0.00  0.00    +0.118 C 
ATOM     10  C   UNL     1       4.646  -1.956   8.691  0.00  0.00    +0.059 C 
ATOM     11  C   UNL     1       4.540   1.784   8.701  0.00  0.00    +0.104 A 
ATOM     12  C   UNL     1       5.095   2.253   9.887  0.00  0.00    +0.042 A 
ATOM     13  C   UNL     1       5.158   3.617  10.107  0.00  0.00    +0.005 A 
ATOM     14  C   UNL     1       4.664   4.470   9.128  0.00  0.00    +0.018 A 
ATOM     15  C   UNL     1       4.127   3.935   7.974  0.00  0.00    +0.084 A 
ATOM     16  N   UNL     1       4.084   2.629   7.790  0.00  0.00    -0.349 N 
ATOM     17  H   UNL     1       2.461   1.242   4.048  0.00  0.00    +0.155 HD
ATOM     18  H   UNL     1       2.681  -2.184   4.523  0.00  0.00    +0.168 HD
ATOM     19  H   UNL     1       3.705   2.280   6.968  0.00  0.00    +0.167 HD
ENDROOT
BRANCH   1  22
ATOM     20  C   UNL     1       0.386  -2.306   2.473  0.00  0.00    +0.167 A 
ATOM     21  C   UNL     1       0.988  -1.550   3.466  0.00  0.00    +0.073 A 
ATOM     22  C   UNL     1       1.814  -0.487   3.126  0.00  0.00    +0.041 A 
ATOM     23  C   UNL     1       2.038  -0.181   1.790  0.00  0.00    +0.073 A 
ATOM     24  C   UNL     1       1.436  -0.936   0.796  0.00  0.00    +0.167 A 
ATOM     25  C   UNL     1       0.613  -2.003   1.135  0.00  0.00    +0.204 A 
BRANCH  20  27
ATOM     26  C   UNL     1      -0.613  -3.601   4.199  0.00  0.00    +0.277 C 
ATOM     27  O   UNL     1      -0.423  -3.347   2.806  0.00  0.00    -0.491 OA
ENDBRANCH  20  27
BRANCH  25  28
ATOM     28  O   UNL     1       0.026  -2.749   0.159  0.00  0.00    -0.488 OA
ATOM     29  C   UNL     1      -1.258  -2.321  -0.301  0.00  0.00    +0.277 C 
ENDBRANCH  25  28
BRANCH  24  30
ATOM     30  O   UNL     1       1.655  -0.636  -0.512  0.00  0.00    -0.491 OA
ATOM     31  C   UNL     1       2.516   0.471  -0.789  0.00  0.00    +0.277 C 
ENDBRANCH  24  30
ENDBRANCH   1  22
TORSDOF 4
