REMARK  Name = CHEMBL514409
REMARK  9 active torsions:
REMARK  status: ('A' for Active; 'I' for Inactive)
REMARK    1  A    between atoms: C_1  and  C_2
REMARK    2  A    between atoms: C_2  and  S_3
REMARK    3  A    between atoms: S_3  and  N_6
REMARK    4  A    between atoms: N_6  and  C_7
REMARK    5  A    between atoms: C_14  and  C_15
REMARK    6  A    between atoms: C_14  and  N_21
REMARK    7  A    between atoms: N_21  and  C_22
REMARK    8  A    between atoms: C_25  and  C_28
REMARK    9  A    between atoms: C_28  and  N_29
REMARK                            x       y       z     vdW  Elec       q    Type
REMARK                         _______ _______ _______ _____ _____    ______ ____
ROOT
ATOM      1  C   UNL     1      -2.694  -3.661  -2.432  0.00  0.00    +0.075 A 
ATOM      2  C   UNL     1      -3.879  -2.959  -2.232  0.00  0.00    +0.028 A 
ATOM      3  C   UNL     1      -4.895  -3.500  -1.471  0.00  0.00    +0.026 A 
ATOM      4  C   UNL     1      -4.743  -4.756  -0.897  0.00  0.00    +0.042 A 
ATOM      5  C   UNL     1      -3.550  -5.464  -1.098  0.00  0.00    +0.012 A 
ATOM      6  C   UNL     1      -2.530  -4.917  -1.869  0.00  0.00    +0.037 A 
ATOM      7  C   UNL     1      -3.703  -6.741  -0.368  0.00  0.00    +0.068 C 
ATOM      8  C   UNL     1      -2.776  -7.771  -0.278  0.00  0.00    +0.051 C 
ATOM      9  C   UNL     1      -4.994  -6.696   0.221  0.00  0.00    +0.251 C 
ATOM     10  O   UNL     1      -5.489  -7.573   0.907  0.00  0.00    -0.270 OA
ATOM     11  N   UNL     1      -5.580  -5.531  -0.101  0.00  0.00    -0.281 N 
ATOM     12  H   UNL     1      -6.468  -5.266   0.185  0.00  0.00    +0.155 HD
ENDROOT
BRANCH   8  13
ATOM     13  C   UNL     1      -1.413  -7.585  -0.810  0.00  0.00    -0.003 A 
ATOM     14  C   UNL     1      -0.903  -8.475  -1.761  0.00  0.00    +0.010 A 
ATOM     15  C   UNL     1       0.371  -8.295  -2.254  0.00  0.00    +0.001 A 
ATOM     16  C   UNL     1       1.146  -7.237  -1.811  0.00  0.00    +0.000 A 
ATOM     17  C   UNL     1       0.648  -6.353  -0.870  0.00  0.00    +0.001 A 
ATOM     18  C   UNL     1      -0.627  -6.516  -0.372  0.00  0.00    +0.010 A 
ENDBRANCH   8  13
BRANCH   8  19
ATOM     19  N   UNL     1      -3.127  -8.961   0.307  0.00  0.00    -0.313 N 
ATOM     20  H   UNL     1      -3.847  -9.492  -0.068  0.00  0.00    +0.152 HD
BRANCH  19  21
ATOM     21  C   UNL     1      -2.448  -9.408   1.444  0.00  0.00    +0.031 A 
ATOM     22  C   UNL     1      -1.557  -8.567   2.098  0.00  0.00    +0.023 A 
ATOM     23  C   UNL     1      -0.888  -9.012   3.222  0.00  0.00    +0.003 A 
ATOM     24  C   UNL     1      -1.105 -10.293   3.695  0.00  0.00    -0.064 A 
ATOM     25  C   UNL     1      -1.991 -11.133   3.045  0.00  0.00    +0.003 A 
ATOM     26  C   UNL     1      -2.668 -10.693   1.925  0.00  0.00    +0.023 A 
BRANCH  24  27
ATOM     27  C   UNL     1      -0.373 -10.775   4.921  0.00  0.00    -0.043 C 
BRANCH  27  28
ATOM     28  N   UNL     1      -1.164 -10.463   6.118  0.00  0.00    +0.382 N 
ATOM     29  C   UNL     1      -1.270  -9.007   6.267  0.00  0.00    -0.078 C 
ATOM     30  C   UNL     1      -2.162  -8.676   7.466  0.00  0.00    -0.019 C 
ATOM     31  C   UNL     1      -1.546  -9.277   8.733  0.00  0.00    -0.004 C 
ATOM     32  C   UNL     1      -1.371 -10.786   8.538  0.00  0.00    -0.019 C 
ATOM     33  C   UNL     1      -0.510 -11.038   7.299  0.00  0.00    -0.078 C 
ATOM     34  H   UNL     1      -2.088 -10.858   6.022  0.00  0.00    -0.081 HD
ENDBRANCH  27  28
ENDBRANCH  24  27
ENDBRANCH  19  21
ENDBRANCH   8  19
BRANCH   1  35
ATOM     35  N   UNL     1      -1.671  -3.101  -3.205  0.00  0.00    -0.103 NA
BRANCH  35  36
ATOM     36  S   UNL     1      -1.867  -1.600  -3.876  0.00  0.00    +0.062 S 
ATOM     37  O   UNL     1      -1.978  -0.718  -2.768  0.00  0.00    -0.154 OA
ATOM     38  O   UNL     1      -2.943  -1.750  -4.792  0.00  0.00    -0.154 OA
BRANCH  36  40
ATOM     39  C   UNL     1      -0.392   0.090  -5.441  0.00  0.00    +0.030 C 
ATOM     40  C   UNL     1      -0.323  -1.285  -4.774  0.00  0.00    +0.187 C 
ENDBRANCH  36  40
ENDBRANCH  35  36
ENDBRANCH   1  35
TORSDOF 8
