REMARK  Name = CHEMBL379118
REMARK  3 active torsions:
REMARK  status: ('A' for Active; 'I' for Inactive)
REMARK    1  A    between atoms: C_1  and  C_2
REMARK    2  A    between atoms: C_5  and  C_24
REMARK    3  A    between atoms: C_7  and  N_8
REMARK                            x       y       z     vdW  Elec       q    Type
REMARK                         _______ _______ _______ _____ _____    ______ ____
ROOT
ATOM      1  N   UNL     1       0.025  -0.008   2.417  0.00  0.00    -0.283 N 
ATOM      2  C   UNL     1      -0.058  -0.703   3.613  0.00  0.00    +0.221 A 
ATOM      3  N   UNL     1      -0.033  -2.030   3.585  0.00  0.00    -0.222 NA
ATOM      4  C   UNL     1      -0.110  -2.738   4.699  0.00  0.00    +0.126 A 
ATOM      5  C   UNL     1      -0.218  -2.062   5.913  0.00  0.00    +0.037 A 
ATOM      6  C   UNL     1      -0.324  -2.465   7.317  0.00  0.00    +0.031 A 
ATOM      7  C   UNL     1      -0.402  -1.338   8.042  0.00  0.00    +0.095 A 
ATOM      8  N   UNL     1      -0.354  -0.244   7.211  0.00  0.00    -0.285 N 
ATOM      9  C   UNL     1      -0.242  -0.651   5.907  0.00  0.00    +0.151 A 
ATOM     10  N   UNL     1      -0.155  -0.019   4.741  0.00  0.00    -0.196 NA
ATOM     11  C   UNL     1      -0.411   1.086   7.633  0.00  0.00    +0.139 A 
ATOM     12  C   UNL     1      -0.518   1.374   8.989  0.00  0.00    +0.047 A 
ATOM     13  C   UNL     1      -0.573   2.696   9.394  0.00  0.00    +0.005 A 
ATOM     14  C   UNL     1      -0.518   3.688   8.425  0.00  0.00    +0.020 A 
ATOM     15  C   UNL     1      -0.411   3.329   7.096  0.00  0.00    +0.113 A 
ATOM     16  N   UNL     1      -0.356   2.060   6.740  0.00  0.00    -0.238 NA
ATOM     17  H   UNL     1       0.099   0.959   2.421  0.00  0.00    +0.155 HD
ENDROOT
BRANCH   1  24
ATOM     18  C   UNL     1       1.232   1.217   0.154  0.00  0.00    +0.045 C 
ATOM     19  C   UNL     1       0.582  -0.140   0.071  0.00  0.00    -0.029 A 
ATOM     20  C   UNL     1       0.568  -0.824  -1.131  0.00  0.00    +0.006 A 
ATOM     21  C   UNL     1      -0.025  -2.067  -1.215  0.00  0.00    +0.013 A 
ATOM     22  C   UNL     1      -0.614  -2.638  -0.085  0.00  0.00    +0.038 A 
ATOM     23  C   UNL     1      -0.600  -1.948   1.126  0.00  0.00    +0.036 A 
ATOM     24  C   UNL     1       0.004  -0.702   1.202  0.00  0.00    +0.037 A 
BRANCH  22  25
ATOM     25  C   UNL     1      -1.252  -3.969  -0.174  0.00  0.00    +0.242 C 
ATOM     26  O   UNL     1      -1.764  -4.464   0.811  0.00  0.00    -0.270 OA
ATOM     27  N   UNL     1      -1.264  -4.633  -1.346  0.00  0.00    -0.325 N 
ATOM     28  H   UNL     1      -0.856  -4.239  -2.132  0.00  0.00    +0.145 HD
ATOM     29  H   UNL     1      -1.683  -5.507  -1.404  0.00  0.00    +0.145 HD
ENDBRANCH  22  25
ENDBRANCH   1  24
TORSDOF 2
