REMARK  Name = CHEMBL425418
REMARK  14 active torsions:
REMARK  status: ('A' for Active; 'I' for Inactive)
REMARK    1  A    between atoms: C_1  and  N_2
REMARK    2  A    between atoms: N_2  and  C_3
REMARK    3  A    between atoms: N_2  and  C_4
REMARK    4  A    between atoms: C_4  and  C_5
REMARK    5  A    between atoms: C_5  and  N_6
REMARK    6  A    between atoms: C_7  and  C_9
REMARK    7  A    between atoms: C_13  and  N_15
REMARK    8  A    between atoms: N_24  and  C_25
REMARK    9  A    between atoms: C_27  and  O_35
REMARK   10  A    between atoms: C_28  and  O_33
REMARK   11  A    between atoms: C_29  and  O_31
REMARK   12  A    between atoms: O_31  and  C_32
REMARK   13  A    between atoms: O_33  and  C_34
REMARK   14  A    between atoms: O_35  and  C_36
REMARK                            x       y       z     vdW  Elec       q    Type
REMARK                         _______ _______ _______ _____ _____    ______ ____
ROOT
ATOM      1  N   UNL     1      -7.656  -3.020   0.507  0.00  0.00    -0.285 N 
ATOM      2  C   UNL     1      -8.995  -3.328   0.476  0.00  0.00    +0.095 A 
ATOM      3  C   UNL     1      -9.720  -2.205   0.364  0.00  0.00    +0.031 A 
ATOM      4  C   UNL     1      -8.773  -1.089   0.319  0.00  0.00    +0.037 A 
ATOM      5  C   UNL     1      -7.487  -1.662   0.420  0.00  0.00    +0.151 A 
ATOM      6  N   UNL     1      -6.430  -0.857   0.409  0.00  0.00    -0.196 NA
ATOM      7  C   UNL     1      -6.585   0.453   0.310  0.00  0.00    +0.221 A 
ATOM      8  N   UNL     1      -7.781   1.023   0.218  0.00  0.00    -0.222 NA
ATOM      9  C   UNL     1      -8.885   0.296   0.212  0.00  0.00    +0.126 A 
ATOM     10  N   UNL     1      -5.459   1.260   0.302  0.00  0.00    -0.283 N 
ATOM     11  H   UNL     1      -4.575   0.860   0.287  0.00  0.00    +0.155 HD
ENDROOT
BRANCH   1  16
ATOM     12  C   UNL     1      -4.355  -4.386   0.747  0.00  0.00    +0.128 A 
ATOM     13  C   UNL     1      -4.586  -5.756   0.833  0.00  0.00    +0.033 A 
ATOM     14  C   UNL     1      -5.892  -6.225   0.809  0.00  0.00    +0.006 A 
ATOM     15  C   UNL     1      -6.922  -5.308   0.700  0.00  0.00    +0.047 A 
ATOM     16  C   UNL     1      -6.621  -3.951   0.618  0.00  0.00    +0.140 A 
ATOM     17  N   UNL     1      -5.369  -3.534   0.649  0.00  0.00    -0.225 NA
BRANCH  12  19
ATOM     18  N   UNL     1      -2.735  -2.547   0.695  0.00  0.00    -0.312 N 
ATOM     19  C   UNL     1      -2.966  -3.873   0.772  0.00  0.00    +0.262 C 
ATOM     20  O   UNL     1      -2.034  -4.648   0.863  0.00  0.00    -0.269 OA
ATOM     21  H   UNL     1      -3.479  -1.929   0.623  0.00  0.00    +0.149 HD
BRANCH  18  22
ATOM     22  C   UNL     1      -1.361  -2.040   0.720  0.00  0.00    +0.086 C 
BRANCH  22  23
ATOM     23  C   UNL     1      -1.379  -0.514   0.619  0.00  0.00    -0.061 C 
BRANCH  23  25
ATOM     24  C   UNL     1      -0.011   1.448   0.427  0.00  0.00    -0.097 C 
ATOM     25  N   UNL     1      -0.001  -0.005   0.644  0.00  0.00    +0.377 N 
ATOM     26  C   UNL     1       0.607  -0.301   1.948  0.00  0.00    -0.097 C 
ATOM     27  H   UNL     1       0.535  -0.451  -0.086  0.00  0.00    -0.083 HD
ENDBRANCH  23  25
ENDBRANCH  22  23
ENDBRANCH  18  22
ENDBRANCH  12  19
ENDBRANCH   1  16
BRANCH  10  28
ATOM     28  C   UNL     1      -5.596   2.653   0.317  0.00  0.00    +0.041 A 
ATOM     29  C   UNL     1      -6.649   3.240   1.005  0.00  0.00    +0.073 A 
ATOM     30  C   UNL     1      -6.785   4.619   1.020  0.00  0.00    +0.167 A 
ATOM     31  C   UNL     1      -5.867   5.415   0.346  0.00  0.00    +0.204 A 
ATOM     32  C   UNL     1      -4.812   4.827  -0.343  0.00  0.00    +0.167 A 
ATOM     33  C   UNL     1      -4.675   3.448  -0.352  0.00  0.00    +0.073 A 
BRANCH  32  34
ATOM     34  O   UNL     1      -3.913   5.605  -1.003  0.00  0.00    -0.491 OA
ATOM     35  C   UNL     1      -2.855   4.934  -1.689  0.00  0.00    +0.277 C 
ENDBRANCH  32  34
BRANCH  31  36
ATOM     36  O   UNL     1      -6.000   6.770   0.360  0.00  0.00    -0.488 OA
ATOM     37  C   UNL     1      -5.345   7.476   1.416  0.00  0.00    +0.277 C 
ENDBRANCH  31  36
BRANCH  30  38
ATOM     38  O   UNL     1      -7.818   5.194   1.693  0.00  0.00    -0.491 OA
ATOM     39  C   UNL     1      -8.724   4.315   2.363  0.00  0.00    +0.277 C 
ENDBRANCH  30  38
ENDBRANCH  10  28
TORSDOF 9
