REMARK  Name = CHEMBL206797
REMARK  2 active torsions:
REMARK  status: ('A' for Active; 'I' for Inactive)
REMARK    1  A    between atoms: C_1  and  C_2
REMARK    2  A    between atoms: C_7  and  N_8
REMARK                            x       y       z     vdW  Elec       q    Type
REMARK                         _______ _______ _______ _____ _____    ______ ____
ROOT
ATOM      1  N   UNL     1       0.025  -0.016   2.416  0.00  0.00    -0.283 N 
ATOM      2  C   UNL     1      -0.059  -0.715   3.610  0.00  0.00    +0.221 A 
ATOM      3  N   UNL     1      -0.033  -2.042   3.577  0.00  0.00    -0.222 NA
ATOM      4  C   UNL     1      -0.110  -2.754   4.689  0.00  0.00    +0.126 A 
ATOM      5  C   UNL     1      -0.218  -2.083   5.905  0.00  0.00    +0.037 A 
ATOM      6  C   UNL     1      -0.324  -2.491   7.308  0.00  0.00    +0.031 A 
ATOM      7  C   UNL     1      -0.402  -1.367   8.036  0.00  0.00    +0.095 A 
ATOM      8  N   UNL     1      -0.355  -0.270   7.210  0.00  0.00    -0.285 N 
ATOM      9  C   UNL     1      -0.243  -0.672   5.904  0.00  0.00    +0.151 A 
ATOM     10  N   UNL     1      -0.156  -0.036   4.741  0.00  0.00    -0.196 NA
ATOM     11  C   UNL     1      -0.412   1.058   7.637  0.00  0.00    +0.139 A 
ATOM     12  C   UNL     1      -0.519   1.341   8.994  0.00  0.00    +0.047 A 
ATOM     13  C   UNL     1      -0.575   2.662   9.404  0.00  0.00    +0.005 A 
ATOM     14  C   UNL     1      -0.520   3.658   8.438  0.00  0.00    +0.020 A 
ATOM     15  C   UNL     1      -0.413   3.304   7.108  0.00  0.00    +0.113 A 
ATOM     16  N   UNL     1      -0.358   2.036   6.747  0.00  0.00    -0.238 NA
ATOM     17  H   UNL     1      -0.074   0.949   2.411  0.00  0.00    +0.155 HD
ENDROOT
BRANCH   1  24
ATOM     18  C   UNL     1      -1.198   0.978   0.047  0.00  0.00    +0.045 C 
ATOM     19  C   UNL     1      -0.326  -0.251   0.039  0.00  0.00    -0.029 A 
ATOM     20  C   UNL     1      -0.095  -0.927  -1.143  0.00  0.00    +0.005 A 
ATOM     21  C   UNL     1       0.705  -2.055  -1.151  0.00  0.00    +0.000 A 
ATOM     22  C   UNL     1       1.278  -2.509   0.023  0.00  0.00    +0.002 A 
ATOM     23  C   UNL     1       1.051  -1.838   1.208  0.00  0.00    +0.023 A 
ATOM     24  C   UNL     1       0.252  -0.701   1.219  0.00  0.00    +0.036 A 
ENDBRANCH   1  24
TORSDOF 1
