REMARK  Name = CHEMBL1084546
REMARK  7 active torsions:
REMARK  status: ('A' for Active; 'I' for Inactive)
REMARK    1  A    between atoms: C_1  and  N_2
REMARK    2  A    between atoms: N_2  and  S_32
REMARK    3  A    between atoms: C_4  and  C_9
REMARK    4  A    between atoms: C_9  and  N_10
REMARK    5  A    between atoms: C_12  and  C_28
REMARK    6  A    between atoms: N_17  and  C_18
REMARK    7  A    between atoms: S_32  and  C_35
REMARK                            x       y       z     vdW  Elec       q    Type
REMARK                         _______ _______ _______ _____ _____    ______ ____
ROOT
ATOM      1  N   UNL     1      -1.567   1.724   2.677  0.00  0.00    -0.324 N 
ATOM      2  C   UNL     1      -1.879   3.070   2.781  0.00  0.00    +0.136 A 
ATOM      3  C   UNL     1      -3.210   3.486   2.852  0.00  0.00    +0.113 A 
ATOM      4  C   UNL     1      -3.474   4.837   2.954  0.00  0.00    +0.130 A 
ATOM      5  N   UNL     1      -2.463   5.694   2.981  0.00  0.00    -0.222 NA
ATOM      6  C   UNL     1      -1.210   5.272   2.912  0.00  0.00    +0.221 A 
ATOM      7  N   UNL     1      -0.915   3.984   2.819  0.00  0.00    -0.199 NA
ATOM      8  N   UNL     1      -0.182   6.199   2.944  0.00  0.00    -0.284 N 
ATOM      9  H   UNL     1      -2.276   1.063   2.650  0.00  0.00    +0.148 HD
ATOM     10  H   UNL     1       0.740   5.901   2.976  0.00  0.00    +0.155 HD
ENDROOT
BRANCH   8  11
ATOM     11  C   UNL     1      -0.474   7.569   2.929  0.00  0.00    +0.034 A 
ATOM     12  C   UNL     1       0.356   8.466   3.589  0.00  0.00    +0.025 A 
ATOM     13  C   UNL     1       0.071   9.815   3.576  0.00  0.00    +0.025 A 
ATOM     14  C   UNL     1      -1.053  10.289   2.900  0.00  0.00    +0.037 A 
ATOM     15  C   UNL     1      -1.876   9.384   2.243  0.00  0.00    -0.016 A 
ATOM     16  C   UNL     1      -1.592   8.037   2.249  0.00  0.00    +0.029 A 
ATOM     17  C   UNL     1      -2.988  10.195   1.618  0.00  0.00    +0.133 C 
ATOM     18  C   UNL     1      -2.669  11.622   2.012  0.00  0.00    +0.222 C 
ATOM     19  O   UNL     1      -3.309  12.610   1.720  0.00  0.00    -0.275 OA
ATOM     20  N   UNL     1      -1.544  11.588   2.746  0.00  0.00    -0.285 N 
ATOM     21  H   UNL     1      -1.122  12.374   3.125  0.00  0.00    +0.155 HD
ENDBRANCH   8  11
BRANCH   3  22
ATOM     22  C   UNL     1      -4.334   2.482   2.817  0.00  0.00    +0.422 C 
ATOM     23  F   UNL     1      -5.560   3.151   2.902  0.00  0.00    -0.166 F 
ATOM     24  F   UNL     1      -4.279   1.761   1.619  0.00  0.00    -0.166 F 
ATOM     25  F   UNL     1      -4.207   1.602   3.897  0.00  0.00    -0.166 F 
ENDBRANCH   3  22
BRANCH   1  26
ATOM     26  C   UNL     1      -0.167   1.299   2.610  0.00  0.00    +0.141 C 
BRANCH  26  30
ATOM     27  C   UNL     1       0.656   0.576  -0.550  0.00  0.00    +0.159 C 
ATOM     28  N   UNL     1      -0.474  -0.062   0.130  0.00  0.00    -0.193 N 
ATOM     29  C   UNL     1      -0.257  -0.829   1.269  0.00  0.00    +0.144 A 
ATOM     30  C   UNL     1      -0.102  -0.203   2.502  0.00  0.00    +0.011 A 
ATOM     31  C   UNL     1       0.113  -0.977   3.627  0.00  0.00    +0.010 A 
ATOM     32  C   UNL     1       0.166  -2.358   3.482  0.00  0.00    +0.020 A 
ATOM     33  C   UNL     1       0.004  -2.912   2.228  0.00  0.00    +0.113 A 
ATOM     34  N   UNL     1      -0.206  -2.148   1.172  0.00  0.00    -0.239 NA
BRANCH  28  35
ATOM     35  S   UNL     1      -2.010   0.130  -0.458  0.00  0.00    +0.044 S 
ATOM     36  O   UNL     1      -2.855  -0.041   0.671  0.00  0.00    -0.155 OA
ATOM     37  O   UNL     1      -1.978   1.366  -1.159  0.00  0.00    -0.155 OA
ATOM     38  C   UNL     1      -2.239  -1.242  -1.623  0.00  0.00    +0.218 C 
ENDBRANCH  28  35
ENDBRANCH  26  30
ENDBRANCH   1  26
TORSDOF 5
