REMARK  Name = CHEMBL529889
REMARK  6 active torsions:
REMARK  status: ('A' for Active; 'I' for Inactive)
REMARK    1  A    between atoms: C_4  and  S_30
REMARK    2  A    between atoms: C_5  and  C_7
REMARK    3  A    between atoms: C_7  and  N_8
REMARK    4  A    between atoms: C_10  and  C_26
REMARK    5  A    between atoms: N_15  and  C_16
REMARK    6  A    between atoms: S_30  and  N_33
REMARK                            x       y       z     vdW  Elec       q    Type
REMARK                         _______ _______ _______ _____ _____    ______ ____
ROOT
ATOM      1  N   UNL     1       1.344  -2.548   1.467  0.00  0.00    -0.324 N 
ATOM      2  C   UNL     1       1.224  -3.901   1.740  0.00  0.00    +0.136 A 
ATOM      3  C   UNL     1       1.106  -4.350   3.057  0.00  0.00    +0.113 A 
ATOM      4  C   UNL     1       0.989  -5.707   3.282  0.00  0.00    +0.130 A 
ATOM      5  N   UNL     1       0.992  -6.538   2.249  0.00  0.00    -0.222 NA
ATOM      6  C   UNL     1       1.105  -6.084   1.010  0.00  0.00    +0.221 A 
ATOM      7  N   UNL     1       1.214  -4.789   0.752  0.00  0.00    -0.199 NA
ATOM      8  N   UNL     1       1.105  -6.985  -0.042  0.00  0.00    -0.284 N 
ATOM      9  H   UNL     1       1.272  -1.900   2.185  0.00  0.00    +0.148 HD
ATOM     10  H   UNL     1       1.104  -6.662  -0.957  0.00  0.00    +0.155 HD
ENDROOT
BRANCH   8  11
ATOM     11  C   UNL     1       1.105  -8.361   0.215  0.00  0.00    +0.034 A 
ATOM     12  C   UNL     1       0.387  -9.224  -0.603  0.00  0.00    +0.025 A 
ATOM     13  C   UNL     1       0.385 -10.580  -0.353  0.00  0.00    +0.025 A 
ATOM     14  C   UNL     1       1.104 -11.095   0.724  0.00  0.00    +0.037 A 
ATOM     15  C   UNL     1       1.819 -10.225   1.537  0.00  0.00    -0.016 A 
ATOM     16  C   UNL     1       1.828  -8.871   1.287  0.00  0.00    +0.029 A 
ATOM     17  C   UNL     1       2.479 -11.077   2.596  0.00  0.00    +0.133 C 
ATOM     18  C   UNL     1       2.040 -12.487   2.262  0.00  0.00    +0.222 C 
ATOM     19  O   UNL     1       2.342 -13.497   2.862  0.00  0.00    -0.275 OA
ATOM     20  N   UNL     1       1.254 -12.409   1.175  0.00  0.00    -0.285 N 
ATOM     21  H   UNL     1       0.839 -13.177   0.752  0.00  0.00    +0.155 HD
ENDBRANCH   8  11
BRANCH   3  22
ATOM     22  C   UNL     1       1.107  -3.376   4.207  0.00  0.00    +0.422 C 
ATOM     23  F   UNL     1       1.056  -4.080   5.415  0.00  0.00    -0.166 F 
ATOM     24  F   UNL     1       2.274  -2.606   4.165  0.00  0.00    -0.166 F 
ATOM     25  F   UNL     1      -0.009  -2.537   4.108  0.00  0.00    -0.166 F 
ENDBRANCH   3  22
BRANCH   1  26
ATOM     26  C   UNL     1       1.579  -2.095   0.093  0.00  0.00    +0.140 C 
BRANCH  26  31
ATOM     27  C   UNL     1       2.323   1.416   1.265  0.00  0.00    +0.000 A 
ATOM     28  C   UNL     1       2.250   2.123   0.079  0.00  0.00    +0.002 A 
ATOM     29  C   UNL     1       1.960   1.466  -1.101  0.00  0.00    +0.029 A 
ATOM     30  C   UNL     1       1.743   0.100  -1.097  0.00  0.00    +0.110 A 
ATOM     31  C   UNL     1       1.817  -0.607   0.088  0.00  0.00    -0.004 A 
ATOM     32  C   UNL     1       2.105   0.051   1.270  0.00  0.00    +0.007 A 
BRANCH  30  33
ATOM     33  S   UNL     1       1.373  -0.738  -2.602  0.00  0.00    +0.061 S 
ATOM     34  O   UNL     1       0.246  -1.564  -2.340  0.00  0.00    -0.153 OA
ATOM     35  O   UNL     1       1.373   0.247  -3.626  0.00  0.00    -0.153 OA
BRANCH  33  36
ATOM     36  N   UNL     1       2.640  -1.754  -2.921  0.00  0.00    -0.177 NA
ATOM     37  C   UNL     1       3.914  -1.365  -3.545  0.00  0.00    +0.109 C 
ATOM     38  C   UNL     1       4.774  -2.641  -3.665  0.00  0.00    +0.018 C 
ATOM     39  C   UNL     1       3.718  -3.777  -3.621  0.00  0.00    +0.018 C 
ATOM     40  C   UNL     1       2.682  -3.197  -2.623  0.00  0.00    +0.109 C 
ENDBRANCH  33  36
ENDBRANCH  30  33
ENDBRANCH  26  31
ENDBRANCH   1  26
TORSDOF 6
