REMARK  Name = CHEMBL207721
REMARK  12 active torsions:
REMARK  status: ('A' for Active; 'I' for Inactive)
REMARK    1  A    between atoms: C_1  and  C_2
REMARK    2  A    between atoms: C_2  and  N_3
REMARK    3  A    between atoms: C_4  and  C_6
REMARK    4  A    between atoms: C_6  and  C_7
REMARK    5  A    between atoms: C_11  and  N_13
REMARK    6  A    between atoms: N_22  and  C_23
REMARK    7  A    between atoms: C_25  and  O_33
REMARK    8  A    between atoms: C_26  and  O_31
REMARK    9  A    between atoms: C_27  and  O_29
REMARK   10  A    between atoms: O_29  and  C_30
REMARK   11  A    between atoms: O_31  and  C_32
REMARK   12  A    between atoms: O_33  and  C_34
REMARK                            x       y       z     vdW  Elec       q    Type
REMARK                         _______ _______ _______ _____ _____    ______ ____
ROOT
ATOM      1  N   UNL     1      -0.530  -6.306  -4.259  0.00  0.00    -0.301 N 
ATOM      2  C   UNL     1      -1.865  -6.130  -3.983  0.00  0.00    +0.094 A 
ATOM      3  C   UNL     1      -2.580  -7.121  -4.536  0.00  0.00    +0.031 A 
ATOM      4  C   UNL     1      -1.631  -8.001  -5.219  0.00  0.00    +0.037 A 
ATOM      5  C   UNL     1      -0.354  -7.434  -5.015  0.00  0.00    +0.150 A 
ATOM      6  N   UNL     1       0.703  -8.042  -5.544  0.00  0.00    -0.196 NA
ATOM      7  C   UNL     1       0.556  -9.152  -6.248  0.00  0.00    +0.221 A 
ATOM      8  N   UNL     1      -0.630  -9.708  -6.460  0.00  0.00    -0.222 NA
ATOM      9  C   UNL     1      -1.734  -9.175  -5.964  0.00  0.00    +0.126 A 
ATOM     10  N   UNL     1       1.682  -9.757  -6.783  0.00  0.00    -0.283 N 
ATOM     11  H   UNL     1       2.564  -9.413  -6.572  0.00  0.00    +0.155 HD
ENDROOT
BRANCH   1  16
ATOM     12  C   UNL     1       1.408  -3.247  -3.615  0.00  0.00    -0.037 A 
ATOM     13  C   UNL     1       2.528  -3.772  -2.997  0.00  0.00    +0.004 A 
ATOM     14  C   UNL     1       2.635  -5.135  -2.796  0.00  0.00    +0.002 A 
ATOM     15  C   UNL     1       1.623  -5.978  -3.213  0.00  0.00    +0.026 A 
ATOM     16  C   UNL     1       0.498  -5.454  -3.834  0.00  0.00    +0.048 A 
ATOM     17  C   UNL     1       0.391  -4.083  -4.029  0.00  0.00    +0.030 A 
BRANCH  12  18
ATOM     18  C   UNL     1       1.296  -1.760  -3.832  0.00  0.00    +0.131 C 
BRANCH  18  20
ATOM     19  N   UNL     1       0.422   0.204  -2.608  0.00  0.00    -0.315 N 
ATOM     20  C   UNL     1       0.630  -1.127  -2.637  0.00  0.00    +0.217 C 
ATOM     21  O   UNL     1       0.281  -1.816  -1.702  0.00  0.00    -0.275 OA
ATOM     22  H   UNL     1       0.701   0.755  -3.356  0.00  0.00    +0.149 HD
BRANCH  19  24
ATOM     23  C   UNL     1      -0.340   2.329  -1.667  0.00  0.00    +0.024 C 
ATOM     24  C   UNL     1      -0.225   0.820  -1.447  0.00  0.00    +0.101 C 
ENDBRANCH  19  24
ENDBRANCH  18  20
ENDBRANCH  12  18
ENDBRANCH   1  16
BRANCH  10  25
ATOM     25  C   UNL     1       1.547 -10.865  -7.629  0.00  0.00    +0.041 A 
ATOM     26  C   UNL     1       0.454 -10.959  -8.479  0.00  0.00    +0.073 A 
ATOM     27  C   UNL     1       0.319 -12.055  -9.316  0.00  0.00    +0.167 A 
ATOM     28  C   UNL     1       1.279 -13.060  -9.305  0.00  0.00    +0.204 A 
ATOM     29  C   UNL     1       2.373 -12.965  -8.453  0.00  0.00    +0.167 A 
ATOM     30  C   UNL     1       2.509 -11.866  -7.620  0.00  0.00    +0.073 A 
BRANCH  29  31
ATOM     31  O   UNL     1       3.312 -13.948  -8.441  0.00  0.00    -0.491 OA
ATOM     32  C   UNL     1       4.410 -13.785  -7.541  0.00  0.00    +0.277 C 
ENDBRANCH  29  31
BRANCH  28  33
ATOM     33  O   UNL     1       1.147 -14.138 -10.127  0.00  0.00    -0.488 OA
ATOM     34  C   UNL     1       1.736 -14.039 -11.425  0.00  0.00    +0.277 C 
ENDBRANCH  28  33
BRANCH  27  35
ATOM     35  O   UNL     1      -0.752 -12.147 -10.149  0.00  0.00    -0.491 OA
ATOM     36  C   UNL     1      -1.700 -11.078 -10.108  0.00  0.00    +0.277 C 
ENDBRANCH  27  35
ENDBRANCH  10  25
TORSDOF 8
