REMARK  Name = CHEMBL513744
REMARK  8 active torsions:
REMARK  status: ('A' for Active; 'I' for Inactive)
REMARK    1  A    between atoms: C_1  and  N_2
REMARK    2  A    between atoms: N_2  and  C_3
REMARK    3  A    between atoms: N_2  and  S_32
REMARK    4  A    between atoms: C_7  and  C_9
REMARK    5  A    between atoms: C_9  and  N_10
REMARK    6  A    between atoms: C_12  and  C_28
REMARK    7  A    between atoms: N_17  and  C_18
REMARK    8  A    between atoms: S_32  and  C_35
REMARK                            x       y       z     vdW  Elec       q    Type
REMARK                         _______ _______ _______ _____ _____    ______ ____
ROOT
ATOM      1  N   UNL     1      -0.012   0.812   5.357  0.00  0.00    -0.324 N 
ATOM      2  C   UNL     1      -0.304   1.482   6.534  0.00  0.00    +0.136 A 
ATOM      3  C   UNL     1       0.633   2.341   7.112  0.00  0.00    +0.113 A 
ATOM      4  C   UNL     1       0.298   2.988   8.285  0.00  0.00    +0.130 A 
ATOM      5  N   UNL     1      -0.894   2.776   8.825  0.00  0.00    -0.222 NA
ATOM      6  C   UNL     1      -1.763   1.955   8.255  0.00  0.00    +0.221 A 
ATOM      7  N   UNL     1      -1.483   1.320   7.127  0.00  0.00    -0.199 NA
ATOM      8  N   UNL     1      -2.998   1.760   8.851  0.00  0.00    -0.284 N 
ATOM      9  H   UNL     1       0.851   0.935   4.931  0.00  0.00    +0.148 HD
ATOM     10  H   UNL     1      -3.674   1.226   8.404  0.00  0.00    +0.155 HD
ENDROOT
BRANCH   8  11
ATOM     11  C   UNL     1      -3.272   2.334  10.098  0.00  0.00    +0.034 A 
ATOM     12  C   UNL     1      -4.559   2.759  10.403  0.00  0.00    +0.025 A 
ATOM     13  C   UNL     1      -4.832   3.325  11.630  0.00  0.00    +0.025 A 
ATOM     14  C   UNL     1      -3.819   3.475  12.575  0.00  0.00    +0.037 A 
ATOM     15  C   UNL     1      -2.535   3.047  12.261  0.00  0.00    -0.016 A 
ATOM     16  C   UNL     1      -2.260   2.477  11.039  0.00  0.00    +0.029 A 
ATOM     17  C   UNL     1      -1.680   3.343  13.471  0.00  0.00    +0.133 C 
ATOM     18  C   UNL     1      -2.641   3.971  14.457  0.00  0.00    +0.222 C 
ATOM     19  O   UNL     1      -2.373   4.365  15.573  0.00  0.00    -0.275 OA
ATOM     20  N   UNL     1      -3.846   4.010  13.865  0.00  0.00    -0.285 N 
ATOM     21  H   UNL     1      -4.644   4.368  14.285  0.00  0.00    +0.155 HD
ENDBRANCH   8  11
BRANCH   3  22
ATOM     22  C   UNL     1       1.979   2.558   6.470  0.00  0.00    +0.422 C 
ATOM     23  F   UNL     1       2.724   3.456   7.241  0.00  0.00    -0.166 F 
ATOM     24  F   UNL     1       2.659   1.337   6.389  0.00  0.00    -0.166 F 
ATOM     25  F   UNL     1       1.804   3.080   5.184  0.00  0.00    -0.166 F 
ENDBRANCH   3  22
BRANCH   1  26
ATOM     26  C   UNL     1      -1.005  -0.083   4.757  0.00  0.00    +0.138 C 
BRANCH  26  31
ATOM     27  C   UNL     1      -0.111  -0.595   1.120  0.00  0.00    +0.051 A 
ATOM     28  C   UNL     1       0.592  -1.792   1.177  0.00  0.00    +0.025 A 
ATOM     29  C   UNL     1       0.775  -2.426   2.390  0.00  0.00    +0.002 A 
ATOM     30  C   UNL     1       0.258  -1.873   3.547  0.00  0.00    +0.005 A 
ATOM     31  C   UNL     1      -0.443  -0.682   3.494  0.00  0.00    -0.029 A 
ATOM     32  C   UNL     1      -0.624  -0.038   2.285  0.00  0.00    +0.030 A 
BRANCH  27  34
ATOM     33  C   UNL     1      -0.516   1.498  -0.144  0.00  0.00    +0.157 C 
ATOM     34  N   UNL     1      -0.297   0.050  -0.104  0.00  0.00    -0.211 N 
BRANCH  34  35
ATOM     35  S   UNL     1      -0.270  -0.821  -1.512  0.00  0.00    +0.042 S 
ATOM     36  O   UNL     1      -0.657  -2.135  -1.133  0.00  0.00    -0.155 OA
ATOM     37  O   UNL     1      -1.060  -0.067  -2.421  0.00  0.00    -0.155 OA
ATOM     38  C   UNL     1       1.467  -0.809  -2.035  0.00  0.00    +0.218 C 
ENDBRANCH  34  35
ENDBRANCH  27  34
ENDBRANCH  26  31
ENDBRANCH   1  26
TORSDOF 6
