REMARK  Name = CHEMBL488446
REMARK  4 active torsions:
REMARK  status: ('A' for Active; 'I' for Inactive)
REMARK    1  A    between atoms: C_6  and  N_7
REMARK    2  A    between atoms: C_11  and  C_24
REMARK    3  A    between atoms: C_12  and  N_14
REMARK    4  A    between atoms: N_14  and  C_15
REMARK                            x       y       z     vdW  Elec       q    Type
REMARK                         _______ _______ _______ _____ _____    ______ ____
ROOT
ATOM      1  N   UNL     1      -1.207  -0.728   1.020  0.00  0.00    -0.284 N 
ATOM      2  C   UNL     1      -2.412  -0.059   0.885  0.00  0.00    +0.221 A 
ATOM      3  N   UNL     1      -2.420   1.266   0.894  0.00  0.00    -0.222 NA
ATOM      4  C   UNL     1      -3.552   1.942   0.767  0.00  0.00    +0.130 A 
ATOM      5  C   UNL     1      -4.739   1.250   0.624  0.00  0.00    +0.113 A 
ATOM      6  C   UNL     1      -4.700  -0.146   0.618  0.00  0.00    +0.136 A 
ATOM      7  N   UNL     1      -3.527  -0.759   0.744  0.00  0.00    -0.199 NA
ATOM      8  H   UNL     1      -1.179  -1.695   0.951  0.00  0.00    +0.155 HD
ENDROOT
BRANCH   1  14
ATOM      9  C   UNL     1      -0.063   1.158   2.009  0.00  0.00    +0.025 A 
ATOM     10  C   UNL     1       1.095   1.869   2.244  0.00  0.00    +0.025 A 
ATOM     11  C   UNL     1       2.309   1.422   1.727  0.00  0.00    +0.037 A 
ATOM     12  C   UNL     1       2.334   0.254   0.975  0.00  0.00    -0.016 A 
ATOM     13  C   UNL     1       1.180  -0.458   0.738  0.00  0.00    +0.029 A 
ATOM     14  C   UNL     1      -0.029  -0.008   1.256  0.00  0.00    +0.034 A 
ATOM     15  C   UNL     1       3.773   0.041   0.567  0.00  0.00    +0.133 C 
ATOM     16  C   UNL     1       4.508   1.214   1.179  0.00  0.00    +0.222 C 
ATOM     17  O   UNL     1       5.697   1.440   1.099  0.00  0.00    -0.275 OA
ATOM     18  N   UNL     1       3.596   1.958   1.827  0.00  0.00    -0.285 N 
ATOM     19  H   UNL     1       3.806   2.773   2.309  0.00  0.00    +0.155 HD
ENDBRANCH   1  14
BRANCH   5  20
ATOM     20  C   UNL     1      -6.047   1.984   0.478  0.00  0.00    +0.422 C 
ATOM     21  F   UNL     1      -5.814   3.363   0.516  0.00  0.00    -0.166 F 
ATOM     22  F   UNL     1      -6.639   1.645  -0.744  0.00  0.00    -0.166 F 
ATOM     23  F   UNL     1      -6.902   1.627   1.526  0.00  0.00    -0.166 F 
ENDBRANCH   5  20
BRANCH   6  24
ATOM     24  N   UNL     1      -5.865  -0.882   0.477  0.00  0.00    -0.317 N 
ATOM     25  H   UNL     1      -6.717  -0.427   0.382  0.00  0.00    +0.148 HD
BRANCH  24  26
ATOM     26  C   UNL     1      -5.812  -2.346   0.472  0.00  0.00    +0.158 C 
ATOM     27  C   UNL     1      -7.114  -2.906  -0.104  0.00  0.00    +0.032 C 
ATOM     28  C   UNL     1      -8.294  -2.033   0.284  0.00  0.00    +0.004 C 
ATOM     29  C   UNL     1      -8.601  -2.043   1.770  0.00  0.00    +0.019 C 
ATOM     30  C   UNL     1      -7.474  -1.379   2.565  0.00  0.00    +0.104 C 
ATOM     31  N   UNL     1      -6.447  -2.391   2.860  0.00  0.00    -0.314 N 
ATOM     32  C   UNL     1      -5.651  -2.853   1.890  0.00  0.00    +0.233 C 
ATOM     33  O   UNL     1      -4.803  -3.684   2.142  0.00  0.00    -0.274 OA
ATOM     34  H   UNL     1      -6.344  -2.724   3.765  0.00  0.00    +0.149 HD
ENDBRANCH  24  26
ENDBRANCH   6  24
TORSDOF 4
