REMARK  Name = CHEMBL207147
REMARK  8 active torsions:
REMARK  status: ('A' for Active; 'I' for Inactive)
REMARK    1  A    between atoms: C_1  and  O_2
REMARK    2  A    between atoms: O_2  and  C_3
REMARK    3  A    between atoms: C_5  and  N_13
REMARK    4  A    between atoms: C_7  and  O_11
REMARK    5  A    between atoms: C_8  and  O_9
REMARK    6  A    between atoms: O_9  and  C_10
REMARK    7  A    between atoms: O_11  and  C_12
REMARK    8  A    between atoms: N_20  and  C_23
REMARK                            x       y       z     vdW  Elec       q    Type
REMARK                         _______ _______ _______ _____ _____    ______ ____
ROOT
ATOM      1  N   UNL     1      -4.786   0.201   0.038  0.00  0.00    -0.283 N 
ATOM      2  C   UNL     1      -6.011  -0.440  -0.058  0.00  0.00    +0.221 A 
ATOM      3  N   UNL     1      -6.040  -1.768  -0.053  0.00  0.00    -0.222 NA
ATOM      4  C   UNL     1      -7.183  -2.426  -0.142  0.00  0.00    +0.126 A 
ATOM      5  C   UNL     1      -8.367  -1.697  -0.244  0.00  0.00    +0.037 A 
ATOM      6  C   UNL     1      -9.786  -2.038  -0.358  0.00  0.00    +0.031 A 
ATOM      7  C   UNL     1     -10.462  -0.880  -0.420  0.00  0.00    +0.094 A 
ATOM      8  N   UNL     1      -9.585   0.176  -0.354  0.00  0.00    -0.301 N 
ATOM      9  C   UNL     1      -8.300  -0.288  -0.246  0.00  0.00    +0.150 A 
ATOM     10  N   UNL     1      -7.109   0.292  -0.147  0.00  0.00    -0.196 NA
ATOM     11  H   UNL     1      -4.750   1.167   0.121  0.00  0.00    +0.155 HD
ENDROOT
BRANCH   8  12
ATOM     12  C   UNL     1      -9.950   1.525  -0.392  0.00  0.00    +0.052 A 
ATOM     13  C   UNL     1      -9.467   2.423   0.558  0.00  0.00    +0.046 A 
ATOM     14  C   UNL     1      -9.850   3.746   0.487  0.00  0.00    +0.114 A 
ATOM     15  N   UNL     1     -10.663   4.165  -0.464  0.00  0.00    -0.243 NA
ATOM     16  C   UNL     1     -11.143   3.346  -1.382  0.00  0.00    +0.131 A 
ATOM     17  C   UNL     1     -10.802   2.007  -1.383  0.00  0.00    +0.066 A 
ATOM     18 CL   UNL     1     -12.209   3.960  -2.606  0.00  0.00    -0.062 Cl
ENDBRANCH   8  12
BRANCH   1  21
ATOM     19  C   UNL     1      -2.350  -2.438  -0.773  0.00  0.00    +0.167 A 
ATOM     20  C   UNL     1      -3.523  -1.700  -0.750  0.00  0.00    +0.073 A 
ATOM     21  C   UNL     1      -3.602  -0.545   0.017  0.00  0.00    +0.041 A 
ATOM     22  C   UNL     1      -2.506  -0.130   0.761  0.00  0.00    +0.073 A 
ATOM     23  C   UNL     1      -1.333  -0.867   0.740  0.00  0.00    +0.167 A 
ATOM     24  C   UNL     1      -1.255  -2.026  -0.023  0.00  0.00    +0.204 A 
BRANCH  19  26
ATOM     25  C   UNL     1      -3.437  -3.934  -2.269  0.00  0.00    +0.277 C 
ATOM     26  O   UNL     1      -2.274  -3.570  -1.524  0.00  0.00    -0.491 OA
ENDBRANCH  19  26
BRANCH  24  27
ATOM     27  O   UNL     1      -0.105  -2.754  -0.041  0.00  0.00    -0.488 OA
ATOM     28  C   UNL     1       0.862  -2.416  -1.038  0.00  0.00    +0.277 C 
ENDBRANCH  24  27
BRANCH  23  29
ATOM     29  O   UNL     1      -0.260  -0.459   1.469  0.00  0.00    -0.491 OA
ATOM     30  C   UNL     1      -0.412   0.738   2.234  0.00  0.00    +0.277 C 
ENDBRANCH  23  29
ENDBRANCH   1  21
TORSDOF 5
