REMARK  Name = CHEMBL482968
REMARK  5 active torsions:
REMARK  status: ('A' for Active; 'I' for Inactive)
REMARK    1  A    between atoms: C_1  and  C_2
REMARK    2  A    between atoms: C_11  and  N_23
REMARK    3  A    between atoms: C_13  and  C_15
REMARK    4  A    between atoms: C_16  and  C_17
REMARK    5  A    between atoms: N_26  and  C_29
REMARK                            x       y       z     vdW  Elec       q    Type
REMARK                         _______ _______ _______ _____ _____    ______ ____
ROOT
ATOM      1  C   UNL     1       0.534  -8.134  -0.901  0.00  0.00    +0.065 C 
ATOM      2  C   UNL     1       0.282  -6.670  -0.651  0.00  0.00    +0.035 A 
ATOM      3  C   UNL     1       0.310  -5.687  -1.581  0.00  0.00    +0.068 A 
ATOM      4  C   UNL     1       0.021  -4.474  -0.934  0.00  0.00    +0.146 A 
ATOM      5  N   UNL     1      -0.172  -4.728   0.339  0.00  0.00    -0.158 NA
ATOM      6  N   UNL     1      -0.018  -6.106   0.538  0.00  0.00    -0.280 N 
ATOM      7  H   UNL     1      -0.109  -6.574   1.383  0.00  0.00    +0.189 HD
ATOM      8  N   UNL     1      -0.047  -3.214  -1.541  0.00  0.00    -0.283 N 
ATOM      9  C   UNL     1       0.054  -3.102  -2.920  0.00  0.00    +0.130 A 
ATOM     10  C   UNL     1       0.068  -1.849  -3.527  0.00  0.00    +0.087 A 
ATOM     11  C   UNL     1       0.171  -1.783  -4.915  0.00  0.00    +0.127 A 
ATOM     12  N   UNL     1       0.253  -2.912  -5.612  0.00  0.00    -0.213 NA
ATOM     13  C   UNL     1       0.236  -4.092  -5.001  0.00  0.00    +0.157 A 
ATOM     14  N   UNL     1       0.145  -4.191  -3.679  0.00  0.00    -0.213 NA
ATOM     15  H   UNL     1      -0.166  -2.420  -0.998  0.00  0.00    +0.155 HD
ENDROOT
BRANCH  11  16
ATOM     16  N   UNL     1       0.188  -0.556  -5.560  0.00  0.00    -0.319 N 
ATOM     17  C   UNL     1       0.024  -0.467  -7.019  0.00  0.00    +0.088 C 
ATOM     18  C   UNL     1      -1.065   0.568  -7.323  0.00  0.00    -0.060 C 
ATOM     19  N   UNL     1      -0.725   1.839  -6.673  0.00  0.00    +0.380 N 
ATOM     20  C   UNL     1      -0.735   1.673  -5.214  0.00  0.00    -0.060 C 
ATOM     21  C   UNL     1       0.365   0.694  -4.805  0.00  0.00    +0.088 C 
ATOM     22  C   UNL     1      -1.710   2.861  -7.054  0.00  0.00    -0.096 C 
ATOM     23  H   UNL     1       0.193   2.134  -6.971  0.00  0.00    -0.082 HD
ENDBRANCH  11  16
BRANCH  13  24
ATOM     24  C   UNL     1       0.328  -5.320  -5.808  0.00  0.00    +0.049 C 
ATOM     25  C   UNL     1       0.339  -6.520  -5.206  0.00  0.00    +0.011 C 
BRANCH  25  26
ATOM     26  C   UNL     1       0.498  -7.746  -6.008  0.00  0.00    -0.025 A 
ATOM     27  C   UNL     1       0.645  -7.663  -7.395  0.00  0.00    +0.008 A 
ATOM     28  C   UNL     1       0.794  -8.815  -8.139  0.00  0.00    +0.001 A 
ATOM     29  C   UNL     1       0.799 -10.050  -7.516  0.00  0.00    +0.000 A 
ATOM     30  C   UNL     1       0.654 -10.140  -6.142  0.00  0.00    +0.001 A 
ATOM     31  C   UNL     1       0.510  -8.997  -5.384  0.00  0.00    +0.008 A 
ENDBRANCH  25  26
ENDBRANCH  13  24
TORSDOF 3
