REMARK  Name = CHEMBL455680
REMARK  8 active torsions:
REMARK  status: ('A' for Active; 'I' for Inactive)
REMARK    1  A    between atoms: C_1  and  C_2
REMARK    2  A    between atoms: C_13  and  N_15
REMARK    3  A    between atoms: C_19  and  C_33
REMARK    4  A    between atoms: C_20  and  N_22
REMARK    5  A    between atoms: N_22  and  C_23
REMARK    6  A    between atoms: C_28  and  N_30
REMARK    7  A    between atoms: N_30  and  C_31
REMARK    8  A    between atoms: N_30  and  C_32
REMARK                            x       y       z     vdW  Elec       q    Type
REMARK                         _______ _______ _______ _____ _____    ______ ____
ROOT
ATOM      1  N   UNL     1      -3.981  -3.972  -3.998  0.00  0.00    -0.284 N 
ATOM      2  C   UNL     1      -5.035  -3.792  -4.878  0.00  0.00    +0.221 A 
ATOM      3  N   UNL     1      -5.700  -2.646  -4.864  0.00  0.00    -0.222 NA
ATOM      4  C   UNL     1      -6.715  -2.436  -5.689  0.00  0.00    +0.130 A 
ATOM      5  C   UNL     1      -7.081  -3.430  -6.576  0.00  0.00    +0.113 A 
ATOM      6  C   UNL     1      -6.362  -4.628  -6.568  0.00  0.00    +0.136 A 
ATOM      7  N   UNL     1      -5.351  -4.768  -5.716  0.00  0.00    -0.199 NA
ATOM      8  H   UNL     1      -3.433  -4.771  -4.055  0.00  0.00    +0.155 HD
ENDROOT
BRANCH   1  21
ATOM      9  C   UNL     1      -3.852  -0.332   2.964  0.00  0.00    +0.109 C 
ATOM     10  C   UNL     1      -4.886  -0.468   1.876  0.00  0.00    +0.213 C 
ATOM     11  O   UNL     1      -6.036  -0.726   2.162  0.00  0.00    -0.276 OA
ATOM     12  N   UNL     1      -4.532  -0.302   0.586  0.00  0.00    -0.288 N 
ATOM     13  C   UNL     1      -3.208   0.011  -0.061  0.00  0.00    +0.107 C 
ATOM     14  C   UNL     1      -3.573   1.307  -0.850  0.00  0.00    +0.029 C 
ATOM     15  C   UNL     1      -5.038   1.044  -1.285  0.00  0.00    +0.029 C 
ATOM     16  C   UNL     1      -5.328  -0.375  -0.691  0.00  0.00    +0.107 C 
ATOM     17  C   UNL     1      -4.457  -1.329  -1.506  0.00  0.00    -0.020 A 
ATOM     18  C   UNL     1      -3.149  -1.091  -1.117  0.00  0.00    -0.022 A 
ATOM     19  C   UNL     1      -2.119  -1.806  -1.679  0.00  0.00    +0.007 A 
ATOM     20  C   UNL     1      -2.394  -2.765  -2.638  0.00  0.00    +0.023 A 
ATOM     21  C   UNL     1      -3.705  -3.002  -3.030  0.00  0.00    +0.034 A 
ATOM     22  C   UNL     1      -4.732  -2.280  -2.455  0.00  0.00    +0.029 A 
ENDBRANCH   1  21
BRANCH   5  23
ATOM     23  C   UNL     1      -8.230  -3.228  -7.530  0.00  0.00    +0.422 C 
ATOM     24  F   UNL     1      -8.777  -1.955  -7.336  0.00  0.00    -0.166 F 
ATOM     25  F   UNL     1      -7.769  -3.342  -8.846  0.00  0.00    -0.166 F 
ATOM     26  F   UNL     1      -9.210  -4.197  -7.292  0.00  0.00    -0.166 F 
ENDBRANCH   5  23
BRANCH   6  27
ATOM     27  N   UNL     1      -6.694  -5.652  -7.440  0.00  0.00    -0.327 N 
ATOM     28  H   UNL     1      -7.430  -5.541  -8.061  0.00  0.00    +0.148 HD
BRANCH  27  29
ATOM     29  C   UNL     1      -5.932  -6.904  -7.422  0.00  0.00    +0.058 C 
ATOM     30  C   UNL     1      -4.718  -6.821  -8.381  0.00  0.00    +0.020 C 
ATOM     31  C   UNL     1      -4.408  -8.292  -8.725  0.00  0.00    +0.000 C 
ATOM     32  C   UNL     1      -5.710  -9.081  -8.500  0.00  0.00    -0.013 C 
ATOM     33  C   UNL     1      -6.768  -8.063  -8.021  0.00  0.00    -0.049 C 
BRANCH  33  34
ATOM     34  N   UNL     1      -7.632  -8.658  -6.993  0.00  0.00    +0.379 N 
ATOM     35  C   UNL     1      -8.544  -7.633  -6.467  0.00  0.00    -0.096 C 
ATOM     36  C   UNL     1      -8.413  -9.753  -7.584  0.00  0.00    -0.096 C 
ATOM     37  H   UNL     1      -7.062  -9.018  -6.242  0.00  0.00    -0.082 HD
ENDBRANCH  33  34
ENDBRANCH  27  29
ENDBRANCH   6  27
TORSDOF 5
