REMARK  Name = CHEMBL204933
REMARK  13 active torsions:
REMARK  status: ('A' for Active; 'I' for Inactive)
REMARK    1  A    between atoms: C_1  and  C_2
REMARK    2  A    between atoms: C_2  and  O_3
REMARK    3  A    between atoms: O_3  and  C_4
REMARK    4  A    between atoms: C_4  and  C_6
REMARK    5  A    between atoms: C_6  and  C_7
REMARK    6  A    between atoms: C_12  and  N_13
REMARK    7  A    between atoms: N_20  and  C_21
REMARK    8  A    between atoms: C_23  and  O_31
REMARK    9  A    between atoms: C_24  and  O_29
REMARK   10  A    between atoms: C_25  and  O_27
REMARK   11  A    between atoms: O_27  and  C_28
REMARK   12  A    between atoms: O_29  and  C_30
REMARK   13  A    between atoms: O_31  and  C_32
REMARK                            x       y       z     vdW  Elec       q    Type
REMARK                         _______ _______ _______ _____ _____    ______ ____
ROOT
ATOM      1  C   UNL     1      -3.240  -4.292   0.207  0.00  0.00    +0.022 A 
ATOM      2  C   UNL     1      -3.381  -5.233  -0.795  0.00  0.00    +0.122 A 
ATOM      3  N   UNL     1      -2.994  -6.480  -0.573  0.00  0.00    -0.222 NA
ATOM      4  C   UNL     1      -2.474  -6.834   0.593  0.00  0.00    +0.221 A 
ATOM      5  N   UNL     1      -2.321  -5.963   1.579  0.00  0.00    -0.199 NA
ATOM      6  C   UNL     1      -2.684  -4.694   1.423  0.00  0.00    +0.133 A 
ATOM      7  N   UNL     1      -2.081  -8.148   0.786  0.00  0.00    -0.283 N 
ATOM      8  H   UNL     1      -1.776  -8.440   1.659  0.00  0.00    +0.155 HD
ENDROOT
BRANCH   6   9
ATOM      9  N   UNL     1      -2.517  -3.783   2.456  0.00  0.00    -0.284 N 
ATOM     10  C   UNL     1      -1.890  -4.174   3.635  0.00  0.00    +0.124 A 
ATOM     11  C   UNL     1      -1.823  -3.289   4.706  0.00  0.00    +0.044 A 
ATOM     12  C   UNL     1      -1.197  -3.692   5.872  0.00  0.00    +0.005 A 
ATOM     13  C   UNL     1      -0.658  -4.970   5.928  0.00  0.00    +0.020 A 
ATOM     14  C   UNL     1      -0.761  -5.796   4.827  0.00  0.00    +0.113 A 
ATOM     15  N   UNL     1      -1.369  -5.387   3.729  0.00  0.00    -0.240 NA
ATOM     16  H   UNL     1      -2.838  -2.873   2.356  0.00  0.00    +0.155 HD
ENDBRANCH   6   9
BRANCH   7  17
ATOM     17  C   UNL     1      -2.123  -9.055  -0.280  0.00  0.00    +0.041 A 
ATOM     18  C   UNL     1      -1.841  -8.624  -1.569  0.00  0.00    +0.073 A 
ATOM     19  C   UNL     1      -1.883  -9.522  -2.625  0.00  0.00    +0.167 A 
ATOM     20  C   UNL     1      -2.207 -10.853  -2.393  0.00  0.00    +0.204 A 
ATOM     21  C   UNL     1      -2.490 -11.283  -1.102  0.00  0.00    +0.167 A 
ATOM     22  C   UNL     1      -2.442 -10.386  -0.046  0.00  0.00    +0.073 A 
BRANCH  21  23
ATOM     23  O   UNL     1      -2.807 -12.586  -0.873  0.00  0.00    -0.491 OA
ATOM     24  C   UNL     1      -3.086 -12.958   0.478  0.00  0.00    +0.277 C 
ENDBRANCH  21  23
BRANCH  20  25
ATOM     25  O   UNL     1      -2.249 -11.735  -3.429  0.00  0.00    -0.488 OA
ATOM     26  C   UNL     1      -1.038 -12.424  -3.744  0.00  0.00    +0.277 C 
ENDBRANCH  20  25
BRANCH  19  27
ATOM     27  O   UNL     1      -1.607  -9.099  -3.888  0.00  0.00    -0.491 OA
ATOM     28  C   UNL     1      -1.281  -7.718  -4.053  0.00  0.00    +0.277 C 
ENDBRANCH  19  27
ENDBRANCH   7  17
BRANCH   1  29
ATOM     29  C   UNL     1      -3.669  -2.864  -0.010  0.00  0.00    +0.160 C 
BRANCH  29  30
ATOM     30  C   UNL     1      -2.485  -2.045  -0.454  0.00  0.00    +0.312 C 
ATOM     31  O   UNL     1      -1.403  -2.567  -0.581  0.00  0.00    -0.250 OA
BRANCH  30  32
ATOM     32  O   UNL     1      -2.632  -0.735  -0.708  0.00  0.00    -0.465 OA
BRANCH  32  34
ATOM     33  C   UNL     1      -1.827   1.447  -1.365  0.00  0.00    +0.048 C 
ATOM     34  C   UNL     1      -1.466  -0.021  -1.124  0.00  0.00    +0.229 C 
ENDBRANCH  32  34
ENDBRANCH  30  32
ENDBRANCH  29  30
ENDBRANCH   1  29
TORSDOF 9
