REMARK  Name = CHEMBL518905
REMARK  6 active torsions:
REMARK  status: ('A' for Active; 'I' for Inactive)
REMARK    1  A    between atoms: C_1  and  N_2
REMARK    2  A    between atoms: N_2  and  C_3
REMARK    3  A    between atoms: N_2  and  C_4
REMARK    4  A    between atoms: C_9  and  N_11
REMARK    5  A    between atoms: C_13  and  C_31
REMARK    6  A    between atoms: N_18  and  C_19
REMARK                            x       y       z     vdW  Elec       q    Type
REMARK                         _______ _______ _______ _____ _____    ______ ____
ROOT
ATOM      1  N   UNL     1      -3.040   1.125  -0.657  0.00  0.00    -0.327 N 
ATOM      2  C   UNL     1      -3.687   1.905  -1.602  0.00  0.00    +0.136 A 
ATOM      3  C   UNL     1      -4.914   2.504  -1.305  0.00  0.00    +0.113 A 
ATOM      4  C   UNL     1      -5.523   3.273  -2.277  0.00  0.00    +0.130 A 
ATOM      5  N   UNL     1      -4.932   3.418  -3.454  0.00  0.00    -0.222 NA
ATOM      6  C   UNL     1      -3.769   2.838  -3.708  0.00  0.00    +0.221 A 
ATOM      7  N   UNL     1      -3.149   2.098  -2.801  0.00  0.00    -0.199 NA
ATOM      8  N   UNL     1      -3.183   3.014  -4.951  0.00  0.00    -0.284 N 
ATOM      9  H   UNL     1      -3.439   0.989   0.216  0.00  0.00    +0.148 HD
ATOM     10  H   UNL     1      -2.373   2.531  -5.179  0.00  0.00    +0.155 HD
ENDROOT
BRANCH   8  11
ATOM     11  C   UNL     1      -3.756   3.885  -5.874  0.00  0.00    +0.034 A 
ATOM     12  C   UNL     1      -4.401   5.037  -5.432  0.00  0.00    +0.024 A 
ATOM     13  C   UNL     1      -4.976   5.898  -6.340  0.00  0.00    +0.015 A 
ATOM     14  C   UNL     1      -4.905   5.613  -7.703  0.00  0.00    +0.040 A 
ATOM     15  C   UNL     1      -4.246   4.461  -8.147  0.00  0.00    -0.033 A 
ATOM     16  C   UNL     1      -3.677   3.603  -7.235  0.00  0.00    +0.027 A 
ATOM     17  C   UNL     1      -4.148   4.189  -9.624  0.00  0.00    +0.037 C 
ATOM     18  C   UNL     1      -5.490   3.701 -10.164  0.00  0.00    +0.023 C 
ATOM     19  C   UNL     1      -6.633   4.540  -9.607  0.00  0.00    +0.105 C 
ATOM     20  N   UNL     1      -6.314   5.965  -9.650  0.00  0.00    -0.311 N 
ATOM     21  C   UNL     1      -5.528   6.509  -8.699  0.00  0.00    +0.244 C 
ATOM     22  O   UNL     1      -5.337   7.710  -8.661  0.00  0.00    -0.270 OA
ATOM     23  H   UNL     1      -6.667   6.519 -10.364  0.00  0.00    +0.149 HD
ENDBRANCH   8  11
BRANCH   1  28
ATOM     24  C   UNL     1      -0.955   0.247   0.314  0.00  0.00    -0.049 C 
ATOM     25  C   UNL     1      -0.724  -1.276   0.392  0.00  0.00    -0.013 C 
ATOM     26  C   UNL     1      -1.862  -1.878  -0.469  0.00  0.00    +0.000 C 
ATOM     27  C   UNL     1      -1.974  -0.870  -1.640  0.00  0.00    +0.020 C 
ATOM     28  C   UNL     1      -1.751   0.507  -0.977  0.00  0.00    +0.058 C 
BRANCH  24  30
ATOM     29  C   UNL     1       0.099   2.395   0.136  0.00  0.00    -0.096 C 
ATOM     30  N   UNL     1       0.334   0.950   0.261  0.00  0.00    +0.379 N 
ATOM     31  C   UNL     1       1.089   0.681   1.491  0.00  0.00    -0.096 C 
ATOM     32  H   UNL     1       0.861   0.625  -0.536  0.00  0.00    -0.082 HD
ENDBRANCH  24  30
ENDBRANCH   1  28
BRANCH   3  33
ATOM     33  C   UNL     1      -5.557   2.316   0.045  0.00  0.00    +0.422 C 
ATOM     34  F   UNL     1      -6.769   3.015   0.085  0.00  0.00    -0.166 F 
ATOM     35  F   UNL     1      -5.796   0.955   0.262  0.00  0.00    -0.166 F 
ATOM     36  F   UNL     1      -4.704   2.805   1.040  0.00  0.00    -0.166 F 
ENDBRANCH   3  33
TORSDOF 4
