REMARK  Name = CHEMBL379837
REMARK  14 active torsions:
REMARK  status: ('A' for Active; 'I' for Inactive)
REMARK    1  A    between atoms: C_1  and  N_2
REMARK    2  A    between atoms: N_2  and  C_3
REMARK    3  A    between atoms: N_2  and  C_4
REMARK    4  A    between atoms: C_4  and  C_5
REMARK    5  A    between atoms: C_5  and  N_6
REMARK    6  A    between atoms: C_7  and  C_9
REMARK    7  A    between atoms: C_13  and  N_15
REMARK    8  A    between atoms: N_24  and  C_25
REMARK    9  A    between atoms: C_27  and  O_35
REMARK   10  A    between atoms: C_28  and  O_33
REMARK   11  A    between atoms: C_29  and  O_31
REMARK   12  A    between atoms: O_31  and  C_32
REMARK   13  A    between atoms: O_33  and  C_34
REMARK   14  A    between atoms: O_35  and  C_36
REMARK                            x       y       z     vdW  Elec       q    Type
REMARK                         _______ _______ _______ _____ _____    ______ ____
ROOT
ATOM      1  N   UNL     1      -5.790  -7.721  -0.115  0.00  0.00    -0.301 N 
ATOM      2  C   UNL     1      -5.293  -8.534  -1.104  0.00  0.00    +0.094 A 
ATOM      3  C   UNL     1      -5.906  -9.727  -1.067  0.00  0.00    +0.031 A 
ATOM      4  C   UNL     1      -6.871  -9.675   0.033  0.00  0.00    +0.037 A 
ATOM      5  C   UNL     1      -6.750  -8.388   0.600  0.00  0.00    +0.150 A 
ATOM      6  N   UNL     1      -7.521  -8.074   1.636  0.00  0.00    -0.196 NA
ATOM      7  C   UNL     1      -8.381  -8.954   2.122  0.00  0.00    +0.221 A 
ATOM      8  N   UNL     1      -8.517 -10.173   1.613  0.00  0.00    -0.222 NA
ATOM      9  C   UNL     1      -7.795 -10.565   0.577  0.00  0.00    +0.126 A 
ATOM     10  N   UNL     1      -9.168  -8.591   3.204  0.00  0.00    -0.283 N 
ATOM     11  H   UNL     1      -9.143  -7.681   3.538  0.00  0.00    +0.155 HD
ENDROOT
BRANCH   1  16
ATOM     12  C   UNL     1      -3.612  -4.806   0.486  0.00  0.00    +0.039 A 
ATOM     13  C   UNL     1      -4.565  -3.795   0.617  0.00  0.00    +0.013 A 
ATOM     14  C   UNL     1      -5.908  -4.093   0.506  0.00  0.00    +0.003 A 
ATOM     15  C   UNL     1      -6.314  -5.392   0.263  0.00  0.00    +0.026 A 
ATOM     16  C   UNL     1      -5.373  -6.406   0.131  0.00  0.00    +0.049 A 
ATOM     17  C   UNL     1      -4.022  -6.116   0.236  0.00  0.00    +0.039 A 
BRANCH  12  19
ATOM     18  N   UNL     1      -1.779  -3.223   0.846  0.00  0.00    -0.313 N 
ATOM     19  C   UNL     1      -2.173  -4.489   0.605  0.00  0.00    +0.244 C 
ATOM     20  O   UNL     1      -1.344  -5.371   0.484  0.00  0.00    -0.270 OA
ATOM     21  H   UNL     1      -2.440  -2.520   0.942  0.00  0.00    +0.149 HD
BRANCH  18  22
ATOM     22  C   UNL     1      -0.353  -2.909   0.964  0.00  0.00    +0.086 C 
BRANCH  22  23
ATOM     23  C   UNL     1      -0.181  -1.413   1.236  0.00  0.00    -0.061 C 
BRANCH  23  25
ATOM     24  C   UNL     1       1.421   0.354   1.496  0.00  0.00    -0.097 C 
ATOM     25  N   UNL     1       1.249  -1.098   1.354  0.00  0.00    +0.377 N 
ATOM     26  C   UNL     1       1.804  -1.775   2.534  0.00  0.00    -0.097 C 
ATOM     27  H   UNL     1       1.732  -1.415   0.527  0.00  0.00    -0.083 HD
ENDBRANCH  23  25
ENDBRANCH  22  23
ENDBRANCH  18  22
ENDBRANCH  12  19
ENDBRANCH   1  16
BRANCH  10  28
ATOM     28  C   UNL     1     -10.001  -9.537   3.813  0.00  0.00    +0.041 A 
ATOM     29  C   UNL     1      -9.606 -10.866   3.882  0.00  0.00    +0.073 A 
ATOM     30  C   UNL     1     -10.430 -11.804   4.486  0.00  0.00    +0.167 A 
ATOM     31  C   UNL     1     -11.651 -11.413   5.021  0.00  0.00    +0.204 A 
ATOM     32  C   UNL     1     -12.046 -10.082   4.950  0.00  0.00    +0.167 A 
ATOM     33  C   UNL     1     -11.219  -9.145   4.352  0.00  0.00    +0.073 A 
BRANCH  32  34
ATOM     34  O   UNL     1     -13.241  -9.699   5.473  0.00  0.00    -0.491 OA
ATOM     35  C   UNL     1     -13.583  -8.316   5.366  0.00  0.00    +0.277 C 
ENDBRANCH  32  34
BRANCH  31  36
ATOM     36  O   UNL     1     -12.461 -12.334   5.613  0.00  0.00    -0.488 OA
ATOM     37  C   UNL     1     -12.285 -12.547   7.015  0.00  0.00    +0.277 C 
ENDBRANCH  31  36
BRANCH  30  38
ATOM     38  O   UNL     1     -10.043 -13.106   4.553  0.00  0.00    -0.491 OA
ATOM     39  C   UNL     1      -8.775 -13.436   3.983  0.00  0.00    +0.277 C 
ENDBRANCH  30  38
ENDBRANCH  10  28
TORSDOF 9
