REMARK  Name = CHEMBL207491
REMARK  10 active torsions:
REMARK  status: ('A' for Active; 'I' for Inactive)
REMARK    1  A    between atoms: C_1  and  O_2
REMARK    2  A    between atoms: O_2  and  C_3
REMARK    3  A    between atoms: C_5  and  N_13
REMARK    4  A    between atoms: C_7  and  O_11
REMARK    5  A    between atoms: C_8  and  O_9
REMARK    6  A    between atoms: O_9  and  C_10
REMARK    7  A    between atoms: O_11  and  C_12
REMARK    8  A    between atoms: C_27  and  C_29
REMARK    9  A    between atoms: C_29  and  C_30
REMARK   10  A    between atoms: C_30  and  C_31
REMARK                            x       y       z     vdW  Elec       q    Type
REMARK                         _______ _______ _______ _____ _____    ______ ____
ROOT
ATOM      1  N   UNL     1      -4.786   0.201   0.037  0.00  0.00    -0.283 N 
ATOM      2  C   UNL     1      -6.011  -0.440  -0.059  0.00  0.00    +0.221 A 
ATOM      3  N   UNL     1      -6.040  -1.768  -0.052  0.00  0.00    -0.222 NA
ATOM      4  C   UNL     1      -7.183  -2.426  -0.142  0.00  0.00    +0.126 A 
ATOM      5  C   UNL     1      -8.367  -1.697  -0.243  0.00  0.00    +0.037 A 
ATOM      6  C   UNL     1      -9.786  -2.038  -0.357  0.00  0.00    +0.031 A 
ATOM      7  C   UNL     1     -10.462  -0.880  -0.420  0.00  0.00    +0.095 A 
ATOM      8  N   UNL     1      -9.585   0.176  -0.355  0.00  0.00    -0.285 N 
ATOM      9  C   UNL     1      -8.300  -0.288  -0.247  0.00  0.00    +0.151 A 
ATOM     10  N   UNL     1      -7.109   0.292  -0.148  0.00  0.00    -0.196 NA
ATOM     11  C   UNL     1      -9.950   1.524  -0.394  0.00  0.00    +0.139 A 
ATOM     12  C   UNL     1     -11.292   1.871  -0.500  0.00  0.00    +0.047 A 
ATOM     13  C   UNL     1     -11.640   3.209  -0.537  0.00  0.00    +0.005 A 
ATOM     14  C   UNL     1     -10.629   4.159  -0.467  0.00  0.00    +0.023 A 
ATOM     15  C   UNL     1      -9.317   3.742  -0.363  0.00  0.00    +0.044 A 
ATOM     16  N   UNL     1      -9.016   2.458  -0.324  0.00  0.00    -0.234 NA
ATOM     17  H   UNL     1      -4.750   1.167   0.119  0.00  0.00    +0.155 HD
ENDROOT
BRANCH   1  20
ATOM     18  C   UNL     1      -2.351  -2.440  -0.770  0.00  0.00    +0.167 A 
ATOM     19  C   UNL     1      -3.523  -1.700  -0.749  0.00  0.00    +0.073 A 
ATOM     20  C   UNL     1      -3.602  -0.545   0.017  0.00  0.00    +0.041 A 
ATOM     21  C   UNL     1      -2.506  -0.129   0.761  0.00  0.00    +0.073 A 
ATOM     22  C   UNL     1      -1.333  -0.867   0.741  0.00  0.00    +0.167 A 
ATOM     23  C   UNL     1      -1.256  -2.027  -0.020  0.00  0.00    +0.204 A 
BRANCH  18  25
ATOM     24  C   UNL     1      -3.437  -3.936  -2.266  0.00  0.00    +0.277 C 
ATOM     25  O   UNL     1      -2.273  -3.571  -1.520  0.00  0.00    -0.491 OA
ENDBRANCH  18  25
BRANCH  23  26
ATOM     26  O   UNL     1      -0.106  -2.756  -0.035  0.00  0.00    -0.488 OA
ATOM     27  C   UNL     1       0.862  -2.420  -1.032  0.00  0.00    +0.277 C 
ENDBRANCH  23  26
BRANCH  22  28
ATOM     28  O   UNL     1      -0.260  -0.459   1.470  0.00  0.00    -0.491 OA
ATOM     29  C   UNL     1      -0.413   0.740   2.233  0.00  0.00    +0.277 C 
ENDBRANCH  22  28
ENDBRANCH   1  20
BRANCH  15  30
ATOM     30  C   UNL     1      -8.215   4.767  -0.287  0.00  0.00    +0.067 C 
BRANCH  30  31
ATOM     31  C   UNL     1      -7.371   4.517   0.965  0.00  0.00    +0.131 C 
BRANCH  31  32
ATOM     32  C   UNL     1      -6.269   5.542   1.041  0.00  0.00    +0.356 C 
ATOM     33  O   UNL     1      -6.168   6.393   0.175  0.00  0.00    -0.246 OA
ATOM     34  O   UNL     1      -5.479   5.519   1.970  0.00  0.00    -0.246 OA
ENDBRANCH  31  32
ENDBRANCH  30  31
ENDBRANCH  15  30
TORSDOF 7
