REMARK  Name = CHEMBL207259
REMARK  13 active torsions:
REMARK  status: ('A' for Active; 'I' for Inactive)
REMARK    1  A    between atoms: C_1  and  C_2
REMARK    2  A    between atoms: C_2  and  N_3
REMARK    3  A    between atoms: C_4  and  C_6
REMARK    4  A    between atoms: C_6  and  C_7
REMARK    5  A    between atoms: C_7  and  C_8
REMARK    6  A    between atoms: C_12  and  N_14
REMARK    7  A    between atoms: N_23  and  C_24
REMARK    8  A    between atoms: C_26  and  O_34
REMARK    9  A    between atoms: C_27  and  O_32
REMARK   10  A    between atoms: C_28  and  O_30
REMARK   11  A    between atoms: O_30  and  C_31
REMARK   12  A    between atoms: O_32  and  C_33
REMARK   13  A    between atoms: O_34  and  C_35
REMARK                            x       y       z     vdW  Elec       q    Type
REMARK                         _______ _______ _______ _____ _____    ______ ____
ROOT
ATOM      1  N   UNL     1       1.234  -5.515   7.082  0.00  0.00    -0.301 N 
ATOM      2  C   UNL     1       0.398  -4.622   7.705  0.00  0.00    +0.094 A 
ATOM      3  C   UNL     1       0.077  -5.073   8.928  0.00  0.00    +0.031 A 
ATOM      4  C   UNL     1       0.761  -6.355   9.101  0.00  0.00    +0.037 A 
ATOM      5  C   UNL     1       1.472  -6.586   7.904  0.00  0.00    +0.150 A 
ATOM      6  N   UNL     1       2.186  -7.701   7.793  0.00  0.00    -0.196 NA
ATOM      7  C   UNL     1       2.224  -8.575   8.785  0.00  0.00    +0.221 A 
ATOM      8  N   UNL     1       1.565  -8.389   9.922  0.00  0.00    -0.222 NA
ATOM      9  C   UNL     1       0.837  -7.303  10.120  0.00  0.00    +0.126 A 
ATOM     10  N   UNL     1       2.979  -9.726   8.632  0.00  0.00    -0.283 N 
ATOM     11  H   UNL     1       3.531  -9.843   7.843  0.00  0.00    +0.155 HD
ENDROOT
BRANCH   1  16
ATOM     12  C   UNL     1       1.449  -4.884   3.464  0.00  0.00    -0.045 A 
ATOM     13  C   UNL     1       2.805  -5.049   3.250  0.00  0.00    +0.004 A 
ATOM     14  C   UNL     1       3.641  -5.368   4.304  0.00  0.00    +0.002 A 
ATOM     15  C   UNL     1       3.124  -5.523   5.575  0.00  0.00    +0.026 A 
ATOM     16  C   UNL     1       1.763  -5.358   5.794  0.00  0.00    +0.048 A 
ATOM     17  C   UNL     1       0.926  -5.032   4.734  0.00  0.00    +0.029 A 
BRANCH  12  18
ATOM     18  C   UNL     1       0.542  -4.536   2.313  0.00  0.00    +0.044 C 
BRANCH  18  19
ATOM     19  C   UNL     1       0.452  -3.014   2.176  0.00  0.00    +0.100 C 
BRANCH  19  21
ATOM     20  N   UNL     1      -0.686  -1.375   0.714  0.00  0.00    -0.316 N 
ATOM     21  C   UNL     1      -0.456  -2.666   1.024  0.00  0.00    +0.213 C 
ATOM     22  O   UNL     1      -0.979  -3.548   0.377  0.00  0.00    -0.276 OA
ATOM     23  H   UNL     1      -0.268  -0.670   1.232  0.00  0.00    +0.149 HD
BRANCH  20  25
ATOM     24  C   UNL     1      -1.658   0.484  -0.542  0.00  0.00    +0.024 C 
ATOM     25  C   UNL     1      -1.568  -1.037  -0.405  0.00  0.00    +0.101 C 
ENDBRANCH  20  25
ENDBRANCH  19  21
ENDBRANCH  18  19
ENDBRANCH  12  18
ENDBRANCH   1  16
BRANCH  10  26
ATOM     26  C   UNL     1       2.945 -10.722   9.616  0.00  0.00    +0.041 A 
ATOM     27  C   UNL     1       1.774 -10.960  10.322  0.00  0.00    +0.073 A 
ATOM     28  C   UNL     1       1.739 -11.945  11.296  0.00  0.00    +0.167 A 
ATOM     29  C   UNL     1       2.877 -12.695  11.566  0.00  0.00    +0.204 A 
ATOM     30  C   UNL     1       4.050 -12.456  10.859  0.00  0.00    +0.167 A 
ATOM     31  C   UNL     1       4.081 -11.474   9.881  0.00  0.00    +0.073 A 
BRANCH  30  32
ATOM     32  O   UNL     1       5.165 -13.189  11.123  0.00  0.00    -0.491 OA
ATOM     33  C   UNL     1       6.334 -12.890  10.358  0.00  0.00    +0.277 C 
ENDBRANCH  30  32
BRANCH  29  34
ATOM     34  O   UNL     1       2.844 -13.663  12.523  0.00  0.00    -0.488 OA
ATOM     35  C   UNL     1       2.474 -14.978  12.104  0.00  0.00    +0.277 C 
ENDBRANCH  29  34
BRANCH  28  36
ATOM     36  O   UNL     1       0.591 -12.178  11.987  0.00  0.00    -0.491 OA
ATOM     37  C   UNL     1      -0.540 -11.370  11.658  0.00  0.00    +0.277 C 
ENDBRANCH  28  36
ENDBRANCH  10  26
TORSDOF 9
