REMARK  Name = CHEMBL472212
REMARK  8 active torsions:
REMARK  status: ('A' for Active; 'I' for Inactive)
REMARK    1  A    between atoms: C_1  and  N_2
REMARK    2  A    between atoms: N_2  and  C_3
REMARK    3  A    between atoms: N_2  and  S_32
REMARK    4  A    between atoms: C_8  and  C_9
REMARK    5  A    between atoms: C_9  and  N_10
REMARK    6  A    between atoms: C_12  and  C_28
REMARK    7  A    between atoms: N_17  and  C_18
REMARK    8  A    between atoms: S_32  and  C_35
REMARK                            x       y       z     vdW  Elec       q    Type
REMARK                         _______ _______ _______ _____ _____    ______ ____
ROOT
ATOM      1  N   UNL     1       2.625  -0.659   0.618  0.00  0.00    -0.324 N 
ATOM      2  C   UNL     1       3.670  -1.189  -0.121  0.00  0.00    +0.136 A 
ATOM      3  C   UNL     1       4.966  -0.690   0.025  0.00  0.00    +0.113 A 
ATOM      4  C   UNL     1       5.976  -1.248  -0.733  0.00  0.00    +0.130 A 
ATOM      5  N   UNL     1       5.689  -2.234  -1.570  0.00  0.00    -0.222 NA
ATOM      6  C   UNL     1       4.451  -2.688  -1.689  0.00  0.00    +0.221 A 
ATOM      7  N   UNL     1       3.454  -2.183  -0.976  0.00  0.00    -0.199 NA
ATOM      8  N   UNL     1       4.192  -3.720  -2.575  0.00  0.00    -0.284 N 
ATOM      9  H   UNL     1       2.790   0.066   1.240  0.00  0.00    +0.148 HD
ATOM     10  H   UNL     1       3.307  -4.117  -2.613  0.00  0.00    +0.155 HD
ENDROOT
BRANCH   8  11
ATOM     11  C   UNL     1       5.206  -4.190  -3.418  0.00  0.00    +0.034 A 
ATOM     12  C   UNL     1       5.314  -5.548  -3.691  0.00  0.00    +0.025 A 
ATOM     13  C   UNL     1       6.311  -6.013  -4.521  0.00  0.00    +0.025 A 
ATOM     14  C   UNL     1       7.221  -5.125  -5.092  0.00  0.00    +0.037 A 
ATOM     15  C   UNL     1       7.105  -3.769  -4.814  0.00  0.00    -0.016 A 
ATOM     16  C   UNL     1       6.107  -3.300  -3.990  0.00  0.00    +0.029 A 
ATOM     17  C   UNL     1       8.219  -3.083  -5.570  0.00  0.00    +0.133 C 
ATOM     18  C   UNL     1       8.936  -4.213  -6.277  0.00  0.00    +0.222 C 
ATOM     19  O   UNL     1       9.903  -4.111  -7.002  0.00  0.00    -0.275 OA
ATOM     20  N   UNL     1       8.301  -5.351  -5.950  0.00  0.00    -0.285 N 
ATOM     21  H   UNL     1       8.561  -6.228  -6.272  0.00  0.00    +0.155 HD
ENDBRANCH   8  11
BRANCH   3  22
ATOM     22  C   UNL     1       5.255   0.434   0.987  0.00  0.00    +0.422 C 
ATOM     23  F   UNL     1       6.618   0.745   0.944  0.00  0.00    -0.166 F 
ATOM     24  F   UNL     1       4.508   1.560   0.627  0.00  0.00    -0.166 F 
ATOM     25  F   UNL     1       4.907   0.038   2.283  0.00  0.00    -0.166 F 
ENDBRANCH   3  22
BRANCH   1  26
ATOM     26  C   UNL     1       1.270  -1.196   0.461  0.00  0.00    +0.140 C 
BRANCH  26  32
ATOM     27  C   UNL     1      -0.237   0.727   1.034  0.00  0.00    +0.055 A 
ATOM     28  C   UNL     1      -1.103   1.377   1.904  0.00  0.00    +0.025 A 
ATOM     29  C   UNL     1      -1.387   0.822   3.136  0.00  0.00    +0.002 A 
ATOM     30  C   UNL     1      -0.811  -0.380   3.504  0.00  0.00    +0.000 A 
ATOM     31  C   UNL     1       0.051  -1.030   2.640  0.00  0.00    +0.007 A 
ATOM     32  C   UNL     1       0.336  -0.483   1.404  0.00  0.00    -0.008 A 
BRANCH  27  34
ATOM     33  C   UNL     1      -0.817   1.009  -1.359  0.00  0.00    +0.157 C 
ATOM     34  N   UNL     1       0.053   1.286  -0.213  0.00  0.00    -0.210 N 
BRANCH  34  35
ATOM     35  S   UNL     1       1.379   2.260  -0.396  0.00  0.00    +0.042 S 
ATOM     36  O   UNL     1       2.190   1.985   0.738  0.00  0.00    -0.155 OA
ATOM     37  O   UNL     1       1.852   1.987  -1.708  0.00  0.00    -0.155 OA
ATOM     38  C   UNL     1       0.730   3.952  -0.305  0.00  0.00    +0.218 C 
ENDBRANCH  34  35
ENDBRANCH  27  34
ENDBRANCH  26  32
ENDBRANCH   1  26
TORSDOF 6
