REMARK  Name = CHEMBL382637
REMARK  3 active torsions:
REMARK  status: ('A' for Active; 'I' for Inactive)
REMARK    1  A    between atoms: C_1  and  C_2
REMARK    2  A    between atoms: C_2  and  C_3
REMARK    3  A    between atoms: C_8  and  N_9
REMARK                            x       y       z     vdW  Elec       q    Type
REMARK                         _______ _______ _______ _____ _____    ______ ____
ROOT
ATOM      1  N   UNL     1      -1.506  -0.315  -2.390  0.00  0.00    -0.283 N 
ATOM      2  C   UNL     1      -2.167  -0.548  -3.587  0.00  0.00    +0.221 A 
ATOM      3  N   UNL     1      -3.413  -1.002  -3.551  0.00  0.00    -0.222 NA
ATOM      4  C   UNL     1      -4.086  -1.240  -4.665  0.00  0.00    +0.126 A 
ATOM      5  C   UNL     1      -3.458  -1.002  -5.887  0.00  0.00    +0.037 A 
ATOM      6  C   UNL     1      -3.845  -1.135  -7.293  0.00  0.00    +0.031 A 
ATOM      7  C   UNL     1      -2.791  -0.746  -8.026  0.00  0.00    +0.095 A 
ATOM      8  N   UNL     1      -1.758  -0.375  -7.199  0.00  0.00    -0.285 N 
ATOM      9  C   UNL     1      -2.133  -0.520  -5.888  0.00  0.00    +0.151 A 
ATOM     10  N   UNL     1      -1.533  -0.304  -4.722  0.00  0.00    -0.196 NA
ATOM     11  C   UNL     1      -0.511   0.082  -7.630  0.00  0.00    +0.139 A 
ATOM     12  C   UNL     1      -0.251   0.192  -8.991  0.00  0.00    +0.047 A 
ATOM     13  C   UNL     1       0.989   0.647  -9.405  0.00  0.00    +0.005 A 
ATOM     14  C   UNL     1       1.930   0.977  -8.439  0.00  0.00    +0.020 A 
ATOM     15  C   UNL     1       1.603   0.843  -7.104  0.00  0.00    +0.113 A 
ATOM     16  N   UNL     1       0.411   0.412  -6.739  0.00  0.00    -0.238 NA
ATOM     17  H   UNL     1      -0.570  -0.061  -2.395  0.00  0.00    +0.155 HD
ENDROOT
BRANCH   1  23
ATOM     18  C   UNL     1      -1.526  -0.914  -0.052  0.00  0.00    -0.026 A 
ATOM     19  C   UNL     1      -2.203  -1.036   1.146  0.00  0.00    +0.005 A 
ATOM     20  C   UNL     1      -3.542  -0.699   1.223  0.00  0.00    +0.000 A 
ATOM     21  C   UNL     1      -4.207  -0.236   0.102  0.00  0.00    +0.002 A 
ATOM     22  C   UNL     1      -3.536  -0.112  -1.099  0.00  0.00    +0.023 A 
ATOM     23  C   UNL     1      -2.190  -0.445  -1.178  0.00  0.00    +0.037 A 
BRANCH  18  25
ATOM     24  C   UNL     1       0.788  -0.030   0.063  0.00  0.00    +0.009 C 
ATOM     25  C   UNL     1      -0.067  -1.283  -0.135  0.00  0.00    +0.033 C 
ENDBRANCH  18  25
ENDBRANCH   1  23
TORSDOF 2
