REMARK  Name = CHEMBL426311
REMARK  7 active torsions:
REMARK  status: ('A' for Active; 'I' for Inactive)
REMARK    1  A    between atoms: C_1  and  O_2
REMARK    2  A    between atoms: O_2  and  C_3
REMARK    3  A    between atoms: C_5  and  N_13
REMARK    4  A    between atoms: C_7  and  O_11
REMARK    5  A    between atoms: C_8  and  O_9
REMARK    6  A    between atoms: O_9  and  C_10
REMARK    7  A    between atoms: O_11  and  C_12
REMARK                            x       y       z     vdW  Elec       q    Type
REMARK                         _______ _______ _______ _____ _____    ______ ____
ROOT
ATOM      1  N   UNL     1      -4.767   0.281  -0.341  0.00  0.00    -0.285 N 
ATOM      2  C   UNL     1      -5.984  -0.381  -0.340  0.00  0.00    +0.199 A 
ATOM      3  N   UNL     1      -5.999  -1.706  -0.336  0.00  0.00    -0.334 N 
ATOM      4  C   UNL     1      -7.143  -2.375  -0.337  0.00  0.00    +0.092 A 
ATOM      5  C   UNL     1      -8.334  -1.673  -0.341  0.00  0.00    +0.009 A 
ATOM      6  C   UNL     1      -8.286  -0.283  -0.342  0.00  0.00    +0.135 A 
ATOM      7  N   UNL     1      -7.104   0.327  -0.338  0.00  0.00    -0.200 NA
ATOM      8  N   UNL     1      -9.452   0.470  -0.337  0.00  0.00    -0.271 N 
ATOM      9  C   UNL     1     -10.727  -0.195  -0.640  0.00  0.00    +0.114 C 
ATOM     10  C   UNL     1     -10.771  -1.513   0.143  0.00  0.00    +0.024 C 
ATOM     11  C   UNL     1      -9.640  -2.418  -0.347  0.00  0.00    +0.041 C 
ATOM     12  C   UNL     1      -9.414   1.832  -0.050  0.00  0.00    +0.104 A 
ATOM     13  C   UNL     1      -9.537   2.262   1.267  0.00  0.00    +0.042 A 
ATOM     14  C   UNL     1      -9.498   3.618   1.538  0.00  0.00    +0.005 A 
ATOM     15  C   UNL     1      -9.337   4.501   0.479  0.00  0.00    +0.018 A 
ATOM     16  C   UNL     1      -9.221   4.004  -0.804  0.00  0.00    +0.084 A 
ATOM     17  N   UNL     1      -9.257   2.705  -1.032  0.00  0.00    -0.349 N 
ATOM     18  H   UNL     1      -4.740   1.246  -0.247  0.00  0.00    +0.155 HD
ATOM     19  H   UNL     1      -5.160  -2.193  -0.333  0.00  0.00    +0.168 HD
ATOM     20  H   UNL     1      -9.169   2.382  -1.943  0.00  0.00    +0.167 HD
ENDROOT
BRANCH   1  23
ATOM     21  C   UNL     1      -2.321  -2.202  -1.530  0.00  0.00    +0.167 A 
ATOM     22  C   UNL     1      -3.500  -1.485  -1.393  0.00  0.00    +0.073 A 
ATOM     23  C   UNL     1      -3.577  -0.443  -0.479  0.00  0.00    +0.041 A 
ATOM     24  C   UNL     1      -2.474  -0.119   0.299  0.00  0.00    +0.073 A 
ATOM     25  C   UNL     1      -1.295  -0.835   0.164  0.00  0.00    +0.167 A 
ATOM     26  C   UNL     1      -1.218  -1.881  -0.748  0.00  0.00    +0.204 A 
BRANCH  21  28
ATOM     27  C   UNL     1      -3.418  -3.497  -3.197  0.00  0.00    +0.277 C 
ATOM     28  O   UNL     1      -2.246  -3.222  -2.426  0.00  0.00    -0.491 OA
ENDBRANCH  21  28
BRANCH  26  29
ATOM     29  O   UNL     1      -0.062  -2.588  -0.878  0.00  0.00    -0.488 OA
ATOM     30  C   UNL     1       0.886  -2.111  -1.835  0.00  0.00    +0.277 C 
ENDBRANCH  26  29
BRANCH  25  31
ATOM     31  O   UNL     1      -0.214  -0.517   0.926  0.00  0.00    -0.491 OA
ATOM     32  C   UNL     1      -0.365   0.567   1.845  0.00  0.00    +0.277 C 
ENDBRANCH  25  31
ENDBRANCH   1  23
TORSDOF 4
