REMARK  Name = CHEMBL208939
REMARK  10 active torsions:
REMARK  status: ('A' for Active; 'I' for Inactive)
REMARK    1  A    between atoms: C_1  and  N_2
REMARK    2  A    between atoms: C_3  and  C_5
REMARK    3  A    between atoms: C_10  and  N_11
REMARK    4  A    between atoms: N_20  and  C_21
REMARK    5  A    between atoms: C_23  and  O_31
REMARK    6  A    between atoms: C_24  and  O_29
REMARK    7  A    between atoms: C_25  and  O_27
REMARK    8  A    between atoms: O_27  and  C_28
REMARK    9  A    between atoms: O_29  and  C_30
REMARK   10  A    between atoms: O_31  and  C_32
REMARK                            x       y       z     vdW  Elec       q    Type
REMARK                         _______ _______ _______ _____ _____    ______ ____
ROOT
ATOM      1  N   UNL     1       1.540  -1.734  -3.068  0.00  0.00    -0.300 N 
ATOM      2  C   UNL     1       1.135  -1.803  -4.380  0.00  0.00    +0.094 A 
ATOM      3  C   UNL     1       2.045  -1.211  -5.170  0.00  0.00    +0.031 A 
ATOM      4  C   UNL     1       3.115  -0.726  -4.297  0.00  0.00    +0.037 A 
ATOM      5  C   UNL     1       2.741  -1.079  -2.983  0.00  0.00    +0.150 A 
ATOM      6  N   UNL     1       3.548  -0.747  -1.981  0.00  0.00    -0.196 NA
ATOM      7  C   UNL     1       4.676  -0.096  -2.215  0.00  0.00    +0.221 A 
ATOM      8  N   UNL     1       5.054   0.253  -3.439  0.00  0.00    -0.222 NA
ATOM      9  C   UNL     1       4.315  -0.044  -4.494  0.00  0.00    +0.126 A 
ATOM     10  N   UNL     1       5.492   0.233  -1.144  0.00  0.00    -0.283 N 
ATOM     11  H   UNL     1       5.274  -0.083  -0.254  0.00  0.00    +0.155 HD
ENDROOT
BRANCH   1  17
ATOM     12  C   UNL     1       0.307  -1.387  -1.009  0.00  0.00    +0.060 A 
ATOM     13  C   UNL     1      -0.406  -1.916   0.069  0.00  0.00    +0.015 A 
ATOM     14  C   UNL     1      -0.588  -3.278   0.172  0.00  0.00    +0.001 A 
ATOM     15  C   UNL     1      -0.065  -4.128  -0.790  0.00  0.00    +0.002 A 
ATOM     16  C   UNL     1       0.642  -3.620  -1.861  0.00  0.00    +0.027 A 
ATOM     17  C   UNL     1       0.830  -2.250  -1.984  0.00  0.00    +0.060 A 
BRANCH  12  20
ATOM     18  C   UNL     1       0.197   2.343  -0.302  0.00  0.00    +0.128 C 
ATOM     19  N   UNL     1       0.001   0.896  -0.187  0.00  0.00    -0.314 N 
ATOM     20  C   UNL     1       0.505   0.070  -1.126  0.00  0.00    +0.246 C 
ATOM     21  O   UNL     1       1.122   0.527  -2.068  0.00  0.00    -0.270 OA
ATOM     22  H   UNL     1      -0.492   0.531   0.565  0.00  0.00    +0.149 HD
ENDBRANCH  12  20
ENDBRANCH   1  17
BRANCH  10  23
ATOM     23  C   UNL     1       6.630   1.021  -1.348  0.00  0.00    +0.041 A 
ATOM     24  C   UNL     1       6.622   2.014  -2.318  0.00  0.00    +0.073 A 
ATOM     25  C   UNL     1       7.749   2.796  -2.520  0.00  0.00    +0.167 A 
ATOM     26  C   UNL     1       8.887   2.584  -1.752  0.00  0.00    +0.204 A 
ATOM     27  C   UNL     1       8.895   1.590  -0.781  0.00  0.00    +0.167 A 
ATOM     28  C   UNL     1       7.765   0.813  -0.576  0.00  0.00    +0.073 A 
BRANCH  27  29
ATOM     29  O   UNL     1      10.009   1.382  -0.029  0.00  0.00    -0.491 OA
ATOM     30  C   UNL     1       9.946   0.343   0.950  0.00  0.00    +0.277 C 
ENDBRANCH  27  29
BRANCH  26  31
ATOM     31  O   UNL     1       9.995   3.351  -1.951  0.00  0.00    -0.488 OA
ATOM     32  C   UNL     1      10.098   4.553  -1.185  0.00  0.00    +0.277 C 
ENDBRANCH  26  31
BRANCH  25  33
ATOM     33  O   UNL     1       7.740   3.768  -3.471  0.00  0.00    -0.491 OA
ATOM     34  C   UNL     1       6.536   3.930  -4.223  0.00  0.00    +0.277 C 
ENDBRANCH  25  33
ENDBRANCH  10  23
TORSDOF 6
