REMARK  Name = CHEMBL206731
REMARK  9 active torsions:
REMARK  status: ('A' for Active; 'I' for Inactive)
REMARK    1  A    between atoms: C_1  and  O_2
REMARK    2  A    between atoms: O_2  and  C_3
REMARK    3  A    between atoms: C_5  and  N_13
REMARK    4  A    between atoms: C_7  and  O_11
REMARK    5  A    between atoms: C_8  and  O_9
REMARK    6  A    between atoms: O_9  and  C_10
REMARK    7  A    between atoms: O_11  and  C_12
REMARK    8  A    between atoms: N_20  and  C_23
REMARK    9  A    between atoms: C_28  and  C_29
REMARK                            x       y       z     vdW  Elec       q    Type
REMARK                         _______ _______ _______ _____ _____    ______ ____
ROOT
ATOM      1  N   UNL     1      -4.786   0.201   0.038  0.00  0.00    -0.283 N 
ATOM      2  C   UNL     1      -6.011  -0.440  -0.058  0.00  0.00    +0.221 A 
ATOM      3  N   UNL     1      -6.040  -1.768  -0.053  0.00  0.00    -0.222 NA
ATOM      4  C   UNL     1      -7.183  -2.426  -0.142  0.00  0.00    +0.126 A 
ATOM      5  C   UNL     1      -8.367  -1.697  -0.243  0.00  0.00    +0.037 A 
ATOM      6  C   UNL     1      -9.786  -2.038  -0.357  0.00  0.00    +0.031 A 
ATOM      7  C   UNL     1     -10.462  -0.880  -0.419  0.00  0.00    +0.094 A 
ATOM      8  N   UNL     1      -9.585   0.176  -0.353  0.00  0.00    -0.300 N 
ATOM      9  C   UNL     1      -8.300  -0.288  -0.246  0.00  0.00    +0.150 A 
ATOM     10  N   UNL     1      -7.109   0.292  -0.147  0.00  0.00    -0.196 NA
ATOM     11  H   UNL     1      -4.750   1.167   0.121  0.00  0.00    +0.155 HD
ENDROOT
BRANCH   1  14
ATOM     12  C   UNL     1      -2.350  -2.438  -0.773  0.00  0.00    +0.167 A 
ATOM     13  C   UNL     1      -3.523  -1.700  -0.750  0.00  0.00    +0.073 A 
ATOM     14  C   UNL     1      -3.602  -0.545   0.017  0.00  0.00    +0.041 A 
ATOM     15  C   UNL     1      -2.506  -0.130   0.761  0.00  0.00    +0.073 A 
ATOM     16  C   UNL     1      -1.333  -0.867   0.740  0.00  0.00    +0.167 A 
ATOM     17  C   UNL     1      -1.255  -2.026  -0.023  0.00  0.00    +0.204 A 
BRANCH  12  19
ATOM     18  C   UNL     1      -3.437  -3.934  -2.269  0.00  0.00    +0.277 C 
ATOM     19  O   UNL     1      -2.274  -3.570  -1.524  0.00  0.00    -0.491 OA
ENDBRANCH  12  19
BRANCH  17  20
ATOM     20  O   UNL     1      -0.105  -2.754  -0.041  0.00  0.00    -0.488 OA
ATOM     21  C   UNL     1       0.862  -2.416  -1.038  0.00  0.00    +0.277 C 
ENDBRANCH  17  20
BRANCH  16  22
ATOM     22  O   UNL     1      -0.260  -0.460   1.469  0.00  0.00    -0.491 OA
ATOM     23  C   UNL     1      -0.412   0.738   2.234  0.00  0.00    +0.277 C 
ENDBRANCH  16  22
ENDBRANCH   1  14
BRANCH   8  24
ATOM     24  C   UNL     1      -9.950   1.524  -0.392  0.00  0.00    +0.065 A 
ATOM     25  C   UNL     1     -10.704   2.072   0.636  0.00  0.00    +0.027 A 
ATOM     26  C   UNL     1     -11.063   3.404   0.596  0.00  0.00    +0.002 A 
ATOM     27  C   UNL     1     -10.676   4.203  -0.467  0.00  0.00    +0.001 A 
ATOM     28  C   UNL     1      -9.928   3.676  -1.497  0.00  0.00    +0.021 A 
ATOM     29  C   UNL     1      -9.552   2.331  -1.468  0.00  0.00    +0.076 A 
BRANCH  29  30
ATOM     30  C   UNL     1      -8.769   1.778  -2.532  0.00  0.00    +0.101 C 
ATOM     31  N   UNL     1      -8.148   1.340  -3.376  0.00  0.00    -0.191 NA
ENDBRANCH  29  30
ENDBRANCH   8  24
TORSDOF 6
