REMARK  Name = CHEMBL205098
REMARK  7 active torsions:
REMARK  status: ('A' for Active; 'I' for Inactive)
REMARK    1  A    between atoms: C_1  and  O_2
REMARK    2  A    between atoms: O_2  and  C_3
REMARK    3  A    between atoms: C_5  and  N_13
REMARK    4  A    between atoms: C_7  and  O_11
REMARK    5  A    between atoms: C_8  and  O_9
REMARK    6  A    between atoms: O_9  and  C_10
REMARK    7  A    between atoms: O_11  and  C_12
REMARK                            x       y       z     vdW  Elec       q    Type
REMARK                         _______ _______ _______ _____ _____    ______ ____
ROOT
ATOM      1  N   UNL     1       2.361   0.321  -4.157  0.00  0.00    -0.283 N 
ATOM      2  C   UNL     1       3.067  -0.289  -5.183  0.00  0.00    +0.221 A 
ATOM      3  N   UNL     1       3.096  -1.615  -5.237  0.00  0.00    -0.222 NA
ATOM      4  C   UNL     1       3.755  -2.245  -6.196  0.00  0.00    +0.126 A 
ATOM      5  C   UNL     1       4.423  -1.486  -7.155  0.00  0.00    +0.037 A 
ATOM      6  C   UNL     1       5.236  -1.790  -8.334  0.00  0.00    +0.031 A 
ATOM      7  C   UNL     1       5.610  -0.616  -8.864  0.00  0.00    +0.095 A 
ATOM      8  N   UNL     1       5.100   0.418  -8.117  0.00  0.00    -0.285 N 
ATOM      9  C   UNL     1       4.371  -0.079  -7.067  0.00  0.00    +0.151 A 
ATOM     10  N   UNL     1       3.681   0.471  -6.073  0.00  0.00    -0.196 NA
ATOM     11  C   UNL     1       5.295   1.774  -8.386  0.00  0.00    +0.139 A 
ATOM     12  C   UNL     1       6.051   2.155  -9.488  0.00  0.00    +0.047 A 
ATOM     13  C   UNL     1       6.237   3.503  -9.744  0.00  0.00    +0.005 A 
ATOM     14  C   UNL     1       5.656   4.426  -8.885  0.00  0.00    +0.020 A 
ATOM     15  C   UNL     1       4.917   3.976  -7.809  0.00  0.00    +0.113 A 
ATOM     16  N   UNL     1       4.753   2.685  -7.593  0.00  0.00    -0.238 NA
ATOM     17  H   UNL     1       2.257   1.285  -4.147  0.00  0.00    +0.155 HD
ENDROOT
BRANCH   1  20
ATOM     18  C   UNL     1       1.885  -2.377  -1.698  0.00  0.00    +0.167 A 
ATOM     19  C   UNL     1       2.441  -1.609  -2.708  0.00  0.00    +0.073 A 
ATOM     20  C   UNL     1       1.799  -0.454  -3.136  0.00  0.00    +0.041 A 
ATOM     21  C   UNL     1       0.600  -0.069  -2.552  0.00  0.00    +0.073 A 
ATOM     22  C   UNL     1       0.043  -0.836  -1.541  0.00  0.00    +0.167 A 
ATOM     23  C   UNL     1       0.681  -1.995  -1.117  0.00  0.00    +0.204 A 
BRANCH  18  25
ATOM     24  C   UNL     1       3.746  -3.840  -1.920  0.00  0.00    +0.277 C 
ATOM     25  O   UNL     1       2.513  -3.508  -1.278  0.00  0.00    -0.491 OA
ENDBRANCH  18  25
BRANCH  23  26
ATOM     26  O   UNL     1       0.131  -2.752  -0.128  0.00  0.00    -0.488 OA
ATOM     27  C   UNL     1       0.505  -2.437   1.215  0.00  0.00    +0.277 C 
ENDBRANCH  23  26
BRANCH  22  28
ATOM     28  O   UNL     1      -1.131  -0.457  -0.968  0.00  0.00    -0.491 OA
ATOM     29  C   UNL     1      -1.735   0.742  -1.458  0.00  0.00    +0.277 C 
ENDBRANCH  22  28
ENDBRANCH   1  20
TORSDOF 4
