REMARK  Name = CHEMBL383300
REMARK  8 active torsions:
REMARK  status: ('A' for Active; 'I' for Inactive)
REMARK    1  A    between atoms: C_1  and  O_2
REMARK    2  A    between atoms: O_2  and  C_3
REMARK    3  A    between atoms: C_5  and  N_13
REMARK    4  A    between atoms: C_7  and  O_11
REMARK    5  A    between atoms: C_8  and  O_9
REMARK    6  A    between atoms: O_9  and  C_10
REMARK    7  A    between atoms: O_11  and  C_12
REMARK    8  A    between atoms: C_21  and  O_24
REMARK                            x       y       z     vdW  Elec       q    Type
REMARK                         _______ _______ _______ _____ _____    ______ ____
ROOT
ATOM      1  N   UNL     1      -4.776   0.230  -0.101  0.00  0.00    -0.285 N 
ATOM      2  C   UNL     1      -5.998  -0.418  -0.161  0.00  0.00    +0.199 A 
ATOM      3  N   UNL     1      -6.027  -1.743  -0.157  0.00  0.00    -0.334 N 
ATOM      4  C   UNL     1      -7.177  -2.399  -0.216  0.00  0.00    +0.092 A 
ATOM      5  C   UNL     1      -8.359  -1.685  -0.281  0.00  0.00    +0.009 A 
ATOM      6  C   UNL     1      -8.296  -0.295  -0.281  0.00  0.00    +0.137 A 
ATOM      7  N   UNL     1      -7.109   0.301  -0.217  0.00  0.00    -0.200 NA
ATOM      8  N   UNL     1      -9.452   0.470  -0.337  0.00  0.00    -0.244 N 
ATOM      9  C   UNL     1     -10.717  -0.181  -0.705  0.00  0.00    +0.210 C 
ATOM     10  C   UNL     1     -10.815  -1.498   0.077  0.00  0.00    +0.057 C 
ATOM     11  C   UNL     1      -9.671  -2.416  -0.353  0.00  0.00    +0.044 C 
ATOM     12  C   UNL     1      -9.414   1.832  -0.050  0.00  0.00    +0.106 A 
ATOM     13  C   UNL     1      -9.254   2.750  -1.083  0.00  0.00    +0.042 A 
ATOM     14  C   UNL     1      -9.219   4.100  -0.783  0.00  0.00    +0.005 A 
ATOM     15  C   UNL     1      -9.345   4.487   0.544  0.00  0.00    +0.018 A 
ATOM     16  C   UNL     1      -9.501   3.522   1.519  0.00  0.00    +0.084 A 
ATOM     17  N   UNL     1      -9.537   2.241   1.203  0.00  0.00    -0.349 N 
ATOM     18  H   UNL     1      -4.743   1.195  -0.006  0.00  0.00    +0.155 HD
ATOM     19  H   UNL     1      -5.196  -2.239  -0.110  0.00  0.00    +0.168 HD
ATOM     20  H   UNL     1      -9.652   1.584   1.907  0.00  0.00    +0.167 HD
ENDROOT
BRANCH   1  23
ATOM     21  C   UNL     1      -2.299  -2.280  -1.160  0.00  0.00    +0.167 A 
ATOM     22  C   UNL     1      -3.475  -1.551  -1.084  0.00  0.00    +0.073 A 
ATOM     23  C   UNL     1      -3.588  -0.507  -0.176  0.00  0.00    +0.041 A 
ATOM     24  C   UNL     1      -2.522  -0.193   0.657  0.00  0.00    +0.073 A 
ATOM     25  C   UNL     1      -1.346  -0.922   0.583  0.00  0.00    +0.167 A 
ATOM     26  C   UNL     1      -1.234  -1.970  -0.323  0.00  0.00    +0.204 A 
BRANCH  21  28
ATOM     27  C   UNL     1      -3.323  -3.566  -2.879  0.00  0.00    +0.277 C 
ATOM     28  O   UNL     1      -2.189  -3.303  -2.050  0.00  0.00    -0.491 OA
ENDBRANCH  21  28
BRANCH  26  29
ATOM     29  O   UNL     1      -0.081  -2.690  -0.393  0.00  0.00    -0.488 OA
ATOM     30  C   UNL     1       0.921  -2.225  -1.300  0.00  0.00    +0.277 C 
ENDBRANCH  26  29
BRANCH  25  31
ATOM     31  O   UNL     1      -0.302  -0.614   1.399  0.00  0.00    -0.491 OA
ATOM     32  C   UNL     1      -0.488   0.473   2.308  0.00  0.00    +0.277 C 
ENDBRANCH  25  31
ENDBRANCH   1  23
BRANCH   9  33
ATOM     33  O   UNL     1     -11.815   0.667  -0.363  0.00  0.00    -0.374 OA
ATOM     34  H   UNL     1     -12.681   0.296  -0.579  0.00  0.00    +0.212 HD
ENDBRANCH   9  33
TORSDOF 5
