REMARK  Name = CHEMBL206853
REMARK  3 active torsions:
REMARK  status: ('A' for Active; 'I' for Inactive)
REMARK    1  A    between atoms: C_1  and  C_2
REMARK    2  A    between atoms: C_5  and  C_24
REMARK    3  A    between atoms: C_7  and  N_8
REMARK                            x       y       z     vdW  Elec       q    Type
REMARK                         _______ _______ _______ _____ _____    ______ ____
ROOT
ATOM      1  C   UNL     1      -0.012   1.489   0.002  0.00  0.00    +0.045 C 
ATOM      2  C   UNL     1      -0.013  -0.018   0.002  0.00  0.00    -0.029 A 
ATOM      3  C   UNL     1      -0.027  -0.708  -1.196  0.00  0.00    +0.006 A 
ATOM      4  C   UNL     1      -0.028  -2.088  -1.202  0.00  0.00    +0.010 A 
ATOM      5  C   UNL     1      -0.015  -2.792   0.002  0.00  0.00    +0.004 A 
ATOM      6  C   UNL     1      -0.001  -2.098   1.210  0.00  0.00    +0.033 A 
ATOM      7  C   UNL     1       0.005  -0.711   1.207  0.00  0.00    +0.037 A 
ENDROOT
BRANCH   7   8
ATOM      8  N   UNL     1       0.025  -0.009   2.416  0.00  0.00    -0.283 N 
ATOM      9  C   UNL     1       0.547  -0.605   3.554  0.00  0.00    +0.221 A 
ATOM     10  N   UNL     1       1.133  -1.791   3.444  0.00  0.00    -0.222 NA
ATOM     11  C   UNL     1       1.646  -2.400   4.500  0.00  0.00    +0.126 A 
ATOM     12  C   UNL     1       1.560  -1.770   5.740  0.00  0.00    +0.037 A 
ATOM     13  C   UNL     1       1.988  -2.101   7.101  0.00  0.00    +0.031 A 
ATOM     14  C   UNL     1       1.614  -1.079   7.887  0.00  0.00    +0.095 A 
ATOM     15  N   UNL     1       0.980  -0.119   7.135  0.00  0.00    -0.285 N 
ATOM     16  C   UNL     1       0.931  -0.510   5.822  0.00  0.00    +0.151 A 
ATOM     17  N   UNL     1       0.447   0.032   4.709  0.00  0.00    -0.196 NA
ATOM     18  C   UNL     1       0.462   1.077   7.635  0.00  0.00    +0.139 A 
ATOM     19  C   UNL     1       0.579   1.365   8.990  0.00  0.00    +0.047 A 
ATOM     20  C   UNL     1       0.062   2.555   9.472  0.00  0.00    +0.005 A 
ATOM     21  C   UNL     1      -0.557   3.419   8.578  0.00  0.00    +0.020 A 
ATOM     22  C   UNL     1      -0.637   3.068   7.245  0.00  0.00    +0.113 A 
ATOM     23  N   UNL     1      -0.130   1.929   6.813  0.00  0.00    -0.238 NA
ATOM     24  H   UNL     1      -0.326   0.894   2.459  0.00  0.00    +0.155 HD
ENDBRANCH   7   8
BRANCH   5  25
ATOM     25  C   UNL     1      -0.017  -4.274  -0.003  0.00  0.00    +0.090 A 
ATOM     26  C   UNL     1       0.081  -4.969  -1.223  0.00  0.00    +0.139 A 
ATOM     27  N   UNL     1       0.082  -6.280  -1.246  0.00  0.00    -0.251 NA
ATOM     28  C   UNL     1      -0.012  -6.967  -0.101  0.00  0.00    +0.089 A 
ATOM     29  C   UNL     1      -0.013  -8.372  -0.098  0.00  0.00    +0.030 A 
ATOM     30  C   UNL     1      -0.108  -9.045   1.081  0.00  0.00    +0.002 A 
ATOM     31  C   UNL     1      -0.206  -8.361   2.292  0.00  0.00    +0.002 A 
ATOM     32  C   UNL     1      -0.208  -7.001   2.329  0.00  0.00    +0.030 A 
ATOM     33  C   UNL     1      -0.111  -6.271   1.131  0.00  0.00    +0.090 A 
ATOM     34  N   UNL     1      -0.105  -4.934   1.139  0.00  0.00    -0.244 NA
ENDBRANCH   5  25
TORSDOF 2
