REMARK  Name = CHEMBL208042
REMARK  3 active torsions:
REMARK  status: ('A' for Active; 'I' for Inactive)
REMARK    1  A    between atoms: C_1  and  O_2
REMARK    2  A    between atoms: O_2  and  C_3
REMARK    3  A    between atoms: C_7  and  N_9
REMARK                            x       y       z     vdW  Elec       q    Type
REMARK                         _______ _______ _______ _____ _____    ______ ____
ROOT
ATOM      1  N   UNL     1       1.324  -3.998  -2.290  0.00  0.00    -0.283 N 
ATOM      2  C   UNL     1       1.847  -4.609  -3.419  0.00  0.00    +0.221 A 
ATOM      3  N   UNL     1       2.389  -3.851  -4.365  0.00  0.00    -0.222 NA
ATOM      4  C   UNL     1       2.901  -4.386  -5.460  0.00  0.00    +0.126 A 
ATOM      5  C   UNL     1       2.862  -5.772  -5.606  0.00  0.00    +0.037 A 
ATOM      6  C   UNL     1       3.306  -6.718  -6.632  0.00  0.00    +0.031 A 
ATOM      7  C   UNL     1       2.985  -7.945  -6.196  0.00  0.00    +0.095 A 
ATOM      8  N   UNL     1       2.370  -7.860  -4.970  0.00  0.00    -0.285 N 
ATOM      9  C   UNL     1       2.280  -6.548  -4.582  0.00  0.00    +0.151 A 
ATOM     10  N   UNL     1       1.793  -5.927  -3.512  0.00  0.00    -0.196 NA
ATOM     11  C   UNL     1       1.904  -8.948  -4.229  0.00  0.00    +0.139 A 
ATOM     12  C   UNL     1       2.058 -10.237  -4.727  0.00  0.00    +0.047 A 
ATOM     13  C   UNL     1       1.593 -11.306  -3.983  0.00  0.00    +0.005 A 
ATOM     14  C   UNL     1       0.987 -11.049  -2.761  0.00  0.00    +0.020 A 
ATOM     15  C   UNL     1       0.867  -9.743  -2.327  0.00  0.00    +0.113 A 
ATOM     16  N   UNL     1       1.326  -8.744  -3.056  0.00  0.00    -0.238 NA
ATOM     17  H   UNL     1       1.001  -4.537  -1.552  0.00  0.00    +0.155 HD
ENDROOT
BRANCH   1  22
ATOM     18  C   UNL     1       0.977  -0.473  -3.286  0.00  0.00    +0.122 A 
ATOM     19  C   UNL     1       1.144   0.161  -2.062  0.00  0.00    +0.046 A 
ATOM     20  C   UNL     1       1.370  -0.585  -0.921  0.00  0.00    +0.005 A 
ATOM     21  C   UNL     1       1.429  -1.963  -0.994  0.00  0.00    +0.023 A 
ATOM     22  C   UNL     1       1.263  -2.603  -2.216  0.00  0.00    +0.037 A 
ATOM     23  C   UNL     1       1.030  -1.855  -3.363  0.00  0.00    +0.069 A 
BRANCH  18  25
ATOM     24  C   UNL     1       0.712   1.682  -4.255  0.00  0.00    +0.277 C 
ATOM     25  O   UNL     1       0.755   0.262  -4.408  0.00  0.00    -0.495 OA
ENDBRANCH  18  25
ENDBRANCH   1  22
TORSDOF 2
