REMARK  Name = CHEMBL205316
REMARK  10 active torsions:
REMARK  status: ('A' for Active; 'I' for Inactive)
REMARK    1  A    between atoms: C_1  and  O_2
REMARK    2  A    between atoms: O_2  and  C_3
REMARK    3  A    between atoms: C_8  and  N_9
REMARK    4  A    between atoms: N_18  and  C_19
REMARK    5  A    between atoms: C_21  and  O_29
REMARK    6  A    between atoms: C_22  and  O_27
REMARK    7  A    between atoms: C_23  and  O_25
REMARK    8  A    between atoms: O_25  and  C_26
REMARK    9  A    between atoms: O_27  and  C_28
REMARK   10  A    between atoms: O_29  and  C_30
REMARK                            x       y       z     vdW  Elec       q    Type
REMARK                         _______ _______ _______ _____ _____    ______ ____
ROOT
ATOM      1  N   UNL     1       0.164  -2.467  -0.200  0.00  0.00    -0.296 N 
ATOM      2  C   UNL     1       0.516  -3.334  -1.205  0.00  0.00    +0.094 A 
ATOM      3  C   UNL     1       1.547  -4.098  -0.810  0.00  0.00    +0.031 A 
ATOM      4  C   UNL     1       1.881  -3.688   0.554  0.00  0.00    +0.037 A 
ATOM      5  C   UNL     1       0.981  -2.652   0.885  0.00  0.00    +0.150 A 
ATOM      6  N   UNL     1       1.071  -2.089   2.085  0.00  0.00    -0.196 NA
ATOM      7  C   UNL     1       1.990  -2.492   2.947  0.00  0.00    +0.221 A 
ATOM      8  N   UNL     1       2.854  -3.460   2.666  0.00  0.00    -0.222 NA
ATOM      9  C   UNL     1       2.829  -4.080   1.498  0.00  0.00    +0.126 A 
ATOM     10  N   UNL     1       2.054  -1.881   4.189  0.00  0.00    -0.283 N 
ATOM     11  H   UNL     1       1.382  -1.229   4.444  0.00  0.00    +0.155 HD
ENDROOT
BRANCH   1  17
ATOM     12  C   UNL     1      -0.595  -0.157  -0.239  0.00  0.00    +0.147 A 
ATOM     13  C   UNL     1      -1.659   0.735  -0.322  0.00  0.00    +0.067 A 
ATOM     14  C   UNL     1      -2.944   0.240  -0.431  0.00  0.00    +0.114 A 
ATOM     15  N   UNL     1      -3.171  -1.059  -0.456  0.00  0.00    -0.261 NA
ATOM     16  C   UNL     1      -2.192  -1.940  -0.380  0.00  0.00    +0.140 A 
ATOM     17  C   UNL     1      -0.874  -1.526  -0.275  0.00  0.00    +0.108 A 
BRANCH  12  19
ATOM     18  C   UNL     1       0.873   1.707  -0.102  0.00  0.00    +0.277 C 
ATOM     19  O   UNL     1       0.683   0.291  -0.131  0.00  0.00    -0.493 OA
ENDBRANCH  12  19
ENDBRANCH   1  17
BRANCH  10  20
ATOM     20  C   UNL     1       3.087  -2.204   5.077  0.00  0.00    +0.041 A 
ATOM     21  C   UNL     1       4.348  -2.518   4.588  0.00  0.00    +0.073 A 
ATOM     22  C   UNL     1       5.372  -2.838   5.465  0.00  0.00    +0.167 A 
ATOM     23  C   UNL     1       5.136  -2.845   6.835  0.00  0.00    +0.204 A 
ATOM     24  C   UNL     1       3.874  -2.530   7.324  0.00  0.00    +0.167 A 
ATOM     25  C   UNL     1       2.852  -2.205   6.445  0.00  0.00    +0.073 A 
BRANCH  24  26
ATOM     26  O   UNL     1       3.642  -2.536   8.664  0.00  0.00    -0.491 OA
ATOM     27  C   UNL     1       2.321  -2.203   9.095  0.00  0.00    +0.277 C 
ENDBRANCH  24  26
BRANCH  23  28
ATOM     28  O   UNL     1       6.142  -3.160   7.698  0.00  0.00    -0.488 OA
ATOM     29  C   UNL     1       6.952  -2.082   8.172  0.00  0.00    +0.277 C 
ENDBRANCH  23  28
BRANCH  22  30
ATOM     30  O   UNL     1       6.607  -3.147   4.986  0.00  0.00    -0.491 OA
ATOM     31  C   UNL     1       6.778  -3.121   3.568  0.00  0.00    +0.277 C 
ENDBRANCH  22  30
ENDBRANCH  10  20
TORSDOF 6
