REMARK  Name = CHEMBL382608
REMARK  8 active torsions:
REMARK  status: ('A' for Active; 'I' for Inactive)
REMARK    1  A    between atoms: C_1  and  O_2
REMARK    2  A    between atoms: O_2  and  C_3
REMARK    3  A    between atoms: C_5  and  N_13
REMARK    4  A    between atoms: C_7  and  O_11
REMARK    5  A    between atoms: C_8  and  O_9
REMARK    6  A    between atoms: O_9  and  C_10
REMARK    7  A    between atoms: O_11  and  C_12
REMARK    8  A    between atoms: C_18  and  N_20
REMARK                            x       y       z     vdW  Elec       q    Type
REMARK                         _______ _______ _______ _____ _____    ______ ____
ROOT
ATOM      1  N   UNL     1      -4.780   0.207   0.051  0.00  0.00    -0.283 N 
ATOM      2  C   UNL     1      -4.790   1.497  -0.456  0.00  0.00    +0.221 A 
ATOM      3  N   UNL     1      -3.698   1.972  -1.036  0.00  0.00    -0.221 NA
ATOM      4  C   UNL     1      -3.669   3.200  -1.532  0.00  0.00    +0.133 A 
ATOM      5  C   UNL     1      -4.798   3.992  -1.441  0.00  0.00    +0.076 A 
ATOM      6  C   UNL     1      -5.935   3.464  -0.824  0.00  0.00    +0.143 A 
ATOM      7  N   UNL     1      -5.894   2.222  -0.353  0.00  0.00    -0.198 NA
ATOM      8 BR   UNL     1      -4.804   5.751  -2.135  0.00  0.00    -0.045 Br
ATOM      9  H   UNL     1      -5.595  -0.181   0.406  0.00  0.00    +0.155 HD
ENDROOT
BRANCH   6  10
ATOM     10  N   UNL     1      -7.091   4.223  -0.710  0.00  0.00    -0.283 N 
ATOM     11  C   UNL     1      -8.180   3.728   0.001  0.00  0.00    +0.124 A 
ATOM     12  C   UNL     1      -9.294   4.536   0.206  0.00  0.00    +0.044 A 
ATOM     13  C   UNL     1     -10.370   4.032   0.914  0.00  0.00    +0.005 A 
ATOM     14  C   UNL     1     -10.296   2.731   1.395  0.00  0.00    +0.020 A 
ATOM     15  C   UNL     1      -9.159   1.985   1.155  0.00  0.00    +0.113 A 
ATOM     16  N   UNL     1      -8.150   2.491   0.471  0.00  0.00    -0.240 NA
ATOM     17  H   UNL     1      -7.139   5.098  -1.125  0.00  0.00    +0.155 HD
ENDBRANCH   6  10
BRANCH   1  20
ATOM     18  C   UNL     1      -1.198  -0.629   0.218  0.00  0.00    +0.167 A 
ATOM     19  C   UNL     1      -2.373   0.106   0.218  0.00  0.00    +0.073 A 
ATOM     20  C   UNL     1      -3.593  -0.535   0.050  0.00  0.00    +0.041 A 
ATOM     21  C   UNL     1      -3.637  -1.913  -0.118  0.00  0.00    +0.073 A 
ATOM     22  C   UNL     1      -2.462  -2.649  -0.118  0.00  0.00    +0.167 A 
ATOM     23  C   UNL     1      -1.240  -2.007   0.044  0.00  0.00    +0.204 A 
BRANCH  18  25
ATOM     24  C   UNL     1      -0.034   1.418   0.556  0.00  0.00    +0.277 C 
ATOM     25  O   UNL     1      -0.003  -0.001   0.382  0.00  0.00    -0.491 OA
ENDBRANCH  18  25
BRANCH  23  26
ATOM     26  O   UNL     1      -0.085  -2.729   0.038  0.00  0.00    -0.488 OA
ATOM     27  C   UNL     1       0.373  -3.229   1.296  0.00  0.00    +0.277 C 
ENDBRANCH  23  26
BRANCH  22  28
ATOM     28  O   UNL     1      -2.505  -3.998  -0.283  0.00  0.00    -0.491 OA
ATOM     29  C   UNL     1      -3.795  -4.590  -0.451  0.00  0.00    +0.277 C 
ENDBRANCH  22  28
ENDBRANCH   1  20
TORSDOF 5
