REMARK  Name = CHEMBL482968
REMARK  6 active torsions:
REMARK  status: ('A' for Active; 'I' for Inactive)
REMARK    1  A    between atoms: C_1  and  C_2
REMARK    2  A    between atoms: C_4  and  N_8
REMARK    3  A    between atoms: C_11  and  N_23
REMARK    4  A    between atoms: C_13  and  C_15
REMARK    5  A    between atoms: C_16  and  C_17
REMARK    6  A    between atoms: N_26  and  C_29
REMARK                            x       y       z     vdW  Elec       q    Type
REMARK                         _______ _______ _______ _____ _____    ______ ____
ROOT
ATOM      1  N   UNL     1       0.038  -3.236   1.527  0.00  0.00    -0.285 N 
ATOM      2  C   UNL     1      -0.050  -3.116   2.906  0.00  0.00    +0.130 A 
ATOM      3  C   UNL     1      -0.183  -1.863   3.498  0.00  0.00    +0.087 A 
ATOM      4  C   UNL     1      -0.268  -1.789   4.887  0.00  0.00    +0.127 A 
ATOM      5  N   UNL     1      -0.221  -2.911   5.599  0.00  0.00    -0.213 NA
ATOM      6  C   UNL     1      -0.093  -4.091   5.001  0.00  0.00    +0.157 A 
ATOM      7  N   UNL     1      -0.014  -4.197   3.679  0.00  0.00    -0.213 NA
ATOM      8  H   UNL     1       0.084  -2.441   0.973  0.00  0.00    +0.155 HD
ENDROOT
BRANCH   4   9
ATOM      9  N   UNL     1      -0.401  -0.562   5.518  0.00  0.00    -0.319 N 
ATOM     10  C   UNL     1      -0.276  -0.445   6.979  0.00  0.00    +0.088 C 
ATOM     11  C   UNL     1       0.716   0.679   7.293  0.00  0.00    -0.060 C 
ATOM     12  N   UNL     1       0.286   1.912   6.622  0.00  0.00    +0.380 N 
ATOM     13  C   UNL     1       0.340   1.733   5.165  0.00  0.00    -0.060 C 
ATOM     14  C   UNL     1      -0.665   0.662   4.745  0.00  0.00    +0.088 C 
ATOM     15  C   UNL     1       1.175   3.015   7.011  0.00  0.00    -0.096 C 
ATOM     16  H   UNL     1      -0.659   2.131   6.898  0.00  0.00    -0.082 HD
ENDBRANCH   4   9
BRANCH   1  20
ATOM     17  C   UNL     1       0.196  -8.185   0.909  0.00  0.00    +0.067 C 
ATOM     18  C   UNL     1       0.129  -6.706   0.629  0.00  0.00    +0.062 A 
ATOM     19  C   UNL     1       0.132  -5.691   1.589  0.00  0.00    +0.068 A 
ATOM     20  C   UNL     1       0.061  -4.498   0.937  0.00  0.00    +0.120 A 
ATOM     21  N   UNL     1       0.015  -4.764  -0.394  0.00  0.00    -0.264 N 
ATOM     22  N   UNL     1       0.065  -6.154  -0.556  0.00  0.00    -0.178 NA
ATOM     23  H   UNL     1      -0.039  -4.107  -1.106  0.00  0.00    +0.190 HD
ENDBRANCH   1  20
BRANCH   6  24
ATOM     24  C   UNL     1      -0.044  -5.311   5.824  0.00  0.00    +0.049 C 
ATOM     25  C   UNL     1      -0.026  -6.518   5.236  0.00  0.00    +0.011 C 
BRANCH  25  26
ATOM     26  C   UNL     1      -0.095  -7.740   6.057  0.00  0.00    -0.025 A 
ATOM     27  C   UNL     1      -0.184  -7.646   7.449  0.00  0.00    +0.008 A 
ATOM     28  C   UNL     1      -0.248  -8.794   8.211  0.00  0.00    +0.001 A 
ATOM     29  C   UNL     1      -0.224 -10.036   7.601  0.00  0.00    +0.000 A 
ATOM     30  C   UNL     1      -0.135 -10.136   6.223  0.00  0.00    +0.001 A 
ATOM     31  C   UNL     1      -0.077  -8.997   5.448  0.00  0.00    +0.008 A 
ENDBRANCH  25  26
ENDBRANCH   6  24
TORSDOF 4
