REMARK  Name = CHEMBL377957
REMARK  4 active torsions:
REMARK  status: ('A' for Active; 'I' for Inactive)
REMARK    1  A    between atoms: C_1  and  C_2
REMARK    2  A    between atoms: C_5  and  O_24
REMARK    3  A    between atoms: C_7  and  N_8
REMARK    4  A    between atoms: O_24  and  C_25
REMARK                            x       y       z     vdW  Elec       q    Type
REMARK                         _______ _______ _______ _____ _____    ______ ____
ROOT
ATOM      1  N   UNL     1       0.025  -0.013   2.416  0.00  0.00    -0.283 N 
ATOM      2  C   UNL     1      -0.059  -0.711   3.611  0.00  0.00    +0.221 A 
ATOM      3  N   UNL     1      -0.033  -2.038   3.580  0.00  0.00    -0.222 NA
ATOM      4  C   UNL     1      -0.110  -2.748   4.692  0.00  0.00    +0.126 A 
ATOM      5  C   UNL     1      -0.219  -2.075   5.908  0.00  0.00    +0.037 A 
ATOM      6  C   UNL     1      -0.325  -2.481   7.311  0.00  0.00    +0.031 A 
ATOM      7  C   UNL     1      -0.403  -1.356   8.038  0.00  0.00    +0.095 A 
ATOM      8  N   UNL     1      -0.355  -0.260   7.210  0.00  0.00    -0.285 N 
ATOM      9  C   UNL     1      -0.243  -0.664   5.905  0.00  0.00    +0.151 A 
ATOM     10  N   UNL     1      -0.156  -0.030   4.741  0.00  0.00    -0.196 NA
ATOM     11  C   UNL     1      -0.413   1.069   7.636  0.00  0.00    +0.139 A 
ATOM     12  C   UNL     1      -0.521   1.353   8.992  0.00  0.00    +0.047 A 
ATOM     13  C   UNL     1      -0.576   2.674   9.400  0.00  0.00    +0.005 A 
ATOM     14  C   UNL     1      -0.522   3.669   8.433  0.00  0.00    +0.020 A 
ATOM     15  C   UNL     1      -0.414   3.313   7.103  0.00  0.00    +0.113 A 
ATOM     16  N   UNL     1      -0.359   2.045   6.744  0.00  0.00    -0.238 NA
ATOM     17  H   UNL     1       0.099   0.954   2.423  0.00  0.00    +0.155 HD
ENDROOT
BRANCH   1  24
ATOM     18  C   UNL     1       1.233   1.217   0.154  0.00  0.00    +0.045 C 
ATOM     19  C   UNL     1       0.582  -0.140   0.070  0.00  0.00    -0.029 A 
ATOM     20  C   UNL     1       0.566  -0.825  -1.129  0.00  0.00    +0.009 A 
ATOM     21  C   UNL     1      -0.030  -2.069  -1.210  0.00  0.00    +0.046 A 
ATOM     22  C   UNL     1      -0.615  -2.635  -0.085  0.00  0.00    +0.122 A 
ATOM     23  C   UNL     1      -0.600  -1.951   1.121  0.00  0.00    +0.069 A 
ATOM     24  C   UNL     1       0.004  -0.703   1.201  0.00  0.00    +0.040 A 
BRANCH  22  25
ATOM     25  O   UNL     1      -1.201  -3.858  -0.165  0.00  0.00    -0.495 OA
ATOM     26  C   UNL     1      -1.179  -4.505  -1.439  0.00  0.00    +0.277 C 
ENDBRANCH  22  25
ENDBRANCH   1  24
TORSDOF 2
