REMARK  Name = CHEMBL455680
REMARK  8 active torsions:
REMARK  status: ('A' for Active; 'I' for Inactive)
REMARK    1  A    between atoms: C_1  and  C_2
REMARK    2  A    between atoms: C_13  and  N_15
REMARK    3  A    between atoms: C_19  and  C_33
REMARK    4  A    between atoms: C_20  and  N_22
REMARK    5  A    between atoms: N_22  and  C_23
REMARK    6  A    between atoms: C_28  and  N_30
REMARK    7  A    between atoms: N_30  and  C_31
REMARK    8  A    between atoms: N_30  and  C_32
REMARK                            x       y       z     vdW  Elec       q    Type
REMARK                         _______ _______ _______ _____ _____    ______ ____
ROOT
ATOM      1  N   UNL     1      -3.931  -3.977   4.048  0.00  0.00    -0.284 N 
ATOM      2  C   UNL     1      -4.831  -3.713   5.067  0.00  0.00    +0.221 A 
ATOM      3  N   UNL     1      -5.505  -2.573   5.054  0.00  0.00    -0.222 NA
ATOM      4  C   UNL     1      -6.375  -2.285   6.011  0.00  0.00    +0.130 A 
ATOM      5  C   UNL     1      -6.578  -3.190   7.035  0.00  0.00    +0.113 A 
ATOM      6  C   UNL     1      -5.853  -4.384   7.022  0.00  0.00    +0.136 A 
ATOM      7  N   UNL     1      -5.001  -4.610   6.027  0.00  0.00    -0.199 NA
ATOM      8  H   UNL     1      -3.494  -4.842   3.999  0.00  0.00    +0.155 HD
ENDROOT
BRANCH   1  21
ATOM      9  C   UNL     1      -5.002   2.126  -0.773  0.00  0.00    +0.109 C 
ATOM     10  C   UNL     1      -4.731   2.006   0.705  0.00  0.00    +0.213 C 
ATOM     11  O   UNL     1      -5.366   2.674   1.494  0.00  0.00    -0.276 OA
ATOM     12  N   UNL     1      -3.783   1.158   1.149  0.00  0.00    -0.288 N 
ATOM     13  C   UNL     1      -2.849   0.225   0.423  0.00  0.00    +0.107 C 
ATOM     14  C   UNL     1      -1.470   0.738   0.942  0.00  0.00    +0.029 C 
ATOM     15  C   UNL     1      -1.783   1.153   2.403  0.00  0.00    +0.029 C 
ATOM     16  C   UNL     1      -3.299   0.830   2.538  0.00  0.00    +0.107 C 
ATOM     17  C   UNL     1      -3.381  -0.694   2.507  0.00  0.00    -0.020 A 
ATOM     18  C   UNL     1      -3.101  -1.071   1.190  0.00  0.00    -0.022 A 
ATOM     19  C   UNL     1      -3.095  -2.398   0.832  0.00  0.00    +0.007 A 
ATOM     20  C   UNL     1      -3.370  -3.366   1.781  0.00  0.00    +0.023 A 
ATOM     21  C   UNL     1      -3.652  -2.998   3.090  0.00  0.00    +0.034 A 
ATOM     22  C   UNL     1      -3.655  -1.644   3.459  0.00  0.00    +0.029 A 
ENDBRANCH   1  21
BRANCH   5  23
ATOM     23  C   UNL     1      -7.559  -2.896   8.140  0.00  0.00    +0.422 C 
ATOM     24  F   UNL     1      -8.147  -1.646   7.921  0.00  0.00    -0.166 F 
ATOM     25  F   UNL     1      -8.551  -3.882   8.158  0.00  0.00    -0.166 F 
ATOM     26  F   UNL     1      -6.888  -2.887   9.368  0.00  0.00    -0.166 F 
ENDBRANCH   5  23
BRANCH   6  27
ATOM     27  N   UNL     1      -6.024  -5.321   8.027  0.00  0.00    -0.327 N 
ATOM     28  H   UNL     1      -6.651  -5.150   8.748  0.00  0.00    +0.148 HD
BRANCH  27  29
ATOM     29  C   UNL     1      -5.259  -6.569   8.003  0.00  0.00    +0.058 C 
ATOM     30  C   UNL     1      -6.013  -7.661   7.204  0.00  0.00    +0.020 C 
ATOM     31  C   UNL     1      -5.455  -8.988   7.757  0.00  0.00    +0.000 C 
ATOM     32  C   UNL     1      -4.918  -8.686   9.167  0.00  0.00    -0.013 C 
ATOM     33  C   UNL     1      -5.164  -7.183   9.422  0.00  0.00    -0.049 C 
BRANCH  33  34
ATOM     34  N   UNL     1      -4.042  -6.593  10.164  0.00  0.00    +0.379 N 
ATOM     35  C   UNL     1      -4.242  -5.142  10.283  0.00  0.00    -0.096 C 
ATOM     36  C   UNL     1      -3.972  -7.189  11.504  0.00  0.00    -0.096 C 
ATOM     37  H   UNL     1      -3.180  -6.774   9.670  0.00  0.00    -0.082 HD
ENDBRANCH  33  34
ENDBRANCH  27  29
ENDBRANCH   6  27
TORSDOF 5
