REMARK  Name = CHEMBL378661
REMARK  11 active torsions:
REMARK  status: ('A' for Active; 'I' for Inactive)
REMARK    1  A    between atoms: C_1  and  C_2
REMARK    2  A    between atoms: C_2  and  N_3
REMARK    3  A    between atoms: C_4  and  C_6
REMARK    4  A    between atoms: C_10  and  N_12
REMARK    5  A    between atoms: N_21  and  C_22
REMARK    6  A    between atoms: C_24  and  O_32
REMARK    7  A    between atoms: C_25  and  O_30
REMARK    8  A    between atoms: C_26  and  O_28
REMARK    9  A    between atoms: O_28  and  C_29
REMARK   10  A    between atoms: O_30  and  C_31
REMARK   11  A    between atoms: O_32  and  C_33
REMARK                            x       y       z     vdW  Elec       q    Type
REMARK                         _______ _______ _______ _____ _____    ______ ____
ROOT
ATOM      1  N   UNL     1       2.013  -5.565  -4.119  0.00  0.00    -0.301 N 
ATOM      2  C   UNL     1       2.547  -6.465  -3.229  0.00  0.00    +0.094 A 
ATOM      3  C   UNL     1       2.772  -7.637  -3.843  0.00  0.00    +0.031 A 
ATOM      4  C   UNL     1       2.349  -7.475  -5.235  0.00  0.00    +0.037 A 
ATOM      5  C   UNL     1       1.874  -6.151  -5.350  0.00  0.00    +0.150 A 
ATOM      6  N   UNL     1       1.418  -5.739  -6.528  0.00  0.00    -0.196 NA
ATOM      7  C   UNL     1       1.408  -6.557  -7.567  0.00  0.00    +0.221 A 
ATOM      8  N   UNL     1       1.844  -7.809  -7.491  0.00  0.00    -0.222 NA
ATOM      9  C   UNL     1       2.323  -8.298  -6.360  0.00  0.00    +0.126 A 
ATOM     10  N   UNL     1       0.924  -6.091  -8.779  0.00  0.00    -0.283 N 
ATOM     11  H   UNL     1       0.676  -5.158  -8.876  0.00  0.00    +0.155 HD
ENDROOT
BRANCH   1  16
ATOM     12  C   UNL     1       0.519  -2.664  -2.402  0.00  0.00    +0.039 A 
ATOM     13  C   UNL     1       0.964  -1.623  -3.219  0.00  0.00    +0.013 A 
ATOM     14  C   UNL     1       1.748  -1.898  -4.321  0.00  0.00    +0.003 A 
ATOM     15  C   UNL     1       2.095  -3.202  -4.619  0.00  0.00    +0.026 A 
ATOM     16  C   UNL     1       1.658  -4.245  -3.812  0.00  0.00    +0.049 A 
ATOM     17  C   UNL     1       0.874  -3.979  -2.700  0.00  0.00    +0.039 A 
BRANCH  12  19
ATOM     18  N   UNL     1      -0.663  -1.100  -0.934  0.00  0.00    -0.312 N 
ATOM     19  C   UNL     1      -0.321  -2.372  -1.220  0.00  0.00    +0.244 C 
ATOM     20  O   UNL     1      -0.703  -3.279  -0.507  0.00  0.00    -0.270 OA
ATOM     21  H   UNL     1      -0.359  -0.376  -1.503  0.00  0.00    +0.149 HD
BRANCH  18  23
ATOM     22  C   UNL     1      -1.735   0.697   0.332  0.00  0.00    +0.024 C 
ATOM     23  C   UNL     1      -1.496  -0.811   0.236  0.00  0.00    +0.101 C 
ENDBRANCH  18  23
ENDBRANCH  12  19
ENDBRANCH   1  16
BRANCH  10  24
ATOM     24  C   UNL     1       0.792  -6.966  -9.864  0.00  0.00    +0.041 A 
ATOM     25  C   UNL     1       0.452  -8.295  -9.646  0.00  0.00    +0.073 A 
ATOM     26  C   UNL     1       0.322  -9.162 -10.719  0.00  0.00    +0.167 A 
ATOM     27  C   UNL     1       0.531  -8.702 -12.013  0.00  0.00    +0.204 A 
ATOM     28  C   UNL     1       0.872  -7.372 -12.231  0.00  0.00    +0.167 A 
ATOM     29  C   UNL     1       0.996  -6.505 -11.157  0.00  0.00    +0.073 A 
BRANCH  28  30
ATOM     30  O   UNL     1       1.077  -6.921 -13.497  0.00  0.00    -0.491 OA
ATOM     31  C   UNL     1       1.424  -5.543 -13.646  0.00  0.00    +0.277 C 
ENDBRANCH  28  30
BRANCH  27  32
ATOM     32  O   UNL     1       0.404  -9.554 -13.068  0.00  0.00    -0.488 OA
ATOM     33  C   UNL     1      -0.891  -9.660 -13.664  0.00  0.00    +0.277 C 
ENDBRANCH  27  32
BRANCH  26  34
ATOM     34  O   UNL     1      -0.011 -10.463 -10.505  0.00  0.00    -0.491 OA
ATOM     35  C   UNL     1      -0.211 -10.868  -9.149  0.00  0.00    +0.277 C 
ENDBRANCH  26  34
ENDBRANCH  10  24
TORSDOF 7
