REMARK  Name = CHEMBL207126
REMARK  12 active torsions:
REMARK  status: ('A' for Active; 'I' for Inactive)
REMARK    1  A    between atoms: C_1  and  N_2
REMARK    2  A    between atoms: C_3  and  C_5
REMARK    3  A    between atoms: C_5  and  C_6
REMARK    4  A    between atoms: C_6  and  C_7
REMARK    5  A    between atoms: C_11  and  N_13
REMARK    6  A    between atoms: N_22  and  C_23
REMARK    7  A    between atoms: C_25  and  O_33
REMARK    8  A    between atoms: C_26  and  O_31
REMARK    9  A    between atoms: C_27  and  O_29
REMARK   10  A    between atoms: O_29  and  C_30
REMARK   11  A    between atoms: O_31  and  C_32
REMARK   12  A    between atoms: O_33  and  C_34
REMARK                            x       y       z     vdW  Elec       q    Type
REMARK                         _______ _______ _______ _____ _____    ______ ____
ROOT
ATOM      1  N   UNL     1       3.838  -6.652   1.165  0.00  0.00    -0.301 N 
ATOM      2  C   UNL     1       4.263  -6.443  -0.124  0.00  0.00    +0.094 A 
ATOM      3  C   UNL     1       5.116  -7.414  -0.487  0.00  0.00    +0.031 A 
ATOM      4  C   UNL     1       5.247  -8.315   0.659  0.00  0.00    +0.037 A 
ATOM      5  C   UNL     1       4.423  -7.782   1.674  0.00  0.00    +0.150 A 
ATOM      6  N   UNL     1       4.362  -8.414   2.841  0.00  0.00    -0.196 NA
ATOM      7  C   UNL     1       5.062  -9.517   3.044  0.00  0.00    +0.221 A 
ATOM      8  N   UNL     1       5.848 -10.043   2.111  0.00  0.00    -0.222 NA
ATOM      9  C   UNL     1       5.962  -9.483   0.919  0.00  0.00    +0.126 A 
ATOM     10  N   UNL     1       4.973 -10.148   4.274  0.00  0.00    -0.283 N 
ATOM     11  H   UNL     1       4.344  -9.827   4.940  0.00  0.00    +0.155 HD
ENDROOT
BRANCH   1  16
ATOM     12  C   UNL     1       2.265  -3.644   2.583  0.00  0.00    -0.045 A 
ATOM     13  C   UNL     1       1.177  -4.199   3.233  0.00  0.00    +0.004 A 
ATOM     14  C   UNL     1       0.971  -5.566   3.198  0.00  0.00    +0.002 A 
ATOM     15  C   UNL     1       1.851  -6.381   2.514  0.00  0.00    +0.026 A 
ATOM     16  C   UNL     1       2.944  -5.827   1.860  0.00  0.00    +0.048 A 
ATOM     17  C   UNL     1       3.145  -4.454   1.893  0.00  0.00    +0.029 A 
BRANCH  12  18
ATOM     18  C   UNL     1       2.486  -2.154   2.624  0.00  0.00    +0.044 C 
BRANCH  18  19
ATOM     19  C   UNL     1       1.763  -1.499   1.445  0.00  0.00    +0.100 C 
BRANCH  19  22
ATOM     20  C   UNL     1       1.652   2.228   0.578  0.00  0.00    +0.128 C 
ATOM     21  N   UNL     1       1.437   0.779   0.539  0.00  0.00    -0.318 N 
ATOM     22  C   UNL     1       1.984  -0.009   1.486  0.00  0.00    +0.213 C 
ATOM     23  O   UNL     1       2.653   0.481   2.370  0.00  0.00    -0.276 OA
ATOM     24  H   UNL     1       0.902   0.387  -0.169  0.00  0.00    +0.148 HD
ENDBRANCH  19  22
ENDBRANCH  18  19
ENDBRANCH  12  18
ENDBRANCH   1  16
BRANCH  10  25
ATOM     25  C   UNL     1       5.790 -11.249   4.558  0.00  0.00    +0.041 A 
ATOM     26  C   UNL     1       7.074 -11.313   4.034  0.00  0.00    +0.073 A 
ATOM     27  C   UNL     1       7.884 -12.403   4.314  0.00  0.00    +0.167 A 
ATOM     28  C   UNL     1       7.410 -13.431   5.119  0.00  0.00    +0.204 A 
ATOM     29  C   UNL     1       6.124 -13.367   5.643  0.00  0.00    +0.167 A 
ATOM     30  C   UNL     1       5.318 -12.274   5.367  0.00  0.00    +0.073 A 
BRANCH  29  31
ATOM     31  O   UNL     1       5.659 -14.373   6.431  0.00  0.00    -0.491 OA
ATOM     32  C   UNL     1       4.328 -14.241   6.934  0.00  0.00    +0.277 C 
ENDBRANCH  29  31
BRANCH  28  33
ATOM     33  O   UNL     1       8.204 -14.503   5.395  0.00  0.00    -0.488 OA
ATOM     34  C   UNL     1       9.033 -14.414   6.556  0.00  0.00    +0.277 C 
ENDBRANCH  28  33
BRANCH  27  35
ATOM     35  O   UNL     1       9.142 -12.465   3.801  0.00  0.00    -0.491 OA
ATOM     36  C   UNL     1       9.563 -11.373   2.982  0.00  0.00    +0.277 C 
ENDBRANCH  27  35
ENDBRANCH  10  25
TORSDOF 8
