REMARK  Name = CHEMBL382809
REMARK  1 active torsions:
REMARK  status: ('A' for Active; 'I' for Inactive)
REMARK    1  A    between atoms: N_16  and  C_17
REMARK                            x       y       z     vdW  Elec       q    Type
REMARK                         _______ _______ _______ _____ _____    ______ ____
ROOT
ATOM      1  C   UNL     1      -0.002   1.284  -1.092  0.00  0.00    +0.005 A 
ATOM      2  C   UNL     1       1.210   1.957  -1.170  0.00  0.00    +0.020 A 
ATOM      3  C   UNL     1       2.386   1.253  -1.000  0.00  0.00    +0.113 A 
ATOM      4  N   UNL     1       2.369  -0.046  -0.767  0.00  0.00    -0.238 NA
ATOM      5  C   UNL     1       1.234  -0.722  -0.686  0.00  0.00    +0.139 A 
ATOM      6  C   UNL     1       0.013  -0.077  -0.846  0.00  0.00    +0.047 A 
ATOM      7  N   UNL     1       1.264  -2.095  -0.437  0.00  0.00    -0.285 N 
ATOM      8  C   UNL     1       0.157  -2.903  -0.337  0.00  0.00    +0.095 A 
ATOM      9  C   UNL     1       0.534  -4.168  -0.093  0.00  0.00    +0.031 A 
ATOM     10  C   UNL     1       1.997  -4.171  -0.033  0.00  0.00    +0.037 A 
ATOM     11  C   UNL     1       2.403  -2.839  -0.262  0.00  0.00    +0.151 A 
ATOM     12  N   UNL     1       3.702  -2.561  -0.265  0.00  0.00    -0.196 NA
ATOM     13  C   UNL     1       4.593  -3.518  -0.060  0.00  0.00    +0.221 A 
ATOM     14  N   UNL     1       4.244  -4.780   0.155  0.00  0.00    -0.222 NA
ATOM     15  C   UNL     1       2.973  -5.143   0.183  0.00  0.00    +0.126 A 
ATOM     16  N   UNL     1       5.940  -3.189  -0.071  0.00  0.00    -0.283 N 
ATOM     17  H   UNL     1       6.212  -2.261  -0.141  0.00  0.00    +0.155 HD
ENDROOT
BRANCH  16  18
ATOM     18  C   UNL     1       6.905  -4.196   0.021  0.00  0.00    +0.037 A 
ATOM     19  C   UNL     1       6.677  -5.426  -0.576  0.00  0.00    +0.023 A 
ATOM     20  C   UNL     1       7.632  -6.420  -0.484  0.00  0.00    +0.002 A 
ATOM     21  C   UNL     1       8.805  -6.183   0.204  0.00  0.00    +0.004 A 
ATOM     22  C   UNL     1       9.039  -4.952   0.805  0.00  0.00    -0.042 A 
ATOM     23  C   UNL     1       8.096  -3.955   0.707  0.00  0.00    -0.023 A 
ATOM     24  C   UNL     1       8.292  -2.591   1.315  0.00  0.00    +0.037 C 
ATOM     25  C   UNL     1       9.401  -2.624   2.364  0.00  0.00    +0.005 C 
ATOM     26  C   UNL     1      10.638  -3.280   1.740  0.00  0.00    +0.005 C 
ATOM     27  C   UNL     1      10.338  -4.769   1.545  0.00  0.00    +0.035 C 
ENDBRANCH  16  18
TORSDOF 1
