REMARK  Name = CHEMBL470316
REMARK  3 active torsions:
REMARK  status: ('A' for Active; 'I' for Inactive)
REMARK    1  A    between atoms: C_5  and  C_7
REMARK    2  A    between atoms: C_7  and  N_8
REMARK    3  A    between atoms: N_15  and  C_16
REMARK                            x       y       z     vdW  Elec       q    Type
REMARK                         _______ _______ _______ _____ _____    ______ ____
ROOT
ATOM      1  N   UNL     1       1.687  -2.660  -1.405  0.00  0.00    -0.322 N 
ATOM      2  C   UNL     1       1.748  -4.023  -1.648  0.00  0.00    +0.138 A 
ATOM      3  C   UNL     1       2.054  -4.503  -2.924  0.00  0.00    +0.076 A 
ATOM      4  C   UNL     1       2.103  -5.870  -3.120  0.00  0.00    +0.133 A 
ATOM      5  N   UNL     1       1.862  -6.679  -2.099  0.00  0.00    -0.221 NA
ATOM      6  C   UNL     1       1.575  -6.197  -0.899  0.00  0.00    +0.221 A 
ATOM      7  N   UNL     1       1.523  -4.893  -0.669  0.00  0.00    -0.198 NA
ATOM      8  N   UNL     1       1.329  -7.077   0.142  0.00  0.00    -0.284 N 
ATOM      9 BR   UNL     1       2.390  -3.309  -4.352  0.00  0.00    -0.045 Br
ATOM     10  H   UNL     1       1.853  -2.031  -2.125  0.00  0.00    +0.148 HD
ATOM     11  H   UNL     1       1.197  -6.739   1.041  0.00  0.00    +0.155 HD
ENDROOT
BRANCH   8  12
ATOM     12  C   UNL     1       1.270  -8.453  -0.105  0.00  0.00    +0.034 A 
ATOM     13  C   UNL     1       1.706  -9.354   0.859  0.00  0.00    +0.025 A 
ATOM     14  C   UNL     1       1.649 -10.711   0.620  0.00  0.00    +0.025 A 
ATOM     15  C   UNL     1       1.155 -11.189  -0.593  0.00  0.00    +0.037 A 
ATOM     16  C   UNL     1       0.722 -10.281  -1.551  0.00  0.00    -0.016 A 
ATOM     17  C   UNL     1       0.771  -8.926  -1.313  0.00  0.00    +0.029 A 
ATOM     18  C   UNL     1       0.253 -11.099  -2.732  0.00  0.00    +0.133 C 
ATOM     19  C   UNL     1       0.481 -12.532  -2.301  0.00  0.00    +0.222 C 
ATOM     20  O   UNL     1       0.241 -13.527  -2.953  0.00  0.00    -0.275 OA
ATOM     21  N   UNL     1       1.001 -12.496  -1.063  0.00  0.00    -0.285 N 
ATOM     22  H   UNL     1       1.241 -13.286  -0.554  0.00  0.00    +0.155 HD
ENDBRANCH   8  12
BRANCH   1  23
ATOM     23  C   UNL     1       1.373  -2.169  -0.061  0.00  0.00    +0.158 C 
BRANCH  23  28
ATOM     24  C   UNL     1       0.185   1.404  -0.241  0.00  0.00    +0.003 A 
ATOM     25  C   UNL     1       1.396   2.058  -0.070  0.00  0.00    +0.020 A 
ATOM     26  C   UNL     1       2.546   1.311   0.097  0.00  0.00    +0.111 A 
ATOM     27  N   UNL     1       2.502  -0.007   0.095  0.00  0.00    -0.258 NA
ATOM     28  C   UNL     1       1.369  -0.662  -0.066  0.00  0.00    +0.058 A 
ATOM     29  C   UNL     1       0.177   0.018  -0.238  0.00  0.00    +0.025 A 
ENDBRANCH  23  28
ENDBRANCH   1  23
TORSDOF 3
