REMARK  Name = CHEMBL205942
REMARK  2 active torsions:
REMARK  status: ('A' for Active; 'I' for Inactive)
REMARK    1  A    between atoms: C_1  and  C_2
REMARK    2  A    between atoms: C_6  and  N_8
REMARK                            x       y       z     vdW  Elec       q    Type
REMARK                         _______ _______ _______ _____ _____    ______ ____
ROOT
ATOM      1  N   UNL     1       0.052  -2.797   2.391  0.00  0.00    -0.284 N 
ATOM      2  C   UNL     1      -0.033  -4.181   2.384  0.00  0.00    +0.221 A 
ATOM      3  N   UNL     1      -0.023  -4.816   1.218  0.00  0.00    -0.222 NA
ATOM      4  C   UNL     1      -0.102  -6.134   1.157  0.00  0.00    +0.126 A 
ATOM      5  C   UNL     1      -0.197  -6.852   2.349  0.00  0.00    +0.037 A 
ATOM      6  C   UNL     1      -0.300  -8.270   2.698  0.00  0.00    +0.031 A 
ATOM      7  C   UNL     1      -0.362  -8.339   4.036  0.00  0.00    +0.095 A 
ATOM      8  N   UNL     1      -0.306  -7.075   4.573  0.00  0.00    -0.285 N 
ATOM      9  C   UNL     1      -0.206  -6.146   3.570  0.00  0.00    +0.151 A 
ATOM     10  N   UNL     1      -0.117  -4.820   3.538  0.00  0.00    -0.196 NA
ATOM     11  C   UNL     1      -0.347  -6.781   5.937  0.00  0.00    +0.139 A 
ATOM     12  C   UNL     1      -0.445  -7.814   6.862  0.00  0.00    +0.047 A 
ATOM     13  C   UNL     1      -0.484  -7.509   8.211  0.00  0.00    +0.005 A 
ATOM     14  C   UNL     1      -0.423  -6.175   8.590  0.00  0.00    +0.020 A 
ATOM     15  C   UNL     1      -0.327  -5.199   7.617  0.00  0.00    +0.113 A 
ATOM     16  N   UNL     1      -0.286  -5.521   6.338  0.00  0.00    -0.238 NA
ATOM     17  H   UNL     1       0.131  -2.321   3.232  0.00  0.00    +0.155 HD
ENDROOT
BRANCH   1  23
ATOM     18  C   UNL     1       1.529   1.050  -0.288  0.00  0.00    +0.044 C 
ATOM     19  C   UNL     1       0.732  -0.220  -0.140  0.00  0.00    -0.049 A 
ATOM     20  C   UNL     1      -0.028  -0.686  -1.198  0.00  0.00    +0.003 A 
ATOM     21  C   UNL     1      -0.760  -1.851  -1.067  0.00  0.00    +0.002 A 
ATOM     22  C   UNL     1      -0.736  -2.554   0.122  0.00  0.00    +0.023 A 
ATOM     23  C   UNL     1       0.026  -2.089   1.187  0.00  0.00    +0.034 A 
ATOM     24  C   UNL     1       0.764  -0.920   1.049  0.00  0.00    +0.026 A 
ENDBRANCH   1  23
TORSDOF 1
