REMARK  Name = CHEMBL206322
REMARK  3 active torsions:
REMARK  status: ('A' for Active; 'I' for Inactive)
REMARK    1  A    between atoms: C_1  and  O_2
REMARK    2  A    between atoms: O_2  and  C_3
REMARK    3  A    between atoms: C_8  and  N_9
REMARK                            x       y       z     vdW  Elec       q    Type
REMARK                         _______ _______ _______ _____ _____    ______ ____
ROOT
ATOM      1  N   UNL     1      -0.075  -2.780  -0.012  0.00  0.00    -0.281 N 
ATOM      2  C   UNL     1      -0.129  -4.162   0.086  0.00  0.00    +0.221 A 
ATOM      3  N   UNL     1      -1.316  -4.756   0.086  0.00  0.00    -0.222 NA
ATOM      4  C   UNL     1      -1.421  -6.071   0.177  0.00  0.00    +0.126 A 
ATOM      5  C   UNL     1      -0.255  -6.829   0.273  0.00  0.00    +0.037 A 
ATOM      6  C   UNL     1       0.046  -8.257   0.386  0.00  0.00    +0.031 A 
ATOM      7  C   UNL     1       1.381  -8.371   0.443  0.00  0.00    +0.095 A 
ATOM      8  N   UNL     1       1.960  -7.127   0.374  0.00  0.00    -0.285 N 
ATOM      9  C   UNL     1       0.990  -6.164   0.270  0.00  0.00    +0.151 A 
ATOM     10  N   UNL     1       1.003  -4.839   0.170  0.00  0.00    -0.196 NA
ATOM     11  C   UNL     1       3.334  -6.880   0.406  0.00  0.00    +0.139 A 
ATOM     12  C   UNL     1       4.223  -7.943   0.509  0.00  0.00    +0.047 A 
ATOM     13  C   UNL     1       5.582  -7.684   0.540  0.00  0.00    +0.005 A 
ATOM     14  C   UNL     1       6.006  -6.364   0.467  0.00  0.00    +0.020 A 
ATOM     15  C   UNL     1       5.067  -5.357   0.366  0.00  0.00    +0.113 A 
ATOM     16  N   UNL     1       3.778  -5.635   0.333  0.00  0.00    -0.238 NA
ATOM     17  H   UNL     1       0.782  -2.334  -0.104  0.00  0.00    +0.155 HD
ENDROOT
BRANCH   1  23
ATOM     18  C   UNL     1      -1.298  -0.767  -0.567  0.00  0.00    +0.141 A 
ATOM     19  C   UNL     1      -2.471  -0.030  -0.535  0.00  0.00    +0.047 A 
ATOM     20  C   UNL     1      -3.594  -0.545   0.086  0.00  0.00    +0.004 A 
ATOM     21  C   UNL     1      -3.551  -1.794   0.676  0.00  0.00    +0.002 A 
ATOM     22  C   UNL     1      -2.385  -2.536   0.648  0.00  0.00    +0.027 A 
ATOM     23  C   UNL     1      -1.256  -2.029   0.022  0.00  0.00    +0.076 A 
BRANCH  18  25
ATOM     24  C   UNL     1      -0.310   1.037  -1.761  0.00  0.00    +0.277 C 
ATOM     25  O   UNL     1      -0.193  -0.263  -1.178  0.00  0.00    -0.493 OA
ENDBRANCH  18  25
ENDBRANCH   1  23
TORSDOF 2
