REMARK  Name = CHEMBL487227
REMARK  6 active torsions:
REMARK  status: ('A' for Active; 'I' for Inactive)
REMARK    1  A    between atoms: C_1  and  N_2
REMARK    2  A    between atoms: N_2  and  C_3
REMARK    3  A    between atoms: N_2  and  C_4
REMARK    4  A    between atoms: C_9  and  N_11
REMARK    5  A    between atoms: C_13  and  C_29
REMARK    6  A    between atoms: N_18  and  C_19
REMARK                            x       y       z     vdW  Elec       q    Type
REMARK                         _______ _______ _______ _____ _____    ______ ____
ROOT
ATOM      1  N   UNL     1       2.183   1.072  -2.346  0.00  0.00    -0.327 N 
ATOM      2  C   UNL     1       3.174   2.040  -2.333  0.00  0.00    +0.136 A 
ATOM      3  C   UNL     1       3.296   2.943  -3.392  0.00  0.00    +0.113 A 
ATOM      4  C   UNL     1       4.298   3.892  -3.336  0.00  0.00    +0.130 A 
ATOM      5  N   UNL     1       5.108   3.919  -2.288  0.00  0.00    -0.222 NA
ATOM      6  C   UNL     1       4.969   3.050  -1.297  0.00  0.00    +0.221 A 
ATOM      7  N   UNL     1       4.018   2.128  -1.310  0.00  0.00    -0.199 NA
ATOM      8  N   UNL     1       5.836   3.110  -0.220  0.00  0.00    -0.284 N 
ATOM      9  H   UNL     1       1.571   1.014  -3.097  0.00  0.00    +0.148 HD
ATOM     10  H   UNL     1       5.697   2.534   0.548  0.00  0.00    +0.155 HD
ENDROOT
BRANCH   8  11
ATOM     11  C   UNL     1       6.914   4.003  -0.238  0.00  0.00    +0.034 A 
ATOM     12  C   UNL     1       7.354   4.590   0.942  0.00  0.00    +0.025 A 
ATOM     13  C   UNL     1       8.415   5.470   0.927  0.00  0.00    +0.025 A 
ATOM     14  C   UNL     1       9.056   5.777  -0.272  0.00  0.00    +0.037 A 
ATOM     15  C   UNL     1       8.609   5.185  -1.446  0.00  0.00    -0.016 A 
ATOM     16  C   UNL     1       7.554   4.302  -1.435  0.00  0.00    +0.029 A 
ATOM     17  C   UNL     1       9.494   5.713  -2.553  0.00  0.00    +0.133 C 
ATOM     18  C   UNL     1      10.454   6.644  -1.844  0.00  0.00    +0.222 C 
ATOM     19  O   UNL     1      11.344   7.288  -2.358  0.00  0.00    -0.275 OA
ATOM     20  N   UNL     1      10.135   6.625  -0.539  0.00  0.00    -0.285 N 
ATOM     21  H   UNL     1      10.599   7.139   0.139  0.00  0.00    +0.155 HD
ENDBRANCH   8  11
BRANCH   1  26
ATOM     22  C   UNL     1       0.618  -0.392  -1.136  0.00  0.00    -0.049 C 
ATOM     23  C   UNL     1       0.692  -1.921  -1.323  0.00  0.00    -0.013 C 
ATOM     24  C   UNL     1       2.014  -2.146  -2.098  0.00  0.00    +0.000 C 
ATOM     25  C   UNL     1       2.963  -1.096  -1.466  0.00  0.00    +0.020 C 
ATOM     26  C   UNL     1       2.061   0.134  -1.228  0.00  0.00    +0.058 C 
BRANCH  22  28
ATOM     27  C   UNL     1       0.030   1.384   0.366  0.00  0.00    -0.096 C 
ATOM     28  N   UNL     1       0.049  -0.073   0.180  0.00  0.00    +0.379 N 
ATOM     29  C   UNL     1      -1.322  -0.594   0.261  0.00  0.00    -0.096 C 
ATOM     30  H   UNL     1       0.613  -0.497   0.902  0.00  0.00    -0.082 HD
ENDBRANCH  22  28
ENDBRANCH   1  26
BRANCH   3  31
ATOM     31  C   UNL     1       2.356   2.883  -4.569  0.00  0.00    +0.422 C 
ATOM     32  F   UNL     1       2.689   3.888  -5.483  0.00  0.00    -0.166 F 
ATOM     33  F   UNL     1       2.465   1.634  -5.189  0.00  0.00    -0.166 F 
ATOM     34  F   UNL     1       1.042   3.072  -4.126  0.00  0.00    -0.166 F 
ENDBRANCH   3  31
TORSDOF 4
