REMARK  Name = CHEMBL207935
REMARK  1 active torsions:
REMARK  status: ('A' for Active; 'I' for Inactive)
REMARK    1  A    between atoms: C_5  and  N_7
REMARK                            x       y       z     vdW  Elec       q    Type
REMARK                         _______ _______ _______ _____ _____    ______ ____
ROOT
ATOM      1  N   UNL     1       1.237  -2.079  -0.022  0.00  0.00    -0.282 N 
ATOM      2  C   UNL     1       0.054  -2.792   0.090  0.00  0.00    +0.221 A 
ATOM      3  N   UNL     1      -1.095  -2.127   0.099  0.00  0.00    -0.222 NA
ATOM      4  C   UNL     1      -2.251  -2.760   0.204  0.00  0.00    +0.126 A 
ATOM      5  C   UNL     1      -2.242  -4.151   0.307  0.00  0.00    +0.037 A 
ATOM      6  C   UNL     1      -3.270  -5.186   0.436  0.00  0.00    +0.031 A 
ATOM      7  C   UNL     1      -2.631  -6.364   0.492  0.00  0.00    +0.095 A 
ATOM      8  N   UNL     1      -1.274  -6.165   0.408  0.00  0.00    -0.285 N 
ATOM      9  C   UNL     1      -1.004  -4.826   0.295  0.00  0.00    +0.151 A 
ATOM     10  N   UNL     1       0.110  -4.110   0.180  0.00  0.00    -0.196 NA
ATOM     11  C   UNL     1      -0.312  -7.177   0.436  0.00  0.00    +0.139 A 
ATOM     12  C   UNL     1      -0.712  -8.504   0.549  0.00  0.00    +0.047 A 
ATOM     13  C   UNL     1       0.252  -9.497   0.575  0.00  0.00    +0.005 A 
ATOM     14  C   UNL     1       1.587  -9.127   0.486  0.00  0.00    +0.020 A 
ATOM     15  C   UNL     1       1.911  -7.790   0.375  0.00  0.00    +0.113 A 
ATOM     16  N   UNL     1       0.971  -6.865   0.348  0.00  0.00    -0.238 NA
ATOM     17  H   UNL     1       2.079  -2.550  -0.120  0.00  0.00    +0.155 HD
ENDROOT
BRANCH   1  22
ATOM     18  C   UNL     1       0.160   1.368   0.665  0.00  0.00    +0.002 A 
ATOM     19  C   UNL     1       1.175   2.086   0.060  0.00  0.00    +0.002 A 
ATOM     20  C   UNL     1       2.212   1.424  -0.573  0.00  0.00    +0.022 A 
ATOM     21  C   UNL     1       2.236   0.043  -0.602  0.00  0.00    +0.062 A 
ATOM     22  C   UNL     1       1.217  -0.681   0.005  0.00  0.00    +0.052 A 
ATOM     23  C   UNL     1       0.177  -0.013   0.639  0.00  0.00    +0.025 A 
ATOM     24 CL   UNL     1       3.537  -0.787  -1.397  0.00  0.00    -0.082 Cl
ENDBRANCH   1  22
TORSDOF 1
