REMARK  Name = CHEMBL520059
REMARK  4 active torsions:
REMARK  status: ('A' for Active; 'I' for Inactive)
REMARK    1  A    between atoms: C_5  and  C_7
REMARK    2  A    between atoms: C_7  and  N_8
REMARK    3  A    between atoms: C_10  and  C_27
REMARK    4  A    between atoms: N_15  and  C_16
REMARK                            x       y       z     vdW  Elec       q    Type
REMARK                         _______ _______ _______ _____ _____    ______ ____
ROOT
ATOM      1  N   UNL     1       1.652  -2.658  -1.407  0.00  0.00    -0.323 N 
ATOM      2  C   UNL     1       1.477  -4.008  -1.665  0.00  0.00    +0.136 A 
ATOM      3  C   UNL     1       1.291  -4.461  -2.974  0.00  0.00    +0.113 A 
ATOM      4  C   UNL     1       1.121  -5.815  -3.184  0.00  0.00    +0.130 A 
ATOM      5  N   UNL     1       1.139  -6.639  -2.147  0.00  0.00    -0.222 NA
ATOM      6  C   UNL     1       1.317  -6.182  -0.916  0.00  0.00    +0.221 A 
ATOM      7  N   UNL     1       1.489  -4.891  -0.673  0.00  0.00    -0.199 NA
ATOM      8  N   UNL     1       1.329  -7.076   0.141  0.00  0.00    -0.284 N 
ATOM      9  H   UNL     1       1.641  -2.019  -2.137  0.00  0.00    +0.148 HD
ATOM     10  H   UNL     1       1.378  -6.748   1.053  0.00  0.00    +0.155 HD
ENDROOT
BRANCH   8  11
ATOM     11  C   UNL     1       1.271  -8.453  -0.105  0.00  0.00    +0.034 A 
ATOM     12  C   UNL     1       1.969  -8.997  -1.176  0.00  0.00    +0.025 A 
ATOM     13  C   UNL     1       1.911 -10.354  -1.420  0.00  0.00    +0.025 A 
ATOM     14  C   UNL     1       1.155 -11.176  -0.594  0.00  0.00    +0.037 A 
ATOM     15  C   UNL     1       0.457 -10.633   0.476  0.00  0.00    -0.024 A 
ATOM     16  C   UNL     1       0.519  -9.276   0.724  0.00  0.00    +0.028 A 
ATOM     17  C   UNL     1      -0.361 -11.527   1.371  0.00  0.00    +0.046 C 
ATOM     18  C   UNL     1      -0.960 -12.666   0.544  0.00  0.00    +0.101 C 
ATOM     19  C   UNL     1       0.107 -13.298  -0.308  0.00  0.00    +0.218 C 
ATOM     20  O   UNL     1       0.077 -14.492  -0.517  0.00  0.00    -0.275 OA
ATOM     21  N   UNL     1       1.094 -12.554  -0.839  0.00  0.00    -0.285 N 
ATOM     22  H   UNL     1       1.768 -12.974  -1.396  0.00  0.00    +0.155 HD
ENDBRANCH   8  11
BRANCH   3  23
ATOM     23  C   UNL     1       1.276  -3.494  -4.129  0.00  0.00    +0.422 C 
ATOM     24  F   UNL     1       1.074  -4.196  -5.322  0.00  0.00    -0.166 F 
ATOM     25  F   UNL     1       0.240  -2.570  -3.951  0.00  0.00    -0.166 F 
ATOM     26  F   UNL     1       2.498  -2.817  -4.187  0.00  0.00    -0.166 F 
ENDBRANCH   3  23
BRANCH   1  27
ATOM     27  C   UNL     1       1.852  -2.195  -0.032  0.00  0.00    +0.158 C 
BRANCH  27  32
ATOM     28  C   UNL     1       1.079   1.486   0.216  0.00  0.00    +0.003 A 
ATOM     29  C   UNL     1       2.344   2.003  -0.019  0.00  0.00    +0.020 A 
ATOM     30  C   UNL     1       3.394   1.135  -0.247  0.00  0.00    +0.111 A 
ATOM     31  N   UNL     1       3.204  -0.170  -0.244  0.00  0.00    -0.258 NA
ATOM     32  C   UNL     1       2.016  -0.697  -0.024  0.00  0.00    +0.058 A 
ATOM     33  C   UNL     1       0.918   0.109   0.212  0.00  0.00    +0.025 A 
ENDBRANCH  27  32
ENDBRANCH   1  27
TORSDOF 4
