REMARK  Name = CHEMBL380312
REMARK  11 active torsions:
REMARK  status: ('A' for Active; 'I' for Inactive)
REMARK    1  A    between atoms: C_1  and  O_2
REMARK    2  A    between atoms: O_2  and  C_3
REMARK    3  A    between atoms: C_5  and  N_13
REMARK    4  A    between atoms: C_7  and  O_11
REMARK    5  A    between atoms: C_8  and  O_9
REMARK    6  A    between atoms: O_9  and  C_10
REMARK    7  A    between atoms: O_11  and  C_12
REMARK    8  A    between atoms: C_27  and  C_29
REMARK    9  A    between atoms: N_31  and  C_32
REMARK   10  A    between atoms: C_32  and  C_33
REMARK   11  A    between atoms: C_33  and  C_34
REMARK                            x       y       z     vdW  Elec       q    Type
REMARK                         _______ _______ _______ _____ _____    ______ ____
ROOT
ATOM      1  N   UNL     1       2.420   0.276   4.130  0.00  0.00    -0.283 N 
ATOM      2  C   UNL     1       2.965  -0.348   5.242  0.00  0.00    +0.221 A 
ATOM      3  N   UNL     1       3.019  -1.674   5.268  0.00  0.00    -0.222 NA
ATOM      4  C   UNL     1       3.529  -2.317   6.305  0.00  0.00    +0.126 A 
ATOM      5  C   UNL     1       4.014  -1.571   7.378  0.00  0.00    +0.037 A 
ATOM      6  C   UNL     1       4.634  -1.892   8.666  0.00  0.00    +0.031 A 
ATOM      7  C   UNL     1       4.888  -0.726   9.278  0.00  0.00    +0.095 A 
ATOM      8  N   UNL     1       4.479   0.318   8.483  0.00  0.00    -0.285 N 
ATOM      9  C   UNL     1       3.942  -0.164   7.317  0.00  0.00    +0.151 A 
ATOM     10  N   UNL     1       3.418   0.400   6.234  0.00  0.00    -0.196 NA
ATOM     11  C   UNL     1       4.594   1.670   8.814  0.00  0.00    +0.140 A 
ATOM     12  C   UNL     1       5.165   2.035  10.031  0.00  0.00    +0.047 A 
ATOM     13  C   UNL     1       5.276   3.376  10.352  0.00  0.00    +0.006 A 
ATOM     14  C   UNL     1       4.810   4.316   9.444  0.00  0.00    +0.033 A 
ATOM     15  C   UNL     1       4.250   3.883   8.246  0.00  0.00    +0.128 A 
ATOM     16  N   UNL     1       4.165   2.587   7.968  0.00  0.00    -0.225 NA
ATOM     17  H   UNL     1       2.449   1.243   4.054  0.00  0.00    +0.155 HD
ENDROOT
BRANCH   1  20
ATOM     18  C   UNL     1       0.570  -2.418   2.434  0.00  0.00    +0.167 A 
ATOM     19  C   UNL     1       1.156  -1.660   3.436  0.00  0.00    +0.073 A 
ATOM     20  C   UNL     1       1.829  -0.488   3.118  0.00  0.00    +0.041 A 
ATOM     21  C   UNL     1       1.916  -0.075   1.795  0.00  0.00    +0.073 A 
ATOM     22  C   UNL     1       1.331  -0.831   0.792  0.00  0.00    +0.167 A 
ATOM     23  C   UNL     1       0.662  -2.007   1.109  0.00  0.00    +0.204 A 
BRANCH  18  25
ATOM     24  C   UNL     1      -0.145  -3.926   4.128  0.00  0.00    +0.277 C 
ATOM     25  O   UNL     1      -0.089  -3.565   2.746  0.00  0.00    -0.491 OA
ENDBRANCH  18  25
BRANCH  23  26
ATOM     26  O   UNL     1       0.092  -2.754   0.124  0.00  0.00    -0.488 OA
ATOM     27  C   UNL     1      -1.262  -2.453  -0.218  0.00  0.00    +0.277 C 
ENDBRANCH  23  26
BRANCH  22  28
ATOM     28  O   UNL     1       1.416  -0.425  -0.503  0.00  0.00    -0.491 OA
ATOM     29  C   UNL     1       2.123   0.790  -0.757  0.00  0.00    +0.277 C 
ENDBRANCH  22  28
ENDBRANCH   1  20
BRANCH  15  30
ATOM     30  C   UNL     1       3.749   4.878   7.268  0.00  0.00    +0.262 C 
ATOM     31  O   UNL     1       3.828   6.065   7.515  0.00  0.00    -0.269 OA
ATOM     32  N   UNL     1       3.205   4.465   6.106  0.00  0.00    -0.309 N 
ATOM     33  H   UNL     1       3.142   3.518   5.910  0.00  0.00    +0.149 HD
BRANCH  32  34
ATOM     34  C   UNL     1       2.710   5.449   5.139  0.00  0.00    +0.119 C 
BRANCH  34  35
ATOM     35  C   UNL     1       2.147   4.723   3.916  0.00  0.00    +0.137 C 
BRANCH  35  36
ATOM     36  C   UNL     1       1.650   5.711   2.945  0.00  0.00    +0.064 C 
ATOM     37  N   UNL     1       1.266   6.473   2.195  0.00  0.00    -0.197 NA
ENDBRANCH  35  36
ENDBRANCH  34  35
ENDBRANCH  32  34
ENDBRANCH  15  30
TORSDOF 8
