REMARK  Name = CHEMBL471526
REMARK  4 active torsions:
REMARK  status: ('A' for Active; 'I' for Inactive)
REMARK    1  A    between atoms: C_5  and  C_7
REMARK    2  A    between atoms: C_7  and  N_8
REMARK    3  A    between atoms: C_10  and  C_26
REMARK    4  A    between atoms: N_15  and  C_16
REMARK                            x       y       z     vdW  Elec       q    Type
REMARK                         _______ _______ _______ _____ _____    ______ ____
ROOT
ATOM      1  N   UNL     1       1.850  -2.670  -1.387  0.00  0.00    -0.323 N 
ATOM      2  C   UNL     1       1.676  -4.018  -1.655  0.00  0.00    +0.136 A 
ATOM      3  C   UNL     1       1.593  -4.474  -2.973  0.00  0.00    +0.113 A 
ATOM      4  C   UNL     1       1.419  -5.826  -3.193  0.00  0.00    +0.130 A 
ATOM      5  N   UNL     1       1.337  -6.646  -2.156  0.00  0.00    -0.222 NA
ATOM      6  C   UNL     1       1.420  -6.186  -0.916  0.00  0.00    +0.221 A 
ATOM      7  N   UNL     1       1.592  -4.897  -0.663  0.00  0.00    -0.199 NA
ATOM      8  N   UNL     1       1.329  -7.076   0.141  0.00  0.00    -0.284 N 
ATOM      9  H   UNL     1       1.911  -2.034  -2.118  0.00  0.00    +0.148 HD
ATOM     10  H   UNL     1       1.306  -6.745   1.053  0.00  0.00    +0.155 HD
ENDROOT
BRANCH   8  11
ATOM     11  C   UNL     1       1.271  -8.453  -0.105  0.00  0.00    +0.034 A 
ATOM     12  C   UNL     1       1.982  -8.985  -1.191  0.00  0.00    +0.025 A 
ATOM     13  C   UNL     1       1.962 -10.309  -1.477  0.00  0.00    +0.032 A 
ATOM     14  C   UNL     1       1.209 -11.188  -0.668  0.00  0.00    +0.093 A 
ATOM     15  C   UNL     1       0.462 -10.634   0.471  0.00  0.00    +0.021 A 
ATOM     16  C   UNL     1       0.529  -9.245   0.718  0.00  0.00    +0.035 A 
ATOM     17  C   UNL     1      -0.175 -11.700   1.078  0.00  0.00    +0.113 A 
ATOM     18  N   UNL     1       0.137 -12.810   0.394  0.00  0.00    -0.284 N 
ATOM     19  N   UNL     1       0.984 -12.490  -0.674  0.00  0.00    -0.174 NA
ATOM     20  H   UNL     1      -0.177 -13.703   0.607  0.00  0.00    +0.188 HD
ENDBRANCH   8  11
BRANCH   3  21
ATOM     21  C   UNL     1       1.689  -3.511  -4.129  0.00  0.00    +0.422 C 
ATOM     22  F   UNL     1       1.577  -4.215  -5.333  0.00  0.00    -0.166 F 
ATOM     23  F   UNL     1       0.657  -2.571  -4.040  0.00  0.00    -0.166 F 
ATOM     24  F   UNL     1       2.924  -2.854  -4.086  0.00  0.00    -0.166 F 
ENDBRANCH   3  21
BRANCH   1  25
ATOM     25  C   UNL     1       1.942  -2.205  -0.001  0.00  0.00    +0.158 C 
BRANCH  25  30
ATOM     26  C   UNL     1       1.210   1.489   0.170  0.00  0.00    +0.003 A 
ATOM     27  C   UNL     1       2.498   1.985   0.040  0.00  0.00    +0.020 A 
ATOM     28  C   UNL     1       3.550   1.100  -0.097  0.00  0.00    +0.111 A 
ATOM     29  N   UNL     1       3.340  -0.202  -0.106  0.00  0.00    -0.258 NA
ATOM     30  C   UNL     1       2.129  -0.710   0.015  0.00  0.00    +0.058 A 
ATOM     31  C   UNL     1       1.028   0.114   0.157  0.00  0.00    +0.025 A 
ENDBRANCH  25  30
ENDBRANCH   1  25
TORSDOF 4
