REMARK  Name = CHEMBL487246
REMARK  6 active torsions:
REMARK  status: ('A' for Active; 'I' for Inactive)
REMARK    1  A    between atoms: C_1  and  S_2
REMARK    2  A    between atoms: S_2  and  C_5
REMARK    3  A    between atoms: C_9  and  C_11
REMARK    4  A    between atoms: C_11  and  N_12
REMARK    5  A    between atoms: C_14  and  C_30
REMARK    6  A    between atoms: N_19  and  C_20
REMARK                            x       y       z     vdW  Elec       q    Type
REMARK                         _______ _______ _______ _____ _____    ______ ____
ROOT
ATOM      1  N   UNL     1       5.054   0.252  -2.625  0.00  0.00    -0.324 N 
ATOM      2  C   UNL     1       6.438   0.321  -2.656  0.00  0.00    +0.136 A 
ATOM      3  C   UNL     1       7.084   1.557  -2.743  0.00  0.00    +0.113 A 
ATOM      4  C   UNL     1       8.464   1.578  -2.770  0.00  0.00    +0.130 A 
ATOM      5  N   UNL     1       9.131   0.434  -2.714  0.00  0.00    -0.222 NA
ATOM      6  C   UNL     1       8.492  -0.724  -2.632  0.00  0.00    +0.221 A 
ATOM      7  N   UNL     1       7.169  -0.786  -2.598  0.00  0.00    -0.199 NA
ATOM      8  N   UNL     1       9.226  -1.897  -2.576  0.00  0.00    -0.284 N 
ATOM      9  H   UNL     1       4.527   1.065  -2.668  0.00  0.00    +0.148 HD
ATOM     10  H   UNL     1       8.775  -2.744  -2.436  0.00  0.00    +0.155 HD
ENDROOT
BRANCH   8  11
ATOM     11  C   UNL     1      10.617  -1.861  -2.723  0.00  0.00    +0.034 A 
ATOM     12  C   UNL     1      11.415  -2.768  -2.038  0.00  0.00    +0.025 A 
ATOM     13  C   UNL     1      12.786  -2.734  -2.180  0.00  0.00    +0.025 A 
ATOM     14  C   UNL     1      13.382  -1.789  -3.013  0.00  0.00    +0.037 A 
ATOM     15  C   UNL     1      12.576  -0.886  -3.694  0.00  0.00    -0.016 A 
ATOM     16  C   UNL     1      11.207  -0.920  -3.559  0.00  0.00    +0.029 A 
ATOM     17  C   UNL     1      13.507  -0.008  -4.499  0.00  0.00    +0.133 C 
ATOM     18  C   UNL     1      14.887  -0.538  -4.174  0.00  0.00    +0.222 C 
ATOM     19  O   UNL     1      15.940  -0.120  -4.608  0.00  0.00    -0.275 OA
ATOM     20  N   UNL     1      14.727  -1.559  -3.315  0.00  0.00    -0.285 N 
ATOM     21  H   UNL     1      15.461  -2.076  -2.947  0.00  0.00    +0.155 HD
ENDBRANCH   8  11
BRANCH   3  22
ATOM     22  C   UNL     1       6.292   2.838  -2.805  0.00  0.00    +0.422 C 
ATOM     23  F   UNL     1       7.170   3.924  -2.887  0.00  0.00    -0.166 F 
ATOM     24  F   UNL     1       5.465   2.820  -3.933  0.00  0.00    -0.166 F 
ATOM     25  F   UNL     1       5.508   2.958  -1.653  0.00  0.00    -0.166 F 
ENDBRANCH   3  22
BRANCH   1  26
ATOM     26  C   UNL     1       4.388  -1.048  -2.528  0.00  0.00    +0.138 C 
BRANCH  26  31
ATOM     27  C   UNL     1       0.862  -0.496  -1.296  0.00  0.00    +0.088 A 
ATOM     28  C   UNL     1       0.154  -0.481  -2.484  0.00  0.00    +0.027 A 
ATOM     29  C   UNL     1       0.817  -0.650  -3.685  0.00  0.00    +0.002 A 
ATOM     30  C   UNL     1       2.187  -0.834  -3.699  0.00  0.00    +0.005 A 
ATOM     31  C   UNL     1       2.894  -0.848  -2.512  0.00  0.00    -0.029 A 
ATOM     32  C   UNL     1       2.232  -0.675  -1.311  0.00  0.00    +0.032 A 
BRANCH  27  34
ATOM     33  C   UNL     1       0.019   1.510   0.520  0.00  0.00    +0.200 C 
ATOM     34  S   UNL     1       0.018  -0.281   0.235  0.00  0.00    -0.006 S 
ATOM     35  O   UNL     1       0.839  -0.930   1.196  0.00  0.00    -0.170 OA
ATOM     36  O   UNL     1      -1.306  -0.736  -0.013  0.00  0.00    -0.170 OA
ENDBRANCH  27  34
ENDBRANCH  26  31
ENDBRANCH   1  26
TORSDOF 5
