REMARK  Name = CHEMBL470317
REMARK  4 active torsions:
REMARK  status: ('A' for Active; 'I' for Inactive)
REMARK    1  A    between atoms: C_5  and  C_7
REMARK    2  A    between atoms: C_7  and  N_8
REMARK    3  A    between atoms: C_10  and  C_26
REMARK    4  A    between atoms: N_15  and  C_16
REMARK                            x       y       z     vdW  Elec       q    Type
REMARK                         _______ _______ _______ _____ _____    ______ ____
ROOT
ATOM      1  N   UNL     1       1.876  -2.672  -1.384  0.00  0.00    -0.322 N 
ATOM      2  C   UNL     1       1.703  -4.014  -1.652  0.00  0.00    +0.142 A 
ATOM      3  C   UNL     1       1.632  -4.478  -2.984  0.00  0.00    +0.110 A 
ATOM      4  C   UNL     1       1.457  -5.849  -3.197  0.00  0.00    +0.136 A 
ATOM      5  N   UNL     1       1.363  -6.654  -2.154  0.00  0.00    -0.221 NA
ATOM      6  C   UNL     1       1.434  -6.183  -0.916  0.00  0.00    +0.221 A 
ATOM      7  N   UNL     1       1.605  -4.894  -0.662  0.00  0.00    -0.198 NA
ATOM      8  N   UNL     1       1.330  -7.065   0.142  0.00  0.00    -0.284 N 
ATOM      9  H   UNL     1       1.946  -2.037  -2.113  0.00  0.00    +0.148 HD
ATOM     10  H   UNL     1       1.298  -6.730   1.052  0.00  0.00    +0.155 HD
ENDROOT
BRANCH   8  11
ATOM     11  C   UNL     1       1.272  -8.443  -0.098  0.00  0.00    +0.034 A 
ATOM     12  C   UNL     1       1.968  -8.996  -1.165  0.00  0.00    +0.025 A 
ATOM     13  C   UNL     1       1.913 -10.352  -1.405  0.00  0.00    +0.025 A 
ATOM     14  C   UNL     1       1.157 -11.180  -0.577  0.00  0.00    +0.037 A 
ATOM     15  C   UNL     1       0.464 -10.619   0.488  0.00  0.00    -0.016 A 
ATOM     16  C   UNL     1       0.521  -9.266   0.733  0.00  0.00    +0.029 A 
ATOM     17  C   UNL     1      -0.246 -11.759   1.182  0.00  0.00    +0.133 C 
ATOM     18  C   UNL     1       0.141 -12.980   0.376  0.00  0.00    +0.222 C 
ATOM     19  O   UNL     1      -0.210 -14.122   0.585  0.00  0.00    -0.275 OA
ATOM     20  N   UNL     1       0.947 -12.562  -0.614  0.00  0.00    -0.285 N 
ATOM     21  H   UNL     1       1.338 -13.150  -1.279  0.00  0.00    +0.155 HD
ENDBRANCH   8  11
BRANCH   3  22
ATOM     22  C   UNL     1       1.738  -3.569  -4.086  0.00  0.00    +0.104 C 
ATOM     23  N   UNL     1       1.822  -2.849  -4.960  0.00  0.00    -0.191 NA
ENDBRANCH   3  22
BRANCH   1  24
ATOM     24  C   UNL     1       1.953  -2.206   0.003  0.00  0.00    +0.158 C 
BRANCH  24  29
ATOM     25  C   UNL     1       1.226   1.489   0.164  0.00  0.00    +0.003 A 
ATOM     26  C   UNL     1       2.517   1.983   0.049  0.00  0.00    +0.020 A 
ATOM     27  C   UNL     1       3.569   1.095  -0.075  0.00  0.00    +0.111 A 
ATOM     28  N   UNL     1       3.356  -0.206  -0.086  0.00  0.00    -0.258 NA
ATOM     29  C   UNL     1       2.142  -0.711   0.021  0.00  0.00    +0.058 A 
ATOM     30  C   UNL     1       1.041   0.115   0.149  0.00  0.00    +0.025 A 
ENDBRANCH  24  29
ENDBRANCH   1  24
TORSDOF 4
