REMARK  Name = CHEMBL379655
REMARK  10 active torsions:
REMARK  status: ('A' for Active; 'I' for Inactive)
REMARK    1  A    between atoms: C_1  and  O_2
REMARK    2  A    between atoms: O_2  and  C_3
REMARK    3  A    between atoms: C_5  and  N_13
REMARK    4  A    between atoms: C_7  and  O_11
REMARK    5  A    between atoms: C_8  and  O_9
REMARK    6  A    between atoms: O_9  and  C_10
REMARK    7  A    between atoms: O_11  and  C_12
REMARK    8  A    between atoms: N_20  and  C_23
REMARK    9  A    between atoms: C_26  and  S_29
REMARK   10  A    between atoms: S_29  and  C_30
REMARK                            x       y       z     vdW  Elec       q    Type
REMARK                         _______ _______ _______ _____ _____    ______ ____
ROOT
ATOM      1  N   UNL     1       2.362   0.321  -4.157  0.00  0.00    -0.283 N 
ATOM      2  C   UNL     1       3.068  -0.289  -5.182  0.00  0.00    +0.221 A 
ATOM      3  N   UNL     1       3.098  -1.616  -5.237  0.00  0.00    -0.222 NA
ATOM      4  C   UNL     1       3.757  -2.245  -6.194  0.00  0.00    +0.126 A 
ATOM      5  C   UNL     1       4.426  -1.486  -7.154  0.00  0.00    +0.037 A 
ATOM      6  C   UNL     1       5.240  -1.791  -8.331  0.00  0.00    +0.031 A 
ATOM      7  C   UNL     1       5.614  -0.615  -8.861  0.00  0.00    +0.094 A 
ATOM      8  N   UNL     1       5.102   0.417  -8.114  0.00  0.00    -0.301 N 
ATOM      9  C   UNL     1       4.373  -0.079  -7.066  0.00  0.00    +0.150 A 
ATOM     10  N   UNL     1       3.682   0.471  -6.073  0.00  0.00    -0.196 NA
ATOM     11  H   UNL     1       2.257   1.285  -4.147  0.00  0.00    +0.155 HD
ENDROOT
BRANCH   1  14
ATOM     12  C   UNL     1       1.885  -2.377  -1.697  0.00  0.00    +0.167 A 
ATOM     13  C   UNL     1       2.441  -1.609  -2.708  0.00  0.00    +0.073 A 
ATOM     14  C   UNL     1       1.799  -0.454  -3.136  0.00  0.00    +0.041 A 
ATOM     15  C   UNL     1       0.600  -0.069  -2.552  0.00  0.00    +0.073 A 
ATOM     16  C   UNL     1       0.043  -0.836  -1.541  0.00  0.00    +0.167 A 
ATOM     17  C   UNL     1       0.682  -1.994  -1.116  0.00  0.00    +0.204 A 
BRANCH  12  19
ATOM     18  C   UNL     1       3.747  -3.840  -1.919  0.00  0.00    +0.277 C 
ATOM     19  O   UNL     1       2.514  -3.507  -1.278  0.00  0.00    -0.491 OA
ENDBRANCH  12  19
BRANCH  17  20
ATOM     20  O   UNL     1       0.132  -2.752  -0.127  0.00  0.00    -0.488 OA
ATOM     21  C   UNL     1       0.506  -2.436   1.216  0.00  0.00    +0.277 C 
ENDBRANCH  17  20
BRANCH  16  22
ATOM     22  O   UNL     1      -1.132  -0.458  -0.970  0.00  0.00    -0.491 OA
ATOM     23  C   UNL     1      -1.736   0.740  -1.460  0.00  0.00    +0.277 C 
ENDBRANCH  16  22
ENDBRANCH   1  14
BRANCH   8  24
ATOM     24  C   UNL     1       5.298   1.780  -8.384  0.00  0.00    +0.048 A 
ATOM     25  C   UNL     1       4.212   2.644  -8.419  0.00  0.00    +0.027 A 
ATOM     26  C   UNL     1       4.404   3.985  -8.685  0.00  0.00    +0.017 A 
ATOM     27  C   UNL     1       5.685   4.470  -8.918  0.00  0.00    +0.008 A 
ATOM     28  C   UNL     1       6.772   3.605  -8.883  0.00  0.00    +0.017 A 
ATOM     29  C   UNL     1       6.579   2.266  -8.611  0.00  0.00    +0.027 A 
BRANCH  27  30
ATOM     30  S   UNL     1       5.931   6.181  -9.258  0.00  0.00    -0.129 S 
ATOM     31  C   UNL     1       7.724   6.330  -9.487  0.00  0.00    +0.090 C 
ENDBRANCH  27  30
ENDBRANCH   8  24
TORSDOF 6
