REMARK  Name = CHEMBL207084
REMARK  12 active torsions:
REMARK  status: ('A' for Active; 'I' for Inactive)
REMARK    1  A    between atoms: C_1  and  O_2
REMARK    2  A    between atoms: O_2  and  C_3
REMARK    3  A    between atoms: C_5  and  N_13
REMARK    4  A    between atoms: C_7  and  O_11
REMARK    5  A    between atoms: C_8  and  O_9
REMARK    6  A    between atoms: O_9  and  C_10
REMARK    7  A    between atoms: O_11  and  C_12
REMARK    8  A    between atoms: N_20  and  C_23
REMARK    9  A    between atoms: C_27  and  C_29
REMARK   10  A    between atoms: N_31  and  C_32
REMARK   11  A    between atoms: C_32  and  C_33
REMARK   12  A    between atoms: C_33  and  N_34
REMARK                            x       y       z     vdW  Elec       q    Type
REMARK                         _______ _______ _______ _____ _____    ______ ____
ROOT
ATOM      1  N   UNL     1       2.360   0.321  -4.158  0.00  0.00    -0.283 N 
ATOM      2  C   UNL     1       3.066  -0.289  -5.183  0.00  0.00    +0.221 A 
ATOM      3  N   UNL     1       3.096  -1.615  -5.237  0.00  0.00    -0.222 NA
ATOM      4  C   UNL     1       3.755  -2.245  -6.195  0.00  0.00    +0.126 A 
ATOM      5  C   UNL     1       4.423  -1.486  -7.155  0.00  0.00    +0.037 A 
ATOM      6  C   UNL     1       5.237  -1.790  -8.333  0.00  0.00    +0.031 A 
ATOM      7  C   UNL     1       5.610  -0.615  -8.864  0.00  0.00    +0.094 A 
ATOM      8  N   UNL     1       5.099   0.418  -8.117  0.00  0.00    -0.301 N 
ATOM      9  C   UNL     1       4.370  -0.079  -7.068  0.00  0.00    +0.150 A 
ATOM     10  N   UNL     1       3.680   0.471  -6.074  0.00  0.00    -0.196 NA
ATOM     11  H   UNL     1       2.256   1.285  -4.148  0.00  0.00    +0.155 HD
ENDROOT
BRANCH   1  14
ATOM     12  C   UNL     1       1.887  -2.376  -1.696  0.00  0.00    +0.167 A 
ATOM     13  C   UNL     1       2.442  -1.608  -2.708  0.00  0.00    +0.073 A 
ATOM     14  C   UNL     1       1.799  -0.454  -3.136  0.00  0.00    +0.041 A 
ATOM     15  C   UNL     1       0.600  -0.069  -2.552  0.00  0.00    +0.073 A 
ATOM     16  C   UNL     1       0.044  -0.836  -1.540  0.00  0.00    +0.167 A 
ATOM     17  C   UNL     1       0.684  -1.994  -1.114  0.00  0.00    +0.204 A 
BRANCH  12  19
ATOM     18  C   UNL     1       3.749  -3.838  -1.919  0.00  0.00    +0.277 C 
ATOM     19  O   UNL     1       2.516  -3.506  -1.277  0.00  0.00    -0.491 OA
ENDBRANCH  12  19
BRANCH  17  20
ATOM     20  O   UNL     1       0.135  -2.751  -0.124  0.00  0.00    -0.488 OA
ATOM     21  C   UNL     1       0.510  -2.433   1.218  0.00  0.00    +0.277 C 
ENDBRANCH  17  20
BRANCH  16  22
ATOM     22  O   UNL     1      -1.130  -0.458  -0.967  0.00  0.00    -0.491 OA
ATOM     23  C   UNL     1      -1.735   0.740  -1.458  0.00  0.00    +0.277 C 
ENDBRANCH  16  22
ENDBRANCH   1  14
BRANCH   8  24
ATOM     24  C   UNL     1       5.294   1.779  -8.387  0.00  0.00    +0.049 A 
ATOM     25  C   UNL     1       4.207   2.643  -8.421  0.00  0.00    +0.026 A 
ATOM     26  C   UNL     1       4.394   3.987  -8.688  0.00  0.00    +0.003 A 
ATOM     27  C   UNL     1       5.662   4.479  -8.921  0.00  0.00    +0.013 A 
ATOM     28  C   UNL     1       6.761   3.619  -8.888  0.00  0.00    +0.039 A 
ATOM     29  C   UNL     1       6.572   2.264  -8.614  0.00  0.00    +0.039 A 
BRANCH  28  30
ATOM     30  C   UNL     1       8.120   4.143  -9.138  0.00  0.00    +0.244 C 
ATOM     31  O   UNL     1       9.076   3.392  -9.108  0.00  0.00    -0.270 OA
ATOM     32  N   UNL     1       8.300   5.453  -9.398  0.00  0.00    -0.313 N 
ATOM     33  H   UNL     1       7.538   6.052  -9.421  0.00  0.00    +0.149 HD
BRANCH  32  34
ATOM     34  C   UNL     1       9.648   5.972  -9.645  0.00  0.00    +0.085 C 
BRANCH  34  35
ATOM     35  C   UNL     1       9.573   7.477  -9.912  0.00  0.00    -0.067 C 
BRANCH  35  36
ATOM     36  N   UNL     1      10.925   7.998 -10.160  0.00  0.00    +0.379 N 
ATOM     37  H   UNL     1      11.504   7.828  -9.351  0.00  0.00    -0.090 HD
ATOM     38  H   UNL     1      11.322   7.533 -10.962  0.00  0.00    -0.090 HD
ATOM     39  H   UNL     1      10.875   8.990 -10.335  0.00  0.00    -0.090 HD
ENDBRANCH  35  36
ENDBRANCH  34  35
ENDBRANCH  32  34
ENDBRANCH  28  30
ENDBRANCH   8  24
TORSDOF 9
