REMARK  Name = CHEMBL426311
REMARK  7 active torsions:
REMARK  status: ('A' for Active; 'I' for Inactive)
REMARK    1  A    between atoms: C_1  and  O_2
REMARK    2  A    between atoms: O_2  and  C_3
REMARK    3  A    between atoms: C_5  and  N_13
REMARK    4  A    between atoms: C_7  and  O_11
REMARK    5  A    between atoms: C_8  and  O_9
REMARK    6  A    between atoms: O_9  and  C_10
REMARK    7  A    between atoms: O_11  and  C_12
REMARK                            x       y       z     vdW  Elec       q    Type
REMARK                         _______ _______ _______ _____ _____    ______ ____
ROOT
ATOM      1  N   UNL     1       2.079   0.349   4.304  0.00  0.00    -0.285 N 
ATOM      2  C   UNL     1       2.705  -0.294   5.359  0.00  0.00    +0.199 A 
ATOM      3  N   UNL     1       2.749  -1.618   5.375  0.00  0.00    -0.334 N 
ATOM      4  C   UNL     1       3.337  -2.269   6.368  0.00  0.00    +0.092 A 
ATOM      5  C   UNL     1       3.912  -1.549   7.399  0.00  0.00    +0.009 A 
ATOM      6  C   UNL     1       3.853  -0.160   7.353  0.00  0.00    +0.135 A 
ATOM      7  N   UNL     1       3.250   0.430   6.326  0.00  0.00    -0.200 NA
ATOM      8  N   UNL     1       4.421   0.611   8.358  0.00  0.00    -0.270 N 
ATOM      9  C   UNL     1       4.813  -0.041   9.616  0.00  0.00    +0.114 C 
ATOM     10  C   UNL     1       5.546  -1.342   9.266  0.00  0.00    +0.024 C 
ATOM     11  C   UNL     1       4.579  -2.274   8.535  0.00  0.00    +0.041 C 
ATOM     12  C   UNL     1       4.617   1.977   8.177  0.00  0.00    +0.127 A 
ATOM     13  C   UNL     1       5.810   2.435   7.628  0.00  0.00    +0.044 A 
ATOM     14  C   UNL     1       5.991   3.795   7.454  0.00  0.00    +0.005 A 
ATOM     15  C   UNL     1       4.969   4.654   7.836  0.00  0.00    +0.020 A 
ATOM     16  C   UNL     1       3.811   4.130   8.373  0.00  0.00    +0.113 A 
ATOM     17  N   UNL     1       3.663   2.827   8.523  0.00  0.00    -0.240 NA
ATOM     18  H   UNL     1       2.123   1.315   4.230  0.00  0.00    +0.155 HD
ATOM     19  H   UNL     1       2.345  -2.119   4.649  0.00  0.00    +0.168 HD
ENDROOT
BRANCH   1  22
ATOM     20  C   UNL     1      -0.112  -2.195   2.790  0.00  0.00    +0.167 A 
ATOM     21  C   UNL     1       0.579  -1.457   3.740  0.00  0.00    +0.073 A 
ATOM     22  C   UNL     1       1.383  -0.396   3.345  0.00  0.00    +0.041 A 
ATOM     23  C   UNL     1       1.496  -0.074   1.999  0.00  0.00    +0.073 A 
ATOM     24  C   UNL     1       0.807  -0.810   1.049  0.00  0.00    +0.167 A 
ATOM     25  C   UNL     1       0.006  -1.875   1.443  0.00  0.00    +0.204 A 
BRANCH  20  27
ATOM     26  C   UNL     1      -0.974  -3.505   4.578  0.00  0.00    +0.277 C 
ATOM     27  O   UNL     1      -0.899  -3.233   3.177  0.00  0.00    -0.491 OA
ENDBRANCH  20  27
BRANCH  25  28
ATOM     28  O   UNL     1      -0.667  -2.603   0.509  0.00  0.00    -0.488 OA
ATOM     29  C   UNL     1      -1.981  -2.159   0.165  0.00  0.00    +0.277 C 
ENDBRANCH  25  28
BRANCH  24  30
ATOM     30  O   UNL     1       0.919  -0.494  -0.269  0.00  0.00    -0.491 OA
ATOM     31  C   UNL     1       1.763   0.610  -0.602  0.00  0.00    +0.277 C 
ENDBRANCH  24  30
ENDBRANCH   1  22
TORSDOF 4
