REMARK  Name = CHEMBL383300
REMARK  8 active torsions:
REMARK  status: ('A' for Active; 'I' for Inactive)
REMARK    1  A    between atoms: C_1  and  O_2
REMARK    2  A    between atoms: O_2  and  C_3
REMARK    3  A    between atoms: C_5  and  N_13
REMARK    4  A    between atoms: C_7  and  O_11
REMARK    5  A    between atoms: C_8  and  O_9
REMARK    6  A    between atoms: O_9  and  C_10
REMARK    7  A    between atoms: O_11  and  C_12
REMARK    8  A    between atoms: C_21  and  O_24
REMARK                            x       y       z     vdW  Elec       q    Type
REMARK                         _______ _______ _______ _____ _____    ______ ____
ROOT
ATOM      1  N   UNL     1      -4.767   0.288  -0.375  0.00  0.00    -0.285 N 
ATOM      2  C   UNL     1      -5.983  -0.376  -0.365  0.00  0.00    +0.199 A 
ATOM      3  N   UNL     1      -5.996  -1.701  -0.362  0.00  0.00    -0.334 N 
ATOM      4  C   UNL     1      -7.138  -2.371  -0.354  0.00  0.00    +0.092 A 
ATOM      5  C   UNL     1      -8.331  -1.671  -0.349  0.00  0.00    +0.009 A 
ATOM      6  C   UNL     1      -8.285  -0.281  -0.350  0.00  0.00    +0.137 A 
ATOM      7  N   UNL     1      -7.104   0.330  -0.355  0.00  0.00    -0.200 NA
ATOM      8  N   UNL     1      -9.452   0.470  -0.337  0.00  0.00    -0.244 N 
ATOM      9  C   UNL     1     -10.728  -0.197  -0.631  0.00  0.00    +0.210 C 
ATOM     10  C   UNL     1     -10.764  -1.515   0.153  0.00  0.00    +0.057 C 
ATOM     11  C   UNL     1      -9.636  -2.419  -0.346  0.00  0.00    +0.044 C 
ATOM     12  C   UNL     1      -9.414   1.832  -0.050  0.00  0.00    +0.106 A 
ATOM     13  C   UNL     1      -9.537   2.262   1.267  0.00  0.00    +0.042 A 
ATOM     14  C   UNL     1      -9.498   3.618   1.538  0.00  0.00    +0.005 A 
ATOM     15  C   UNL     1      -9.337   4.501   0.479  0.00  0.00    +0.018 A 
ATOM     16  C   UNL     1      -9.221   4.004  -0.804  0.00  0.00    +0.084 A 
ATOM     17  N   UNL     1      -9.257   2.705  -1.032  0.00  0.00    -0.349 N 
ATOM     18  H   UNL     1      -4.741   1.253  -0.281  0.00  0.00    +0.155 HD
ATOM     19  H   UNL     1      -5.157  -2.187  -0.365  0.00  0.00    +0.168 HD
ATOM     20  H   UNL     1      -9.169   2.382  -1.943  0.00  0.00    +0.167 HD
ENDROOT
BRANCH   1  23
ATOM     21  C   UNL     1      -2.326  -2.191  -1.583  0.00  0.00    +0.167 A 
ATOM     22  C   UNL     1      -3.505  -1.476  -1.437  0.00  0.00    +0.073 A 
ATOM     23  C   UNL     1      -3.577  -0.434  -0.521  0.00  0.00    +0.041 A 
ATOM     24  C   UNL     1      -2.468  -0.108   0.249  0.00  0.00    +0.073 A 
ATOM     25  C   UNL     1      -1.289  -0.822   0.104  0.00  0.00    +0.167 A 
ATOM     26  C   UNL     1      -1.218  -1.868  -0.808  0.00  0.00    +0.204 A 
BRANCH  21  28
ATOM     27  C   UNL     1      -3.433  -3.487  -3.241  0.00  0.00    +0.277 C 
ATOM     28  O   UNL     1      -2.256  -3.211  -2.479  0.00  0.00    -0.491 OA
ENDBRANCH  21  28
BRANCH  26  29
ATOM     29  O   UNL     1      -0.062  -2.574  -0.947  0.00  0.00    -0.488 OA
ATOM     30  C   UNL     1       0.879  -2.095  -1.910  0.00  0.00    +0.277 C 
ENDBRANCH  26  29
BRANCH  25  31
ATOM     31  O   UNL     1      -0.204  -0.503   0.858  0.00  0.00    -0.491 OA
ATOM     32  C   UNL     1      -0.350   0.581   1.779  0.00  0.00    +0.277 C 
ENDBRANCH  25  31
ENDBRANCH   1  23
BRANCH   9  33
ATOM     33  O   UNL     1     -10.822  -0.464  -2.032  0.00  0.00    -0.374 OA
ATOM     34  H   UNL     1     -11.642  -0.904  -2.294  0.00  0.00    +0.212 HD
ENDBRANCH   9  33
TORSDOF 5
