REMARK  Name = CHEMBL383300
REMARK  8 active torsions:
REMARK  status: ('A' for Active; 'I' for Inactive)
REMARK    1  A    between atoms: C_1  and  O_2
REMARK    2  A    between atoms: O_2  and  C_3
REMARK    3  A    between atoms: C_5  and  N_13
REMARK    4  A    between atoms: C_7  and  O_11
REMARK    5  A    between atoms: C_8  and  O_9
REMARK    6  A    between atoms: O_9  and  C_10
REMARK    7  A    between atoms: O_11  and  C_12
REMARK    8  A    between atoms: C_21  and  O_24
REMARK                            x       y       z     vdW  Elec       q    Type
REMARK                         _______ _______ _______ _____ _____    ______ ____
ROOT
ATOM      1  N   UNL     1      -4.767   0.289  -0.379  0.00  0.00    -0.285 N 
ATOM      2  C   UNL     1      -5.983  -0.375  -0.368  0.00  0.00    +0.199 A 
ATOM      3  N   UNL     1      -5.995  -1.700  -0.365  0.00  0.00    -0.334 N 
ATOM      4  C   UNL     1      -7.138  -2.371  -0.357  0.00  0.00    +0.092 A 
ATOM      5  C   UNL     1      -8.331  -1.671  -0.350  0.00  0.00    +0.009 A 
ATOM      6  C   UNL     1      -8.285  -0.281  -0.351  0.00  0.00    +0.137 A 
ATOM      7  N   UNL     1      -7.104   0.331  -0.357  0.00  0.00    -0.200 NA
ATOM      8  N   UNL     1      -9.452   0.470  -0.337  0.00  0.00    -0.243 N 
ATOM      9  C   UNL     1     -10.728  -0.197  -0.630  0.00  0.00    +0.210 C 
ATOM     10  C   UNL     1     -10.764  -1.515   0.154  0.00  0.00    +0.057 C 
ATOM     11  C   UNL     1      -9.635  -2.419  -0.346  0.00  0.00    +0.044 C 
ATOM     12  C   UNL     1      -9.414   1.832  -0.050  0.00  0.00    +0.129 A 
ATOM     13  C   UNL     1      -9.543   2.262   1.266  0.00  0.00    +0.044 A 
ATOM     14  C   UNL     1      -9.504   3.618   1.538  0.00  0.00    +0.005 A 
ATOM     15  C   UNL     1      -9.337   4.501   0.479  0.00  0.00    +0.020 A 
ATOM     16  C   UNL     1      -9.216   4.004  -0.803  0.00  0.00    +0.113 A 
ATOM     17  N   UNL     1      -9.251   2.705  -1.032  0.00  0.00    -0.240 NA
ATOM     18  H   UNL     1      -4.741   1.254  -0.285  0.00  0.00    +0.155 HD
ATOM     19  H   UNL     1      -5.156  -2.186  -0.368  0.00  0.00    +0.168 HD
ENDROOT
BRANCH   1  22
ATOM     20  C   UNL     1      -2.327  -2.189  -1.589  0.00  0.00    +0.167 A 
ATOM     21  C   UNL     1      -3.505  -1.474  -1.442  0.00  0.00    +0.073 A 
ATOM     22  C   UNL     1      -3.577  -0.433  -0.526  0.00  0.00    +0.041 A 
ATOM     23  C   UNL     1      -2.468  -0.107   0.243  0.00  0.00    +0.073 A 
ATOM     24  C   UNL     1      -1.289  -0.821   0.098  0.00  0.00    +0.167 A 
ATOM     25  C   UNL     1      -1.218  -1.867  -0.815  0.00  0.00    +0.204 A 
BRANCH  20  27
ATOM     26  C   UNL     1      -3.434  -3.485  -3.247  0.00  0.00    +0.277 C 
ATOM     27  O   UNL     1      -2.257  -3.209  -2.485  0.00  0.00    -0.491 OA
ENDBRANCH  20  27
BRANCH  25  28
ATOM     28  O   UNL     1      -0.062  -2.572  -0.955  0.00  0.00    -0.488 OA
ATOM     29  C   UNL     1       0.878  -2.093  -1.918  0.00  0.00    +0.277 C 
ENDBRANCH  25  28
BRANCH  24  30
ATOM     30  O   UNL     1      -0.203  -0.501   0.851  0.00  0.00    -0.491 OA
ATOM     31  C   UNL     1      -0.348   0.582   1.772  0.00  0.00    +0.277 C 
ENDBRANCH  24  30
ENDBRANCH   1  22
BRANCH   9  32
ATOM     32  O   UNL     1     -10.823  -0.465  -2.031  0.00  0.00    -0.374 OA
ATOM     33  H   UNL     1     -10.784   0.326  -2.586  0.00  0.00    +0.212 HD
ENDBRANCH   9  32
TORSDOF 5
