REMARK  Name = CHEMBL471526
REMARK  4 active torsions:
REMARK  status: ('A' for Active; 'I' for Inactive)
REMARK    1  A    between atoms: C_5  and  C_7
REMARK    2  A    between atoms: C_7  and  N_8
REMARK    3  A    between atoms: C_10  and  C_26
REMARK    4  A    between atoms: N_15  and  C_16
REMARK                            x       y       z     vdW  Elec       q    Type
REMARK                         _______ _______ _______ _____ _____    ______ ____
ROOT
ATOM      1  N   UNL     1       1.868  -2.671  -1.385  0.00  0.00    -0.323 N 
ATOM      2  C   UNL     1       1.695  -4.019  -1.654  0.00  0.00    +0.136 A 
ATOM      3  C   UNL     1       1.621  -4.475  -2.972  0.00  0.00    +0.113 A 
ATOM      4  C   UNL     1       1.448  -5.827  -3.193  0.00  0.00    +0.130 A 
ATOM      5  N   UNL     1       1.357  -6.647  -2.156  0.00  0.00    -0.222 NA
ATOM      6  C   UNL     1       1.429  -6.187  -0.916  0.00  0.00    +0.221 A 
ATOM      7  N   UNL     1       1.601  -4.898  -0.661  0.00  0.00    -0.199 NA
ATOM      8  N   UNL     1       1.329  -7.076   0.141  0.00  0.00    -0.284 N 
ATOM      9  H   UNL     1       1.936  -2.036  -2.115  0.00  0.00    +0.148 HD
ATOM     10  H   UNL     1       1.299  -6.745   1.053  0.00  0.00    +0.155 HD
ENDROOT
BRANCH   8  11
ATOM     11  C   UNL     1       1.270  -8.454  -0.105  0.00  0.00    +0.034 A 
ATOM     12  C   UNL     1       0.510  -9.276   0.726  0.00  0.00    +0.025 A 
ATOM     13  C   UNL     1       0.440 -10.621   0.503  0.00  0.00    +0.029 A 
ATOM     14  C   UNL     1       1.132 -11.189  -0.564  0.00  0.00    +0.066 A 
ATOM     15  C   UNL     1       1.902 -10.368  -1.410  0.00  0.00    +0.021 A 
ATOM     16  C   UNL     1       1.961  -8.990  -1.174  0.00  0.00    +0.035 A 
ATOM     17  C   UNL     1       2.491 -11.250  -2.412  0.00  0.00    +0.142 A 
ATOM     18  N   UNL     1       2.092 -12.463  -2.160  0.00  0.00    -0.181 NA
ATOM     19  N   UNL     1       1.258 -12.471  -1.037  0.00  0.00    -0.277 N 
ATOM     20  H   UNL     1       0.836 -13.256  -0.654  0.00  0.00    +0.189 HD
ENDBRANCH   8  11
BRANCH   3  21
ATOM     21  C   UNL     1       1.729  -3.513  -4.127  0.00  0.00    +0.422 C 
ATOM     22  F   UNL     1       1.625  -4.217  -5.332  0.00  0.00    -0.166 F 
ATOM     23  F   UNL     1       0.697  -2.572  -4.048  0.00  0.00    -0.166 F 
ATOM     24  F   UNL     1       2.963  -2.857  -4.075  0.00  0.00    -0.166 F 
ENDBRANCH   3  21
BRANCH   1  25
ATOM     25  C   UNL     1       1.950  -2.206   0.002  0.00  0.00    +0.158 C 
BRANCH  25  30
ATOM     26  C   UNL     1       1.220   1.489   0.166  0.00  0.00    +0.003 A 
ATOM     27  C   UNL     1       2.510   1.984   0.046  0.00  0.00    +0.020 A 
ATOM     28  C   UNL     1       3.562   1.097  -0.082  0.00  0.00    +0.111 A 
ATOM     29  N   UNL     1       3.350  -0.205  -0.092  0.00  0.00    -0.258 NA
ATOM     30  C   UNL     1       2.138  -0.711   0.019  0.00  0.00    +0.058 A 
ATOM     31  C   UNL     1       1.037   0.115   0.152  0.00  0.00    +0.025 A 
ENDBRANCH  25  30
ENDBRANCH   1  25
TORSDOF 4
