REMARK  Name = CHEMBL206927
REMARK  12 active torsions:
REMARK  status: ('A' for Active; 'I' for Inactive)
REMARK    1  A    between atoms: C_1  and  O_2
REMARK    2  A    between atoms: O_2  and  C_3
REMARK    3  A    between atoms: C_5  and  N_13
REMARK    4  A    between atoms: C_7  and  O_11
REMARK    5  A    between atoms: C_8  and  O_9
REMARK    6  A    between atoms: O_9  and  C_10
REMARK    7  A    between atoms: O_11  and  C_12
REMARK    8  A    between atoms: C_27  and  C_29
REMARK    9  A    between atoms: N_31  and  C_32
REMARK   10  A    between atoms: C_32  and  C_33
REMARK   11  A    between atoms: C_33  and  O_35
REMARK   12  A    between atoms: O_35  and  C_36
REMARK                            x       y       z     vdW  Elec       q    Type
REMARK                         _______ _______ _______ _____ _____    ______ ____
ROOT
ATOM      1  N   UNL     1      -4.786   0.201   0.037  0.00  0.00    -0.283 N 
ATOM      2  C   UNL     1      -6.011  -0.440  -0.059  0.00  0.00    +0.221 A 
ATOM      3  N   UNL     1      -6.040  -1.768  -0.052  0.00  0.00    -0.222 NA
ATOM      4  C   UNL     1      -7.183  -2.426  -0.142  0.00  0.00    +0.126 A 
ATOM      5  C   UNL     1      -8.367  -1.697  -0.243  0.00  0.00    +0.037 A 
ATOM      6  C   UNL     1      -9.786  -2.038  -0.357  0.00  0.00    +0.031 A 
ATOM      7  C   UNL     1     -10.462  -0.881  -0.420  0.00  0.00    +0.095 A 
ATOM      8  N   UNL     1      -9.585   0.176  -0.355  0.00  0.00    -0.285 N 
ATOM      9  C   UNL     1      -8.300  -0.288  -0.247  0.00  0.00    +0.151 A 
ATOM     10  N   UNL     1      -7.109   0.292  -0.148  0.00  0.00    -0.196 NA
ATOM     11  C   UNL     1      -9.950   1.523  -0.394  0.00  0.00    +0.140 A 
ATOM     12  C   UNL     1     -11.296   1.870  -0.501  0.00  0.00    +0.047 A 
ATOM     13  C   UNL     1     -11.650   3.207  -0.539  0.00  0.00    +0.006 A 
ATOM     14  C   UNL     1     -10.645   4.161  -0.470  0.00  0.00    +0.033 A 
ATOM     15  C   UNL     1      -9.320   3.747  -0.364  0.00  0.00    +0.128 A 
ATOM     16  N   UNL     1      -9.017   2.454  -0.325  0.00  0.00    -0.225 NA
ATOM     17  H   UNL     1      -4.750   1.167   0.119  0.00  0.00    +0.155 HD
ENDROOT
BRANCH   1  20
ATOM     18  C   UNL     1      -1.334  -0.868   0.742  0.00  0.00    +0.167 A 
ATOM     19  C   UNL     1      -2.507  -0.130   0.762  0.00  0.00    +0.073 A 
ATOM     20  C   UNL     1      -3.602  -0.545   0.016  0.00  0.00    +0.041 A 
ATOM     21  C   UNL     1      -3.523  -1.700  -0.750  0.00  0.00    +0.073 A 
ATOM     22  C   UNL     1      -2.351  -2.440  -0.770  0.00  0.00    +0.167 A 
ATOM     23  C   UNL     1      -1.252  -2.021  -0.030  0.00  0.00    +0.204 A 
BRANCH  18  25
ATOM     24  C   UNL     1      -0.416   0.734   2.242  0.00  0.00    +0.277 C 
ATOM     25  O   UNL     1      -0.261  -0.460   1.472  0.00  0.00    -0.491 OA
ENDBRANCH  18  25
BRANCH  23  26
ATOM     26  O   UNL     1      -0.098  -2.743  -0.055  0.00  0.00    -0.488 OA
ATOM     27  C   UNL     1       0.042  -3.777   0.921  0.00  0.00    +0.277 C 
ENDBRANCH  23  26
BRANCH  22  28
ATOM     28  O   UNL     1      -2.274  -3.571  -1.520  0.00  0.00    -0.491 OA
ATOM     29  C   UNL     1      -3.439  -3.939  -2.262  0.00  0.00    +0.277 C 
ENDBRANCH  22  28
ENDBRANCH   1  20
BRANCH  15  30
ATOM     30  C   UNL     1      -8.239   4.757  -0.289  0.00  0.00    +0.263 C 
ATOM     31  O   UNL     1      -8.511   5.941  -0.320  0.00  0.00    -0.269 OA
ATOM     32  N   UNL     1      -6.955   4.362  -0.187  0.00  0.00    -0.300 N 
ATOM     33  H   UNL     1      -6.738   3.417  -0.163  0.00  0.00    +0.150 HD
BRANCH  32  34
ATOM     34  C   UNL     1      -5.885   5.361  -0.113  0.00  0.00    +0.225 C 
BRANCH  34  35
ATOM     35  C   UNL     1      -4.553   4.664  -0.005  0.00  0.00    +0.324 C 
ATOM     36  O   UNL     1      -4.503   3.457   0.009  0.00  0.00    -0.249 OA
BRANCH  35  37
ATOM     37  O   UNL     1      -3.424   5.385   0.076  0.00  0.00    -0.467 OA
ATOM     38  C   UNL     1      -2.197   4.658   0.177  0.00  0.00    +0.280 C 
ENDBRANCH  35  37
ENDBRANCH  34  35
ENDBRANCH  32  34
ENDBRANCH  15  30
TORSDOF 8
