REMARK  Name = CHEMBL488247
REMARK  10 active torsions:
REMARK  status: ('A' for Active; 'I' for Inactive)
REMARK    1  A    between atoms: C_1  and  N_2
REMARK    2  A    between atoms: N_2  and  C_3
REMARK    3  A    between atoms: N_2  and  S_32
REMARK    4  A    between atoms: C_8  and  C_9
REMARK    5  A    between atoms: C_9  and  N_10
REMARK    6  A    between atoms: C_12  and  C_28
REMARK    7  A    between atoms: N_17  and  C_18
REMARK    8  A    between atoms: C_21  and  S_24
REMARK    9  A    between atoms: S_24  and  C_27
REMARK   10  A    between atoms: S_32  and  C_35
REMARK                            x       y       z     vdW  Elec       q    Type
REMARK                         _______ _______ _______ _____ _____    ______ ____
ROOT
ATOM      1  N   UNL     1       3.441   0.143   0.474  0.00  0.00    -0.324 N 
ATOM      2  C   UNL     1       4.516   0.754  -0.150  0.00  0.00    +0.136 A 
ATOM      3  C   UNL     1       5.113   1.885   0.411  0.00  0.00    +0.113 A 
ATOM      4  C   UNL     1       6.182   2.460  -0.247  0.00  0.00    +0.130 A 
ATOM      5  N   UNL     1       6.608   1.927  -1.383  0.00  0.00    -0.222 NA
ATOM      6  C   UNL     1       6.022   0.854  -1.892  0.00  0.00    +0.221 A 
ATOM      7  N   UNL     1       4.998   0.269  -1.290  0.00  0.00    -0.199 NA
ATOM      8  N   UNL     1       6.497   0.327  -3.082  0.00  0.00    -0.284 N 
ATOM      9  H   UNL     1       3.094   0.504   1.306  0.00  0.00    +0.148 HD
ATOM     10  H   UNL     1       6.028  -0.408  -3.509  0.00  0.00    +0.155 HD
ENDROOT
BRANCH   8  11
ATOM     11  C   UNL     1       7.652   0.853  -3.669  0.00  0.00    +0.034 A 
ATOM     12  C   UNL     1       8.674   1.349  -2.870  0.00  0.00    +0.025 A 
ATOM     13  C   UNL     1       9.813   1.868  -3.452  0.00  0.00    +0.029 A 
ATOM     14  C   UNL     1       9.938   1.894  -4.829  0.00  0.00    +0.088 A 
ATOM     15  C   UNL     1       8.922   1.401  -5.628  0.00  0.00    +0.029 A 
ATOM     16  C   UNL     1       7.782   0.875  -5.051  0.00  0.00    +0.025 A 
BRANCH  14  17
ATOM     17  S   UNL     1      11.393   2.557  -5.569  0.00  0.00    -0.006 S 
ATOM     18  O   UNL     1      10.979   2.998  -6.854  0.00  0.00    -0.170 OA
ATOM     19  O   UNL     1      11.897   3.480  -4.613  0.00  0.00    -0.170 OA
ATOM     20  C   UNL     1      12.521   1.144  -5.727  0.00  0.00    +0.200 C 
ENDBRANCH  14  17
ENDBRANCH   8  11
BRANCH   3  21
ATOM     21  C   UNL     1       4.602   2.465   1.705  0.00  0.00    +0.422 C 
ATOM     22  F   UNL     1       5.366   3.585   2.048  0.00  0.00    -0.166 F 
ATOM     23  F   UNL     1       3.264   2.842   1.550  0.00  0.00    -0.166 F 
ATOM     24  F   UNL     1       4.701   1.504   2.717  0.00  0.00    -0.166 F 
ENDBRANCH   3  21
BRANCH   1  25
ATOM     25  C   UNL     1       2.826  -1.046  -0.121  0.00  0.00    +0.140 C 
BRANCH  25  31
ATOM     26  C   UNL     1       0.435  -1.018   0.637  0.00  0.00    +0.055 A 
ATOM     27  C   UNL     1      -0.588  -1.478   1.458  0.00  0.00    +0.025 A 
ATOM     28  C   UNL     1      -0.326  -2.446   2.407  0.00  0.00    +0.002 A 
ATOM     29  C   UNL     1       0.952  -2.957   2.542  0.00  0.00    +0.000 A 
ATOM     30  C   UNL     1       1.972  -2.501   1.727  0.00  0.00    +0.007 A 
ATOM     31  C   UNL     1       1.716  -1.537   0.771  0.00  0.00    -0.008 A 
BRANCH  26  33
ATOM     32  C   UNL     1      -0.317  -0.426  -1.649  0.00  0.00    +0.157 C 
ATOM     33  N   UNL     1       0.173  -0.039  -0.324  0.00  0.00    -0.210 N 
BRANCH  33  34
ATOM     34  S   UNL     1       0.418   1.560   0.034  0.00  0.00    +0.042 S 
ATOM     35  O   UNL     1       1.262   1.550   1.177  0.00  0.00    -0.155 OA
ATOM     36  O   UNL     1       0.858   2.141  -1.186  0.00  0.00    -0.155 OA
ATOM     37  C   UNL     1      -1.223   2.196   0.473  0.00  0.00    +0.218 C 
ENDBRANCH  33  34
ENDBRANCH  26  33
ENDBRANCH  25  31
ENDBRANCH   1  25
TORSDOF 7
