REMARK  Name = CHEMBL472211
REMARK  6 active torsions:
REMARK  status: ('A' for Active; 'I' for Inactive)
REMARK    1  A    between atoms: C_1  and  N_2
REMARK    2  A    between atoms: N_2  and  C_3
REMARK    3  A    between atoms: N_2  and  C_4
REMARK    4  A    between atoms: C_9  and  N_11
REMARK    5  A    between atoms: C_13  and  C_30
REMARK    6  A    between atoms: N_18  and  C_19
REMARK                            x       y       z     vdW  Elec       q    Type
REMARK                         _______ _______ _______ _____ _____    ______ ____
ROOT
ATOM      1  N   UNL     1       0.929   1.000   3.108  0.00  0.00    -0.327 N 
ATOM      2  C   UNL     1       0.405   1.767   4.136  0.00  0.00    +0.136 A 
ATOM      3  C   UNL     1       1.242   2.304   5.117  0.00  0.00    +0.113 A 
ATOM      4  C   UNL     1       0.676   3.062   6.123  0.00  0.00    +0.130 A 
ATOM      5  N   UNL     1      -0.634   3.258   6.128  0.00  0.00    -0.222 NA
ATOM      6  C   UNL     1      -1.405   2.736   5.185  0.00  0.00    +0.221 A 
ATOM      7  N   UNL     1      -0.900   2.008   4.200  0.00  0.00    -0.199 NA
ATOM      8  N   UNL     1      -2.770   2.963   5.226  0.00  0.00    -0.284 N 
ATOM      9  H   UNL     1       1.883   0.828   3.069  0.00  0.00    +0.148 HD
ATOM     10  H   UNL     1      -3.355   2.523   4.590  0.00  0.00    +0.155 HD
ENDROOT
BRANCH   8  11
ATOM     11  C   UNL     1      -3.307   3.828   6.185  0.00  0.00    +0.034 A 
ATOM     12  C   UNL     1      -2.630   4.995   6.516  0.00  0.00    +0.025 A 
ATOM     13  C   UNL     1      -3.172   5.833   7.472  0.00  0.00    +0.029 A 
ATOM     14  C   UNL     1      -4.364   5.511   8.079  0.00  0.00    +0.092 A 
ATOM     15  C   UNL     1      -5.068   4.361   7.758  0.00  0.00    -0.019 A 
ATOM     16  C   UNL     1      -4.508   3.518   6.793  0.00  0.00    +0.028 A 
ATOM     17  C   UNL     1      -6.382   4.155   8.472  0.00  0.00    +0.060 C 
ATOM     18  C   UNL     1      -6.460   4.981   9.776  0.00  0.00    +0.176 C 
ATOM     19  S   UNL     1      -5.304   6.345   9.340  0.00  0.00    -0.003 S 
ATOM     20  O   UNL     1      -4.391   6.599  10.400  0.00  0.00    -0.169 OA
ATOM     21  O   UNL     1      -5.987   7.402   8.680  0.00  0.00    -0.169 OA
ENDBRANCH   8  11
BRANCH   1  26
ATOM     22  C   UNL     1       0.829   0.199   0.783  0.00  0.00    -0.049 C 
ATOM     23  C   UNL     1       0.737  -1.313   0.492  0.00  0.00    -0.013 C 
ATOM     24  C   UNL     1       0.455  -1.950   1.876  0.00  0.00    +0.000 C 
ATOM     25  C   UNL     1      -0.502  -0.925   2.535  0.00  0.00    +0.020 C 
ATOM     26  C   UNL     1       0.042   0.447   2.082  0.00  0.00    +0.058 C 
BRANCH  22  28
ATOM     27  C   UNL     1       0.279   2.396  -0.009  0.00  0.00    -0.096 C 
ATOM     28  N   UNL     1       0.230   0.961  -0.321  0.00  0.00    +0.379 N 
ATOM     29  C   UNL     1       0.980   0.703  -1.557  0.00  0.00    -0.096 C 
ATOM     30  H   UNL     1      -0.730   0.676  -0.445  0.00  0.00    -0.082 HD
ENDBRANCH  22  28
ENDBRANCH   1  26
BRANCH   3  31
ATOM     31  C   UNL     1       2.729   2.060   5.079  0.00  0.00    +0.422 C 
ATOM     32  F   UNL     1       3.334   2.702   6.165  0.00  0.00    -0.166 F 
ATOM     33  F   UNL     1       2.978   0.686   5.151  0.00  0.00    -0.166 F 
ATOM     34  F   UNL     1       3.254   2.567   3.886  0.00  0.00    -0.166 F 
ENDBRANCH   3  31
TORSDOF 4
