REMARK  Name = CHEMBL470314
REMARK  6 active torsions:
REMARK  status: ('A' for Active; 'I' for Inactive)
REMARK    1  A    between atoms: C_1  and  N_2
REMARK    2  A    between atoms: C_9  and  N_11
REMARK    3  A    between atoms: C_15  and  C_26
REMARK    4  A    between atoms: C_16  and  N_18
REMARK    5  A    between atoms: N_18  and  C_19
REMARK    6  A    between atoms: C_19  and  C_20
REMARK                            x       y       z     vdW  Elec       q    Type
REMARK                         _______ _______ _______ _____ _____    ______ ____
ROOT
ATOM      1  N   UNL     1       0.094  -3.930   3.903  0.00  0.00    -0.284 N 
ATOM      2  C   UNL     1       0.207  -3.643   5.253  0.00  0.00    +0.221 A 
ATOM      3  N   UNL     1       0.186  -2.379   5.649  0.00  0.00    -0.222 NA
ATOM      4  C   UNL     1       0.292  -2.065   6.932  0.00  0.00    +0.130 A 
ATOM      5  C   UNL     1       0.426  -3.074   7.866  0.00  0.00    +0.113 A 
ATOM      6  C   UNL     1       0.446  -4.397   7.419  0.00  0.00    +0.136 A 
ATOM      7  N   UNL     1       0.329  -4.640   6.117  0.00  0.00    -0.199 NA
ATOM      8  H   UNL     1       0.028  -4.851   3.607  0.00  0.00    +0.155 HD
ENDROOT
BRANCH   1  17
ATOM      9  C   UNL     1      -0.432   0.598  -0.940  0.00  0.00    +0.149 C 
ATOM     10  N   UNL     1       0.184   0.322   0.360  0.00  0.00    -0.350 N 
ATOM     11  C   UNL     1       1.005   1.181   1.039  0.00  0.00    +0.086 A 
ATOM     12  C   UNL     1       1.396   0.623   2.196  0.00  0.00    +0.027 A 
ATOM     13  C   UNL     1       0.776  -0.703   2.264  0.00  0.00    +0.002 A 
ATOM     14  C   UNL     1       0.020  -0.839   1.086  0.00  0.00    +0.049 A 
ATOM     15  C   UNL     1      -0.699  -2.009   0.864  0.00  0.00    +0.028 A 
ATOM     16  C   UNL     1      -0.669  -3.023   1.795  0.00  0.00    +0.025 A 
ATOM     17  C   UNL     1       0.076  -2.890   2.965  0.00  0.00    +0.034 A 
ATOM     18  C   UNL     1       0.803  -1.738   3.200  0.00  0.00    +0.033 A 
ENDBRANCH   1  17
BRANCH   5  19
ATOM     19  C   UNL     1       0.549  -2.754   9.333  0.00  0.00    +0.422 C 
ATOM     20  F   UNL     1       0.502  -1.368   9.514  0.00  0.00    -0.166 F 
ATOM     21  F   UNL     1      -0.506  -3.352  10.031  0.00  0.00    -0.166 F 
ATOM     22  F   UNL     1       1.766  -3.247   9.817  0.00  0.00    -0.166 F 
ENDBRANCH   5  19
BRANCH   6  23
ATOM     23  N   UNL     1       0.579  -5.441   8.319  0.00  0.00    -0.323 N 
ATOM     24  H   UNL     1       0.660  -5.256   9.268  0.00  0.00    +0.148 HD
BRANCH  23  25
ATOM     25  C   UNL     1       0.598  -6.825   7.839  0.00  0.00    +0.158 C 
BRANCH  25  26
ATOM     26  C   UNL     1       0.752  -7.761   9.010  0.00  0.00    +0.058 A 
ATOM     27  C   UNL     1      -0.371  -8.327   9.584  0.00  0.00    +0.025 A 
ATOM     28  C   UNL     1      -0.218  -9.187  10.661  0.00  0.00    +0.003 A 
ATOM     29  C   UNL     1       1.064  -9.447  11.122  0.00  0.00    +0.020 A 
ATOM     30  C   UNL     1       2.139  -8.844  10.497  0.00  0.00    +0.111 A 
ATOM     31  N   UNL     1       1.956  -8.035   9.471  0.00  0.00    -0.258 NA
ENDBRANCH  25  26
ENDBRANCH  23  25
ENDBRANCH   6  23
TORSDOF 5
