REMARK  Name = CHEMBL471357
REMARK  4 active torsions:
REMARK  status: ('A' for Active; 'I' for Inactive)
REMARK    1  A    between atoms: C_5  and  C_7
REMARK    2  A    between atoms: C_7  and  N_8
REMARK    3  A    between atoms: C_10  and  C_26
REMARK    4  A    between atoms: N_15  and  C_16
REMARK                            x       y       z     vdW  Elec       q    Type
REMARK                         _______ _______ _______ _____ _____    ______ ____
ROOT
ATOM      1  N   UNL     1       1.688  -2.660  -1.405  0.00  0.00    -0.323 N 
ATOM      2  C   UNL     1       1.749  -4.023  -1.648  0.00  0.00    +0.136 A 
ATOM      3  C   UNL     1       2.054  -4.502  -2.924  0.00  0.00    +0.113 A 
ATOM      4  C   UNL     1       2.104  -5.868  -3.119  0.00  0.00    +0.130 A 
ATOM      5  N   UNL     1       1.862  -6.679  -2.099  0.00  0.00    -0.222 NA
ATOM      6  C   UNL     1       1.575  -6.196  -0.899  0.00  0.00    +0.221 A 
ATOM      7  N   UNL     1       1.523  -4.893  -0.669  0.00  0.00    -0.199 NA
ATOM      8  N   UNL     1       1.329  -7.076   0.141  0.00  0.00    -0.284 N 
ATOM      9  H   UNL     1       1.854  -2.031  -2.125  0.00  0.00    +0.148 HD
ATOM     10  H   UNL     1       1.197  -6.739   1.041  0.00  0.00    +0.155 HD
ENDROOT
BRANCH   8  11
ATOM     11  C   UNL     1       1.271  -8.453  -0.105  0.00  0.00    +0.034 A 
ATOM     12  C   UNL     1       1.706  -9.354   0.858  0.00  0.00    +0.025 A 
ATOM     13  C   UNL     1       1.649 -10.710   0.618  0.00  0.00    +0.025 A 
ATOM     14  C   UNL     1       1.155 -11.188  -0.594  0.00  0.00    +0.037 A 
ATOM     15  C   UNL     1       0.722 -10.280  -1.552  0.00  0.00    -0.016 A 
ATOM     16  C   UNL     1       0.771  -8.925  -1.313  0.00  0.00    +0.029 A 
ATOM     17  C   UNL     1       0.252 -11.098  -2.732  0.00  0.00    +0.133 C 
ATOM     18  C   UNL     1       0.480 -12.531  -2.303  0.00  0.00    +0.222 C 
ATOM     19  O   UNL     1       0.239 -13.526  -2.954  0.00  0.00    -0.275 OA
ATOM     20  N   UNL     1       1.000 -12.495  -1.064  0.00  0.00    -0.285 N 
ATOM     21  H   UNL     1       1.241 -13.285  -0.555  0.00  0.00    +0.155 HD
ENDBRANCH   8  11
BRANCH   3  22
ATOM     22  C   UNL     1       2.322  -3.550  -4.061  0.00  0.00    +0.422 C 
ATOM     23  F   UNL     1       2.601  -4.279  -5.223  0.00  0.00    -0.166 F 
ATOM     24  F   UNL     1       1.196  -2.748  -4.272  0.00  0.00    -0.166 F 
ATOM     25  F   UNL     1       3.419  -2.742  -3.743  0.00  0.00    -0.166 F 
ENDBRANCH   3  22
BRANCH   1  26
ATOM     26  C   UNL     1       1.373  -2.169  -0.061  0.00  0.00    +0.158 C 
BRANCH  26  31
ATOM     27  C   UNL     1       0.185   1.404  -0.241  0.00  0.00    +0.003 A 
ATOM     28  C   UNL     1       1.396   2.058  -0.070  0.00  0.00    +0.020 A 
ATOM     29  C   UNL     1       2.547   1.311   0.097  0.00  0.00    +0.111 A 
ATOM     30  N   UNL     1       2.502  -0.007   0.095  0.00  0.00    -0.258 NA
ATOM     31  C   UNL     1       1.369  -0.662  -0.066  0.00  0.00    +0.058 A 
ATOM     32  C   UNL     1       0.178   0.018  -0.238  0.00  0.00    +0.025 A 
ENDBRANCH  26  31
ENDBRANCH   1  26
TORSDOF 4
