REMARK  Name = CHEMBL487229
REMARK  8 active torsions:
REMARK  status: ('A' for Active; 'I' for Inactive)
REMARK    1  A    between atoms: C_1  and  N_2
REMARK    2  A    between atoms: N_2  and  C_3
REMARK    3  A    between atoms: N_2  and  S_32
REMARK    4  A    between atoms: C_8  and  C_9
REMARK    5  A    between atoms: C_9  and  N_10
REMARK    6  A    between atoms: C_12  and  C_28
REMARK    7  A    between atoms: N_17  and  C_18
REMARK    8  A    between atoms: S_32  and  C_35
REMARK                            x       y       z     vdW  Elec       q    Type
REMARK                         _______ _______ _______ _____ _____    ______ ____
ROOT
ATOM      1  N   UNL     1       3.407   0.178   0.476  0.00  0.00    -0.324 N 
ATOM      2  C   UNL     1       4.478   0.801  -0.145  0.00  0.00    +0.136 A 
ATOM      3  C   UNL     1       5.060   1.939   0.419  0.00  0.00    +0.113 A 
ATOM      4  C   UNL     1       6.126   2.526  -0.234  0.00  0.00    +0.130 A 
ATOM      5  N   UNL     1       6.562   1.998  -1.369  0.00  0.00    -0.222 NA
ATOM      6  C   UNL     1       5.990   0.918  -1.880  0.00  0.00    +0.221 A 
ATOM      7  N   UNL     1       4.970   0.321  -1.282  0.00  0.00    -0.199 NA
ATOM      8  N   UNL     1       6.476   0.396  -3.069  0.00  0.00    -0.284 N 
ATOM      9  H   UNL     1       3.054   0.534   1.306  0.00  0.00    +0.148 HD
ATOM     10  H   UNL     1       6.017  -0.344  -3.497  0.00  0.00    +0.155 HD
ENDROOT
BRANCH   8  11
ATOM     11  C   UNL     1       7.623   0.932  -3.648  0.00  0.00    +0.034 A 
ATOM     12  C   UNL     1       7.751   0.967  -5.034  0.00  0.00    +0.024 A 
ATOM     13  C   UNL     1       8.882   1.496  -5.612  0.00  0.00    +0.015 A 
ATOM     14  C   UNL     1       9.907   2.002  -4.805  0.00  0.00    +0.041 A 
ATOM     15  C   UNL     1       9.770   1.963  -3.414  0.00  0.00    -0.016 A 
ATOM     16  C   UNL     1       8.639   1.440  -2.841  0.00  0.00    +0.029 A 
ATOM     17  C   UNL     1      11.027   2.575  -2.845  0.00  0.00    +0.140 C 
ATOM     18  N   UNL     1      11.857   2.949  -3.996  0.00  0.00    -0.307 N 
ATOM     19  C   UNL     1      11.207   2.617  -5.125  0.00  0.00    +0.245 C 
ATOM     20  O   UNL     1      11.631   2.797  -6.250  0.00  0.00    -0.270 OA
ATOM     21  H   UNL     1      12.730   3.368  -3.950  0.00  0.00    +0.149 HD
ENDBRANCH   8  11
BRANCH   3  22
ATOM     22  C   UNL     1       4.537   2.512   1.711  0.00  0.00    +0.422 C 
ATOM     23  F   UNL     1       5.287   3.641   2.057  0.00  0.00    -0.166 F 
ATOM     24  F   UNL     1       3.196   2.875   1.550  0.00  0.00    -0.166 F 
ATOM     25  F   UNL     1       4.643   1.553   2.724  0.00  0.00    -0.166 F 
ENDBRANCH   3  22
BRANCH   1  26
ATOM     26  C   UNL     1       2.809  -1.018  -0.122  0.00  0.00    +0.140 C 
BRANCH  26  32
ATOM     27  C   UNL     1       0.414  -1.017   0.627  0.00  0.00    +0.055 A 
ATOM     28  C   UNL     1      -0.606  -1.488   1.443  0.00  0.00    +0.025 A 
ATOM     29  C   UNL     1      -0.338  -2.453   2.394  0.00  0.00    +0.002 A 
ATOM     30  C   UNL     1       0.946  -2.950   2.533  0.00  0.00    +0.000 A 
ATOM     31  C   UNL     1       1.964  -2.483   1.723  0.00  0.00    +0.007 A 
ATOM     32  C   UNL     1       1.700  -1.522   0.766  0.00  0.00    -0.008 A 
BRANCH  27  34
ATOM     33  C   UNL     1      -0.335  -0.433  -1.663  0.00  0.00    +0.157 C 
ATOM     34  N   UNL     1       0.146  -0.041  -0.336  0.00  0.00    -0.210 N 
BRANCH  34  35
ATOM     35  S   UNL     1       0.371   1.560   0.023  0.00  0.00    +0.042 S 
ATOM     36  O   UNL     1       1.210   1.560   1.170  0.00  0.00    -0.155 OA
ATOM     37  O   UNL     1       0.810   2.146  -1.195  0.00  0.00    -0.155 OA
ATOM     38  C   UNL     1      -1.279   2.178   0.455  0.00  0.00    +0.218 C 
ENDBRANCH  34  35
ENDBRANCH  27  34
ENDBRANCH  26  32
ENDBRANCH   1  26
TORSDOF 6
