REMARK  Name = CHEMBL201511
REMARK  8 active torsions:
REMARK  status: ('A' for Active; 'I' for Inactive)
REMARK    1  A    between atoms: C_1  and  O_2
REMARK    2  A    between atoms: O_2  and  C_3
REMARK    3  A    between atoms: C_5  and  C_13
REMARK    4  A    between atoms: C_7  and  O_11
REMARK    5  A    between atoms: C_8  and  O_9
REMARK    6  A    between atoms: O_9  and  C_10
REMARK    7  A    between atoms: O_11  and  C_12
REMARK    8  A    between atoms: C_14  and  C_20
REMARK                            x       y       z     vdW  Elec       q    Type
REMARK                         _______ _______ _______ _____ _____    ______ ____
ROOT
ATOM      1  C   UNL     1       2.455   0.309   4.191  0.00  0.00    +0.057 C 
ATOM      2  C   UNL     1       2.074   0.348   5.526  0.00  0.00    +0.059 C 
ATOM      3  C   UNL     1       2.997   1.300   6.188  0.00  0.00    +0.252 C 
ATOM      4  O   UNL     1       2.981   1.602   7.364  0.00  0.00    -0.270 OA
ATOM      5  N   UNL     1       3.854   1.772   5.267  0.00  0.00    -0.248 N 
ATOM      6  C   UNL     1       3.601   1.229   4.065  0.00  0.00    +0.252 C 
ATOM      7  O   UNL     1       4.214   1.459   3.041  0.00  0.00    -0.270 OA
ATOM      8  H   UNL     1       4.560   2.413   5.447  0.00  0.00    +0.158 HD
ENDROOT
BRANCH   2   9
ATOM      9  C   UNL     1       0.977  -0.402   6.154  0.00  0.00    +0.013 A 
ATOM     10  C   UNL     1       0.973  -1.731   6.473  0.00  0.00    +0.092 A 
ATOM     11  N   UNL     1      -0.216  -2.062   7.040  0.00  0.00    -0.360 N 
ATOM     12  H   UNL     1      -0.455  -2.950   7.350  0.00  0.00    +0.165 HD
ATOM     13  C   UNL     1      -1.038  -0.955   7.114  0.00  0.00    +0.047 A 
ATOM     14  C   UNL     1      -0.332   0.132   6.571  0.00  0.00    +0.008 A 
ATOM     15  C   UNL     1      -0.922   1.392   6.520  0.00  0.00    +0.010 A 
ATOM     16  C   UNL     1      -2.200   1.567   7.007  0.00  0.00    +0.001 A 
ATOM     17  C   UNL     1      -2.897   0.496   7.546  0.00  0.00    +0.002 A 
ATOM     18  C   UNL     1      -2.327  -0.758   7.596  0.00  0.00    +0.026 A 
ENDBRANCH   2   9
BRANCH   1  21
ATOM     19  C   UNL     1       0.626  -0.619   1.042  0.00  0.00    +0.166 A 
ATOM     20  C   UNL     1       1.200   0.137   2.048  0.00  0.00    +0.058 A 
ATOM     21  C   UNL     1       1.841  -0.495   3.117  0.00  0.00    -0.005 A 
ATOM     22  C   UNL     1       1.900  -1.891   3.166  0.00  0.00    +0.058 A 
ATOM     23  C   UNL     1       1.324  -2.642   2.157  0.00  0.00    +0.166 A 
ATOM     24  C   UNL     1       0.682  -2.009   1.097  0.00  0.00    +0.204 A 
BRANCH  19  26
ATOM     25  C   UNL     1      -0.017   1.425   0.010  0.00  0.00    +0.277 C 
ATOM     26  O   UNL     1       0.002  -0.004   0.002  0.00  0.00    -0.491 OA
ENDBRANCH  19  26
BRANCH  24  27
ATOM     27  O   UNL     1       0.112  -2.750   0.109  0.00  0.00    -0.488 OA
ATOM     28  C   UNL     1       0.937  -3.085  -1.009  0.00  0.00    +0.277 C 
ENDBRANCH  24  27
BRANCH  23  29
ATOM     29  O   UNL     1       1.381  -3.999   2.205  0.00  0.00    -0.491 OA
ATOM     30  C   UNL     1       2.050  -4.582   3.324  0.00  0.00    +0.277 C 
ENDBRANCH  23  29
ENDBRANCH   1  21
TORSDOF 5
