REMARK  Name = CHEMBL383241
REMARK  7 active torsions:
REMARK  status: ('A' for Active; 'I' for Inactive)
REMARK    1  A    between atoms: C_1  and  O_2
REMARK    2  A    between atoms: O_2  and  C_3
REMARK    3  A    between atoms: C_5  and  N_13
REMARK    4  A    between atoms: C_7  and  O_11
REMARK    5  A    between atoms: C_8  and  O_9
REMARK    6  A    between atoms: O_9  and  C_10
REMARK    7  A    between atoms: O_11  and  C_12
REMARK                            x       y       z     vdW  Elec       q    Type
REMARK                         _______ _______ _______ _____ _____    ______ ____
ROOT
ATOM      1  N   UNL     1      -4.786   0.201   0.038  0.00  0.00    -0.285 N 
ATOM      2  C   UNL     1      -6.010  -0.440  -0.058  0.00  0.00    +0.199 A 
ATOM      3  N   UNL     1      -6.045  -1.764  -0.053  0.00  0.00    -0.334 N 
ATOM      4  C   UNL     1      -7.199  -2.409  -0.144  0.00  0.00    +0.092 A 
ATOM      5  C   UNL     1      -8.367  -1.683  -0.244  0.00  0.00    +0.010 A 
ATOM      6  C   UNL     1      -8.309  -0.293  -0.247  0.00  0.00    +0.135 A 
ATOM      7  N   UNL     1      -7.111   0.289  -0.147  0.00  0.00    -0.200 NA
ATOM      8  N   UNL     1      -9.568   0.272  -0.353  0.00  0.00    -0.269 N 
ATOM      9  C   UNL     1     -10.590  -0.777  -0.431  0.00  0.00    +0.118 C 
ATOM     10  C   UNL     1      -9.813  -2.103  -0.360  0.00  0.00    +0.059 C 
ATOM     11  C   UNL     1      -9.827   1.639  -0.382  0.00  0.00    +0.127 A 
ATOM     12  C   UNL     1      -8.768   2.541  -0.412  0.00  0.00    +0.044 A 
ATOM     13  C   UNL     1      -9.040   3.897  -0.440  0.00  0.00    +0.005 A 
ATOM     14  C   UNL     1     -10.367   4.307  -0.437  0.00  0.00    +0.020 A 
ATOM     15  C   UNL     1     -11.368   3.357  -0.407  0.00  0.00    +0.113 A 
ATOM     16  N   UNL     1     -11.079   2.070  -0.386  0.00  0.00    -0.240 NA
ATOM     17  H   UNL     1      -4.750   1.166   0.133  0.00  0.00    +0.155 HD
ATOM     18  H   UNL     1      -5.218  -2.266   0.018  0.00  0.00    +0.168 HD
ENDROOT
BRANCH   1  21
ATOM     19  C   UNL     1      -2.293  -2.323  -0.947  0.00  0.00    +0.167 A 
ATOM     20  C   UNL     1      -3.466  -1.586  -0.907  0.00  0.00    +0.073 A 
ATOM     21  C   UNL     1      -3.601  -0.543  -0.001  0.00  0.00    +0.041 A 
ATOM     22  C   UNL     1      -2.561  -0.238   0.867  0.00  0.00    +0.073 A 
ATOM     23  C   UNL     1      -1.388  -0.975   0.829  0.00  0.00    +0.167 A 
ATOM     24  C   UNL     1      -1.254  -2.022  -0.075  0.00  0.00    +0.204 A 
BRANCH  19  26
ATOM     25  C   UNL     1      -3.270  -3.599  -2.701  0.00  0.00    +0.277 C 
ATOM     26  O   UNL     1      -2.162  -3.345  -1.835  0.00  0.00    -0.491 OA
ENDBRANCH  19  26
BRANCH  24  27
ATOM     27  O   UNL     1      -0.103  -2.749  -0.110  0.00  0.00    -0.488 OA
ATOM     28  C   UNL     1       0.930  -2.288  -0.984  0.00  0.00    +0.277 C 
ENDBRANCH  24  27
BRANCH  23  29
ATOM     29  O   UNL     1      -0.369  -0.675   1.678  0.00  0.00    -0.491 OA
ATOM     30  C   UNL     1      -0.577   0.411   2.583  0.00  0.00    +0.277 C 
ENDBRANCH  23  29
ENDBRANCH   1  21
TORSDOF 4
