REMARK  Name = CHEMBL207614
REMARK  9 active torsions:
REMARK  status: ('A' for Active; 'I' for Inactive)
REMARK    1  A    between atoms: C_1  and  C_2
REMARK    2  A    between atoms: C_6  and  N_8
REMARK    3  A    between atoms: N_17  and  C_18
REMARK    4  A    between atoms: C_20  and  O_28
REMARK    5  A    between atoms: C_21  and  O_26
REMARK    6  A    between atoms: C_22  and  O_24
REMARK    7  A    between atoms: O_24  and  C_25
REMARK    8  A    between atoms: O_26  and  C_27
REMARK    9  A    between atoms: O_28  and  C_29
REMARK                            x       y       z     vdW  Elec       q    Type
REMARK                         _______ _______ _______ _____ _____    ______ ____
ROOT
ATOM      1  N   UNL     1      -0.267  -2.517   2.607  0.00  0.00    -0.301 N 
ATOM      2  C   UNL     1       0.635  -2.314   3.624  0.00  0.00    +0.094 A 
ATOM      3  C   UNL     1       0.538  -3.305   4.524  0.00  0.00    +0.031 A 
ATOM      4  C   UNL     1      -0.506  -4.213   4.047  0.00  0.00    +0.037 A 
ATOM      5  C   UNL     1      -0.982  -3.663   2.837  0.00  0.00    +0.150 A 
ATOM      6  N   UNL     1      -1.952  -4.297   2.188  0.00  0.00    -0.196 NA
ATOM      7  C   UNL     1      -2.460  -5.419   2.671  0.00  0.00    +0.221 A 
ATOM      8  N   UNL     1      -2.037  -5.961   3.807  0.00  0.00    -0.222 NA
ATOM      9  C   UNL     1      -1.070  -5.400   4.513  0.00  0.00    +0.126 A 
ATOM     10  N   UNL     1      -3.472  -6.052   1.965  0.00  0.00    -0.283 N 
ATOM     11  H   UNL     1      -3.739  -5.717   1.095  0.00  0.00    +0.155 HD
ENDROOT
BRANCH   1  17
ATOM     12  C   UNL     1      -0.924   2.008   0.797  0.00  0.00    +0.044 C 
ATOM     13  C   UNL     1      -0.755   0.524   0.596  0.00  0.00    -0.048 A 
ATOM     14  C   UNL     1      -0.766  -0.006  -0.681  0.00  0.00    +0.003 A 
ATOM     15  C   UNL     1      -0.611  -1.367  -0.870  0.00  0.00    +0.002 A 
ATOM     16  C   UNL     1      -0.446  -2.202   0.218  0.00  0.00    +0.026 A 
ATOM     17  C   UNL     1      -0.434  -1.673   1.502  0.00  0.00    +0.048 A 
ATOM     18  C   UNL     1      -0.584  -0.305   1.687  0.00  0.00    +0.029 A 
ENDBRANCH   1  17
BRANCH  10  19
ATOM     19  C   UNL     1      -4.108  -7.174   2.509  0.00  0.00    +0.041 A 
ATOM     20  C   UNL     1      -4.296  -7.268   3.882  0.00  0.00    +0.073 A 
ATOM     21  C   UNL     1      -4.926  -8.379   4.421  0.00  0.00    +0.167 A 
ATOM     22  C   UNL     1      -5.370  -9.398   3.587  0.00  0.00    +0.204 A 
ATOM     23  C   UNL     1      -5.182  -9.303   2.213  0.00  0.00    +0.167 A 
ATOM     24  C   UNL     1      -4.557  -8.189   1.675  0.00  0.00    +0.073 A 
BRANCH  23  25
ATOM     25  O   UNL     1      -5.616 -10.300   1.397  0.00  0.00    -0.491 OA
ATOM     26  C   UNL     1      -5.389 -10.136  -0.004  0.00  0.00    +0.277 C 
ENDBRANCH  23  25
BRANCH  22  27
ATOM     27  O   UNL     1      -5.989 -10.490   4.116  0.00  0.00    -0.488 OA
ATOM     28  C   UNL     1      -7.410 -10.426   4.255  0.00  0.00    +0.277 C 
ENDBRANCH  22  27
BRANCH  21  29
ATOM     29  O   UNL     1      -5.109  -8.471   5.765  0.00  0.00    -0.491 OA
ATOM     30  C   UNL     1      -4.627  -7.387   6.561  0.00  0.00    +0.277 C 
ENDBRANCH  21  29
ENDBRANCH  10  19
TORSDOF 5
