REMARK  Name = CHEMBL204686
REMARK  16 active torsions:
REMARK  status: ('A' for Active; 'I' for Inactive)
REMARK    1  A    between atoms: C_1  and  N_2
REMARK    2  A    between atoms: N_2  and  C_3
REMARK    3  A    between atoms: N_2  and  C_4
REMARK    4  A    between atoms: C_4  and  C_5
REMARK    5  A    between atoms: C_5  and  N_6
REMARK    6  A    between atoms: C_7  and  C_9
REMARK    7  A    between atoms: C_9  and  C_10
REMARK    8  A    between atoms: C_10  and  C_11
REMARK    9  A    between atoms: C_15  and  N_17
REMARK   10  A    between atoms: N_26  and  C_27
REMARK   11  A    between atoms: C_29  and  O_37
REMARK   12  A    between atoms: C_30  and  O_35
REMARK   13  A    between atoms: C_31  and  O_33
REMARK   14  A    between atoms: O_33  and  C_34
REMARK   15  A    between atoms: O_35  and  C_36
REMARK   16  A    between atoms: O_37  and  C_38
REMARK                            x       y       z     vdW  Elec       q    Type
REMARK                         _______ _______ _______ _____ _____    ______ ____
ROOT
ATOM      1  N   UNL     1      -8.105  -7.376  -2.948  0.00  0.00    -0.301 N 
ATOM      2  C   UNL     1      -8.269  -6.384  -3.884  0.00  0.00    +0.094 A 
ATOM      3  C   UNL     1      -9.188  -6.756  -4.788  0.00  0.00    +0.031 A 
ATOM      4  C   UNL     1      -9.648  -8.091  -4.402  0.00  0.00    +0.037 A 
ATOM      5  C   UNL     1      -8.927  -8.433  -3.238  0.00  0.00    +0.150 A 
ATOM      6  N   UNL     1      -9.153  -9.615  -2.674  0.00  0.00    -0.196 NA
ATOM      7  C   UNL     1     -10.033 -10.451  -3.199  0.00  0.00    +0.221 A 
ATOM      8  N   UNL     1     -10.726 -10.161  -4.294  0.00  0.00    -0.222 NA
ATOM      9  C   UNL     1     -10.569  -9.003  -4.914  0.00  0.00    +0.126 A 
ATOM     10  N   UNL     1     -10.241 -11.675  -2.583  0.00  0.00    -0.283 N 
ATOM     11  H   UNL     1      -9.806 -11.873  -1.739  0.00  0.00    +0.155 HD
ENDROOT
BRANCH   1  16
ATOM     12  C   UNL     1      -5.029  -6.902  -0.988  0.00  0.00    -0.045 A 
ATOM     13  C   UNL     1      -5.480  -7.204   0.284  0.00  0.00    +0.004 A 
ATOM     14  C   UNL     1      -6.800  -7.563   0.486  0.00  0.00    +0.002 A 
ATOM     15  C   UNL     1      -7.672  -7.621  -0.584  0.00  0.00    +0.026 A 
ATOM     16  C   UNL     1      -7.223  -7.318  -1.862  0.00  0.00    +0.048 A 
ATOM     17  C   UNL     1      -5.898  -6.952  -2.060  0.00  0.00    +0.029 A 
BRANCH  12  18
ATOM     18  C   UNL     1      -3.589  -6.511  -1.203  0.00  0.00    +0.044 C 
BRANCH  18  19
ATOM     19  C   UNL     1      -3.446  -4.994  -1.062  0.00  0.00    +0.100 C 
BRANCH  19  21
ATOM     20  N   UNL     1      -1.642  -3.308  -1.200  0.00  0.00    -0.317 N 
ATOM     21  C   UNL     1      -2.007  -4.603  -1.277  0.00  0.00    +0.213 C 
ATOM     22  O   UNL     1      -1.177  -5.454  -1.520  0.00  0.00    -0.276 OA
ATOM     23  H   UNL     1      -2.305  -2.627  -1.007  0.00  0.00    +0.149 HD
BRANCH  20  24
ATOM     24  C   UNL     1      -0.243  -2.928  -1.410  0.00  0.00    +0.085 C 
BRANCH  24  25
ATOM     25  C   UNL     1      -0.100  -1.411  -1.269  0.00  0.00    -0.061 C 
BRANCH  25  27
ATOM     26  C   UNL     1       1.421   0.434  -1.462  0.00  0.00    -0.097 C 
ATOM     27  N   UNL     1       1.303  -1.030  -1.478  0.00  0.00    +0.377 N 
ATOM     28  C   UNL     1       2.131  -1.599  -0.407  0.00  0.00    -0.097 C 
ATOM     29  H   UNL     1       1.618  -1.383  -2.370  0.00  0.00    -0.083 HD
ENDBRANCH  25  27
ENDBRANCH  24  25
ENDBRANCH  20  24
ENDBRANCH  19  21
ENDBRANCH  18  19
ENDBRANCH  12  18
ENDBRANCH   1  16
BRANCH  10  30
ATOM     30  C   UNL     1     -11.078 -12.626  -3.179  0.00  0.00    +0.041 A 
ATOM     31  C   UNL     1     -11.142 -12.724  -4.562  0.00  0.00    +0.073 A 
ATOM     32  C   UNL     1     -11.971 -13.665  -5.153  0.00  0.00    +0.167 A 
ATOM     33  C   UNL     1     -12.738 -14.510  -4.360  0.00  0.00    +0.204 A 
ATOM     34  C   UNL     1     -12.674 -14.411  -2.976  0.00  0.00    +0.167 A 
ATOM     35  C   UNL     1     -11.840 -13.474  -2.386  0.00  0.00    +0.073 A 
BRANCH  34  36
ATOM     36  O   UNL     1     -13.424 -15.238  -2.199  0.00  0.00    -0.491 OA
ATOM     37  C   UNL     1     -13.308 -15.081  -0.784  0.00  0.00    +0.277 C 
ENDBRANCH  34  36
BRANCH  33  38
ATOM     38  O   UNL     1     -13.553 -15.434  -4.940  0.00  0.00    -0.488 OA
ATOM     39  C   UNL     1     -12.991 -16.722  -5.201  0.00  0.00    +0.277 C 
ENDBRANCH  33  38
BRANCH  32  40
ATOM     40  O   UNL     1     -12.034 -13.761  -6.508  0.00  0.00    -0.491 OA
ATOM     41  C   UNL     1     -11.218 -12.860  -7.261  0.00  0.00    +0.277 C 
ENDBRANCH  32  40
ENDBRANCH  10  30
TORSDOF 11
