REMARK  Name = CHEMBL207499
REMARK  15 active torsions:
REMARK  status: ('A' for Active; 'I' for Inactive)
REMARK    1  A    between atoms: C_1  and  C_2
REMARK    2  A    between atoms: C_2  and  C_3
REMARK    3  A    between atoms: C_2  and  C_4
REMARK    4  A    between atoms: C_4  and  N_5
REMARK    5  A    between atoms: C_6  and  C_8
REMARK    6  A    between atoms: C_8  and  C_9
REMARK    7  A    between atoms: C_9  and  C_10
REMARK    8  A    between atoms: C_14  and  N_16
REMARK    9  A    between atoms: N_25  and  C_26
REMARK   10  A    between atoms: C_28  and  O_36
REMARK   11  A    between atoms: C_29  and  O_34
REMARK   12  A    between atoms: C_30  and  O_32
REMARK   13  A    between atoms: O_32  and  C_33
REMARK   14  A    between atoms: O_34  and  C_35
REMARK   15  A    between atoms: O_36  and  C_37
REMARK                            x       y       z     vdW  Elec       q    Type
REMARK                         _______ _______ _______ _____ _____    ______ ____
ROOT
ATOM      1  N   UNL     1      -6.812  -1.958  -7.133  0.00  0.00    -0.301 N 
ATOM      2  C   UNL     1      -5.660  -2.467  -7.682  0.00  0.00    +0.094 A 
ATOM      3  C   UNL     1      -5.931  -3.029  -8.870  0.00  0.00    +0.031 A 
ATOM      4  C   UNL     1      -7.367  -2.868  -9.100  0.00  0.00    +0.037 A 
ATOM      5  C   UNL     1      -7.872  -2.191  -7.969  0.00  0.00    +0.150 A 
ATOM      6  N   UNL     1      -9.172  -1.919  -7.918  0.00  0.00    -0.196 NA
ATOM      7  C   UNL     1      -9.972  -2.280  -8.908  0.00  0.00    +0.221 A 
ATOM      8  N   UNL     1      -9.529  -2.920  -9.983  0.00  0.00    -0.222 NA
ATOM      9  C   UNL     1      -8.249  -3.223 -10.119  0.00  0.00    +0.126 A 
ATOM     10  N   UNL     1     -11.322  -1.978  -8.819  0.00  0.00    -0.283 N 
ATOM     11  H   UNL     1     -11.651  -1.441  -8.081  0.00  0.00    +0.155 HD
ENDROOT
BRANCH   1  16
ATOM     12  C   UNL     1      -6.405  -1.230  -3.550  0.00  0.00    -0.045 A 
ATOM     13  C   UNL     1      -7.051  -0.011  -3.455  0.00  0.00    +0.004 A 
ATOM     14  C   UNL     1      -7.617   0.564  -4.578  0.00  0.00    +0.002 A 
ATOM     15  C   UNL     1      -7.540  -0.079  -5.798  0.00  0.00    +0.026 A 
ATOM     16  C   UNL     1      -6.892  -1.303  -5.896  0.00  0.00    +0.048 A 
ATOM     17  C   UNL     1      -6.319  -1.875  -4.768  0.00  0.00    +0.029 A 
BRANCH  12  18
ATOM     18  C   UNL     1      -5.788  -1.853  -2.324  0.00  0.00    +0.044 C 
BRANCH  18  19
ATOM     19  C   UNL     1      -4.340  -1.379  -2.184  0.00  0.00    +0.100 C 
BRANCH  19  21
ATOM     20  N   UNL     1      -2.446  -1.725  -0.632  0.00  0.00    -0.315 N 
ATOM     21  C   UNL     1      -3.724  -2.001  -0.958  0.00  0.00    +0.213 C 
ATOM     22  O   UNL     1      -4.379  -2.750  -0.264  0.00  0.00    -0.276 OA
ATOM     23  H   UNL     1      -1.922  -1.126  -1.187  0.00  0.00    +0.149 HD
BRANCH  20  24
ATOM     24  C   UNL     1      -1.847  -2.330   0.560  0.00  0.00    +0.107 C 
BRANCH  24  26
ATOM     25  C   UNL     1      -0.378  -0.348   0.958  0.00  0.00    +0.009 C 
ATOM     26  C   UNL     1      -0.399  -1.856   0.700  0.00  0.00    -0.000 C 
ATOM     27  C   UNL     1       0.265  -2.583   1.871  0.00  0.00    +0.009 C 
ENDBRANCH  24  26
ENDBRANCH  20  24
ENDBRANCH  19  21
ENDBRANCH  18  19
ENDBRANCH  12  18
ENDBRANCH   1  16
BRANCH  10  28
ATOM     28  C   UNL     1     -12.210  -2.450  -9.793  0.00  0.00    +0.041 A 
ATOM     29  C   UNL     1     -11.992  -3.683 -10.392  0.00  0.00    +0.073 A 
ATOM     30  C   UNL     1     -12.871  -4.150 -11.356  0.00  0.00    +0.167 A 
ATOM     31  C   UNL     1     -13.970  -3.384 -11.724  0.00  0.00    +0.204 A 
ATOM     32  C   UNL     1     -14.188  -2.149 -11.124  0.00  0.00    +0.167 A 
ATOM     33  C   UNL     1     -13.311  -1.686 -10.155  0.00  0.00    +0.073 A 
BRANCH  32  34
ATOM     34  O   UNL     1     -15.263  -1.399 -11.483  0.00  0.00    -0.491 OA
ATOM     35  C   UNL     1     -15.425  -0.140 -10.825  0.00  0.00    +0.277 C 
ENDBRANCH  32  34
BRANCH  31  36
ATOM     36  O   UNL     1     -14.834  -3.842 -12.672  0.00  0.00    -0.488 OA
ATOM     37  C   UNL     1     -15.941  -4.624 -12.218  0.00  0.00    +0.277 C 
ENDBRANCH  31  36
BRANCH  30  38
ATOM     38  O   UNL     1     -12.657  -5.358 -11.943  0.00  0.00    -0.491 OA
ATOM     39  C   UNL     1     -11.507  -6.092 -11.518  0.00  0.00    +0.277 C 
ENDBRANCH  30  38
ENDBRANCH  10  28
TORSDOF 10
