REMARK  Name = CHEMBL380515
REMARK  10 active torsions:
REMARK  status: ('A' for Active; 'I' for Inactive)
REMARK    1  A    between atoms: C_1  and  N_2
REMARK    2  A    between atoms: C_3  and  C_5
REMARK    3  A    between atoms: C_9  and  N_11
REMARK    4  A    between atoms: N_20  and  C_21
REMARK    5  A    between atoms: C_23  and  O_31
REMARK    6  A    between atoms: C_24  and  O_29
REMARK    7  A    between atoms: C_25  and  O_27
REMARK    8  A    between atoms: O_27  and  C_28
REMARK    9  A    between atoms: O_29  and  C_30
REMARK   10  A    between atoms: O_31  and  C_32
REMARK                            x       y       z     vdW  Elec       q    Type
REMARK                         _______ _______ _______ _____ _____    ______ ____
ROOT
ATOM      1  N   UNL     1      -3.723  -4.714  -0.314  0.00  0.00    -0.301 N 
ATOM      2  C   UNL     1      -4.741  -4.540   0.591  0.00  0.00    +0.094 A 
ATOM      3  C   UNL     1      -5.629  -5.540   0.477  0.00  0.00    +0.031 A 
ATOM      4  C   UNL     1      -5.141  -6.423  -0.584  0.00  0.00    +0.037 A 
ATOM      5  C   UNL     1      -3.939  -5.849  -1.050  0.00  0.00    +0.150 A 
ATOM      6  N   UNL     1      -3.283  -6.457  -2.032  0.00  0.00    -0.196 NA
ATOM      7  C   UNL     1      -3.752  -7.575  -2.561  0.00  0.00    +0.221 A 
ATOM      8  N   UNL     1      -4.881  -8.139  -2.147  0.00  0.00    -0.222 NA
ATOM      9  C   UNL     1      -5.593  -7.605  -1.169  0.00  0.00    +0.126 A 
ATOM     10  N   UNL     1      -3.040  -8.181  -3.584  0.00  0.00    -0.283 N 
ATOM     11  H   UNL     1      -2.174  -7.830  -3.845  0.00  0.00    +0.155 HD
ENDROOT
BRANCH   1  16
ATOM     12  C   UNL     1      -1.737  -1.636  -0.747  0.00  0.00    +0.039 A 
ATOM     13  C   UNL     1      -0.445  -2.163  -0.767  0.00  0.00    +0.013 A 
ATOM     14  C   UNL     1      -0.253  -3.523  -0.638  0.00  0.00    +0.003 A 
ATOM     15  C   UNL     1      -1.337  -4.368  -0.488  0.00  0.00    +0.026 A 
ATOM     16  C   UNL     1      -2.627  -3.853  -0.466  0.00  0.00    +0.049 A 
ATOM     17  C   UNL     1      -2.830  -2.487  -0.590  0.00  0.00    +0.039 A 
BRANCH  12  20
ATOM     18  C   UNL     1      -1.095   2.086  -1.173  0.00  0.00    +0.128 C 
ATOM     19  N   UNL     1      -0.888   0.642  -1.036  0.00  0.00    -0.314 N 
ATOM     20  C   UNL     1      -1.946  -0.179  -0.885  0.00  0.00    +0.244 C 
ATOM     21  O   UNL     1      -3.072   0.279  -0.862  0.00  0.00    -0.270 OA
ATOM     22  H   UNL     1       0.011   0.277  -1.054  0.00  0.00    +0.149 HD
ENDBRANCH  12  20
ENDBRANCH   1  16
BRANCH  10  23
ATOM     23  C   UNL     1      -3.571  -9.297  -4.241  0.00  0.00    +0.041 A 
ATOM     24  C   UNL     1      -4.942  -9.405  -4.429  0.00  0.00    +0.073 A 
ATOM     25  C   UNL     1      -5.468 -10.510  -5.080  0.00  0.00    +0.167 A 
ATOM     26  C   UNL     1      -4.622 -11.511  -5.543  0.00  0.00    +0.204 A 
ATOM     27  C   UNL     1      -3.250 -11.403  -5.354  0.00  0.00    +0.167 A 
ATOM     28  C   UNL     1      -2.725 -10.294  -4.709  0.00  0.00    +0.073 A 
BRANCH  27  29
ATOM     29  O   UNL     1      -2.422 -12.381  -5.807  0.00  0.00    -0.491 OA
ATOM     30  C   UNL     1      -1.022 -12.204  -5.579  0.00  0.00    +0.277 C 
ENDBRANCH  27  29
BRANCH  26  31
ATOM     31  O   UNL     1      -5.139 -12.597  -6.181  0.00  0.00    -0.488 OA
ATOM     32  C   UNL     1      -5.279 -12.509  -7.601  0.00  0.00    +0.277 C 
ENDBRANCH  26  31
BRANCH  25  33
ATOM     33  O   UNL     1      -6.811 -10.615  -5.263  0.00  0.00    -0.491 OA
ATOM     34  C   UNL     1      -7.620  -9.550  -4.761  0.00  0.00    +0.277 C 
ENDBRANCH  25  33
ENDBRANCH  10  23
TORSDOF 6
