REMARK  Name = CHEMBL514409
REMARK  9 active torsions:
REMARK  status: ('A' for Active; 'I' for Inactive)
REMARK    1  A    between atoms: C_1  and  C_2
REMARK    2  A    between atoms: C_2  and  S_3
REMARK    3  A    between atoms: S_3  and  N_6
REMARK    4  A    between atoms: N_6  and  C_7
REMARK    5  A    between atoms: C_14  and  C_15
REMARK    6  A    between atoms: C_14  and  N_21
REMARK    7  A    between atoms: N_21  and  C_22
REMARK    8  A    between atoms: C_25  and  C_28
REMARK    9  A    between atoms: C_28  and  N_29
REMARK                            x       y       z     vdW  Elec       q    Type
REMARK                         _______ _______ _______ _____ _____    ______ ____
ROOT
ATOM      1  C   UNL     1      -3.565  -3.463  -0.863  0.00  0.00    +0.075 A 
ATOM      2  C   UNL     1      -4.847  -3.058  -0.506  0.00  0.00    +0.028 A 
ATOM      3  C   UNL     1      -5.726  -3.946   0.078  0.00  0.00    +0.026 A 
ATOM      4  C   UNL     1      -5.337  -5.258   0.315  0.00  0.00    +0.042 A 
ATOM      5  C   UNL     1      -4.045  -5.668  -0.044  0.00  0.00    +0.012 A 
ATOM      6  C   UNL     1      -3.163  -4.771  -0.638  0.00  0.00    +0.037 A 
ATOM      7  C   UNL     1      -3.947  -7.094   0.334  0.00  0.00    +0.068 C 
ATOM      8  C   UNL     1      -2.851  -7.931   0.171  0.00  0.00    +0.051 C 
ATOM      9  C   UNL     1      -5.205  -7.431   0.898  0.00  0.00    +0.251 C 
ATOM     10  O   UNL     1      -5.516  -8.527   1.332  0.00  0.00    -0.270 OA
ATOM     11  N   UNL     1      -5.998  -6.346   0.877  0.00  0.00    -0.281 N 
ATOM     12  H   UNL     1      -6.909  -6.324   1.209  0.00  0.00    +0.155 HD
ENDROOT
BRANCH   8  13
ATOM     13  C   UNL     1      -2.975  -9.372   0.455  0.00  0.00    -0.003 A 
ATOM     14  C   UNL     1      -3.997 -10.119  -0.138  0.00  0.00    +0.010 A 
ATOM     15  C   UNL     1      -4.107 -11.467   0.133  0.00  0.00    +0.001 A 
ATOM     16  C   UNL     1      -3.208 -12.080   0.989  0.00  0.00    +0.000 A 
ATOM     17  C   UNL     1      -2.194 -11.347   1.579  0.00  0.00    +0.001 A 
ATOM     18  C   UNL     1      -2.068 -10.000   1.314  0.00  0.00    +0.010 A 
ENDBRANCH   8  13
BRANCH   8  19
ATOM     19  N   UNL     1      -1.652  -7.416  -0.254  0.00  0.00    -0.313 N 
ATOM     20  H   UNL     1      -1.217  -6.716   0.257  0.00  0.00    +0.152 HD
BRANCH  19  21
ATOM     21  C   UNL     1      -1.059  -7.901  -1.422  0.00  0.00    +0.031 A 
ATOM     22  C   UNL     1      -1.760  -8.768  -2.251  0.00  0.00    +0.023 A 
ATOM     23  C   UNL     1      -1.171  -9.245  -3.405  0.00  0.00    +0.003 A 
ATOM     24  C   UNL     1       0.116  -8.861  -3.736  0.00  0.00    -0.064 A 
ATOM     25  C   UNL     1       0.817  -7.998  -2.913  0.00  0.00    +0.003 A 
ATOM     26  C   UNL     1       0.231  -7.513  -1.760  0.00  0.00    +0.023 A 
BRANCH  24  27
ATOM     27  C   UNL     1       0.756  -9.383  -4.996  0.00  0.00    -0.043 C 
BRANCH  27  28
ATOM     28  N   UNL     1       0.460  -8.473  -6.110  0.00  0.00    +0.382 N 
ATOM     29  C   UNL     1      -0.985  -8.472  -6.370  0.00  0.00    -0.078 C 
ATOM     30  C   UNL     1      -1.308  -7.465  -7.475  0.00  0.00    -0.019 C 
ATOM     31  C   UNL     1      -0.559  -7.857  -8.751  0.00  0.00    -0.004 C 
ATOM     32  C   UNL     1       0.941  -7.926  -8.450  0.00  0.00    -0.019 C 
ATOM     33  C   UNL     1       1.181  -8.917  -7.309  0.00  0.00    -0.078 C 
ATOM     34  H   UNL     1       0.756  -7.539  -5.868  0.00  0.00    -0.081 HD
ENDBRANCH  27  28
ENDBRANCH  24  27
ENDBRANCH  19  21
ENDBRANCH   8  19
BRANCH   1  35
ATOM     35  N   UNL     1      -2.682  -2.553  -1.455  0.00  0.00    -0.103 NA
BRANCH  35  36
ATOM     36  S   UNL     1      -3.162  -0.991  -1.724  0.00  0.00    +0.062 S 
ATOM     37  O   UNL     1      -3.389  -0.453  -0.429  0.00  0.00    -0.154 OA
ATOM     38  O   UNL     1      -4.224  -1.094  -2.662  0.00  0.00    -0.154 OA
BRANCH  36  40
ATOM     39  C   UNL     1      -2.059   1.275  -2.788  0.00  0.00    +0.030 C 
ATOM     40  C   UNL     1      -1.727  -0.188  -2.491  0.00  0.00    +0.187 C 
ENDBRANCH  36  40
ENDBRANCH  35  36
ENDBRANCH   1  35
TORSDOF 8
