REMARK  Name = CHEMBL205588
REMARK  7 active torsions:
REMARK  status: ('A' for Active; 'I' for Inactive)
REMARK    1  A    between atoms: C_1  and  O_2
REMARK    2  A    between atoms: O_2  and  C_3
REMARK    3  A    between atoms: C_5  and  N_13
REMARK    4  A    between atoms: C_7  and  O_11
REMARK    5  A    between atoms: C_8  and  O_9
REMARK    6  A    between atoms: O_9  and  C_10
REMARK    7  A    between atoms: O_11  and  C_12
REMARK                            x       y       z     vdW  Elec       q    Type
REMARK                         _______ _______ _______ _____ _____    ______ ____
ROOT
ATOM      1  N   UNL     1      -4.786   0.201   0.038  0.00  0.00    -0.283 N 
ATOM      2  C   UNL     1      -4.796   1.492  -0.467  0.00  0.00    +0.221 A 
ATOM      3  N   UNL     1      -3.698   1.959  -1.050  0.00  0.00    -0.222 NA
ATOM      4  C   UNL     1      -3.657   3.183  -1.548  0.00  0.00    +0.126 A 
ATOM      5  C   UNL     1      -4.795   3.982  -1.449  0.00  0.00    +0.037 A 
ATOM      6  C   UNL     1      -5.143   5.344  -1.859  0.00  0.00    +0.031 A 
ATOM      7  C   UNL     1      -6.412   5.553  -1.479  0.00  0.00    +0.096 A 
ATOM      8  N   UNL     1      -6.906   4.431  -0.858  0.00  0.00    -0.279 N 
ATOM      9  C   UNL     1      -5.944   3.454  -0.823  0.00  0.00    +0.152 A 
ATOM     10  N   UNL     1      -5.900   2.212  -0.355  0.00  0.00    -0.196 NA
ATOM     11  C   UNL     1      -8.192   4.305  -0.339  0.00  0.00    +0.179 A 
ATOM     12  N   UNL     1      -8.729   3.271   0.271  0.00  0.00    -0.231 NA
ATOM     13  C   UNL     1      -9.974   3.309   0.710  0.00  0.00    +0.121 A 
ATOM     14  C   UNL     1     -10.666   4.456   0.503  0.00  0.00    +0.068 A 
ATOM     15  S   UNL     1      -9.434   5.441  -0.334  0.00  0.00    -0.058 S 
ATOM     16  H   UNL     1      -5.602  -0.188   0.392  0.00  0.00    +0.155 HD
ENDROOT
BRANCH   1  19
ATOM     17  C   UNL     1      -1.206  -0.638   0.226  0.00  0.00    +0.167 A 
ATOM     18  C   UNL     1      -2.381   0.097   0.225  0.00  0.00    +0.073 A 
ATOM     19  C   UNL     1      -3.600  -0.542   0.038  0.00  0.00    +0.041 A 
ATOM     20  C   UNL     1      -3.642  -1.917  -0.149  0.00  0.00    +0.073 A 
ATOM     21  C   UNL     1      -2.468  -2.653  -0.148  0.00  0.00    +0.167 A 
ATOM     22  C   UNL     1      -1.247  -2.014   0.034  0.00  0.00    +0.204 A 
BRANCH  17  24
ATOM     23  C   UNL     1      -0.045   1.403   0.601  0.00  0.00    +0.277 C 
ATOM     24  O   UNL     1      -0.013  -0.013   0.409  0.00  0.00    -0.491 OA
ENDBRANCH  17  24
BRANCH  22  25
ATOM     25  O   UNL     1      -0.093  -2.736   0.029  0.00  0.00    -0.488 OA
ATOM     26  C   UNL     1       0.354  -3.253   1.285  0.00  0.00    +0.277 C 
ENDBRANCH  22  25
BRANCH  21  27
ATOM     27  O   UNL     1      -2.510  -4.000  -0.330  0.00  0.00    -0.491 OA
ATOM     28  C   UNL     1      -3.798  -4.590  -0.516  0.00  0.00    +0.277 C 
ENDBRANCH  21  27
ENDBRANCH   1  19
TORSDOF 4
