REMARK  Name = CHEMBL564417
REMARK  11 active torsions:
REMARK  status: ('A' for Active; 'I' for Inactive)
REMARK    1  A    between atoms: C_1  and  C_2
REMARK    2  A    between atoms: C_4  and  N_32
REMARK    3  A    between atoms: C_10  and  C_12
REMARK    4  A    between atoms: C_13  and  N_20
REMARK    5  A    between atoms: N_20  and  C_21
REMARK    6  A    between atoms: C_21  and  C_22
REMARK    7  A    between atoms: C_22  and  C_24
REMARK    8  A    between atoms: C_22  and  O_31
REMARK    9  A    between atoms: N_35  and  C_38
REMARK   10  A    between atoms: C_38  and  C_39
REMARK   11  A    between atoms: C_39  and  C_40
REMARK                            x       y       z     vdW  Elec       q    Type
REMARK                         _______ _______ _______ _____ _____    ______ ____
ROOT
ATOM      1  C   UNL     1      -0.076   2.030   0.179  0.00  0.00    +0.046 C 
ATOM      2  C   UNL     1      -0.103   0.541  -0.050  0.00  0.00    -0.023 A 
ATOM      3  C   UNL     1      -0.147   0.042  -1.335  0.00  0.00    +0.028 A 
ATOM      4  C   UNL     1      -0.173  -1.333  -1.557  0.00  0.00    +0.032 A 
ATOM      5  C   UNL     1      -0.154  -2.213  -0.490  0.00  0.00    +0.053 A 
ATOM      6  C   UNL     1      -0.110  -1.718   0.816  0.00  0.00    +0.091 A 
ATOM      7  C   UNL     1      -0.079  -0.329   1.030  0.00  0.00    +0.070 A 
ATOM      8  N   UNL     1      -0.031  -0.149   2.403  0.00  0.00    -0.337 N 
ATOM      9  H   UNL     1      -0.005   0.700   2.872  0.00  0.00    +0.167 HD
ATOM     10  C   UNL     1      -0.029  -1.395   2.974  0.00  0.00    +0.146 A 
ATOM     11  N   UNL     1      -0.083  -2.312   2.035  0.00  0.00    -0.227 NA
ENDROOT
BRANCH  10  12
ATOM     12  C   UNL     1       0.015  -1.664   4.420  0.00  0.00    +0.102 A 
ATOM     13  C   UNL     1       0.136  -2.976   4.899  0.00  0.00    +0.045 A 
ATOM     14  C   UNL     1       0.174  -3.189   6.290  0.00  0.00    +0.041 A 
ATOM     15  C   UNL     1       0.096  -2.138   7.135  0.00  0.00    +0.088 A 
ATOM     16  N   UNL     1      -0.022  -0.866   6.672  0.00  0.00    -0.328 N 
ATOM     17  H   UNL     1      -0.077  -0.133   7.304  0.00  0.00    +0.168 HD
ATOM     18  C   UNL     1      -0.058  -0.604   5.352  0.00  0.00    +0.261 A 
ATOM     19  O   UNL     1      -0.158   0.547   4.961  0.00  0.00    -0.267 OA
BRANCH  13  20
ATOM     20  N   UNL     1       0.215  -4.039   4.024  0.00  0.00    -0.340 N 
ATOM     21  H   UNL     1       0.268  -3.877   3.069  0.00  0.00    +0.146 HD
BRANCH  20  22
ATOM     22  C   UNL     1       0.218  -5.411   4.536  0.00  0.00    +0.137 C 
BRANCH  22  23
ATOM     23  C   UNL     1       0.313  -6.392   3.366  0.00  0.00    +0.163 C 
BRANCH  23  24
ATOM     24  C   UNL     1       0.193  -7.803   3.882  0.00  0.00    +0.001 A 
ATOM     25  C   UNL     1       1.332  -8.534   4.165  0.00  0.00    +0.007 A 
ATOM     26  C   UNL     1       1.222  -9.829   4.639  0.00  0.00    +0.000 A 
ATOM     27  C   UNL     1      -0.026 -10.392   4.830  0.00  0.00    +0.001 A 
ATOM     28  C   UNL     1      -1.165  -9.661   4.548  0.00  0.00    +0.020 A 
ATOM     29  C   UNL     1      -1.056  -8.364   4.079  0.00  0.00    +0.047 A 
ATOM     30 CL   UNL     1      -2.486  -7.444   3.731  0.00  0.00    -0.083 Cl
ENDBRANCH  23  24
BRANCH  23  31
ATOM     31  O   UNL     1       1.572  -6.230   2.709  0.00  0.00    -0.386 OA
ATOM     32  H   UNL     1       2.336  -6.391   3.279  0.00  0.00    +0.210 HD
ENDBRANCH  23  31
ENDBRANCH  22  23
ENDBRANCH  20  22
ENDBRANCH  13  20
ENDBRANCH  10  12
BRANCH   4  33
ATOM     33  N   UNL     1      -0.218  -1.827  -2.865  0.00  0.00    -0.327 N 
ATOM     34  C   UNL     1      -0.362  -0.916  -4.011  0.00  0.00    +0.120 C 
ATOM     35  C   UNL     1       0.735  -1.239  -5.030  0.00  0.00    +0.103 C 
ATOM     36  N   UNL     1       0.685  -2.668  -5.363  0.00  0.00    -0.298 NA
ATOM     37  C   UNL     1       0.965  -3.500  -4.185  0.00  0.00    +0.103 C 
ATOM     38  C   UNL     1      -0.117  -3.270  -3.132  0.00  0.00    +0.120 C 
BRANCH  36  39
ATOM     39  C   UNL     1       1.606  -2.986  -6.463  0.00  0.00    +0.099 C 
BRANCH  39  40
ATOM     40  C   UNL     1       1.349  -4.414  -6.947  0.00  0.00    +0.134 C 
BRANCH  40  41
ATOM     41  C   UNL     1       2.272  -4.732  -8.049  0.00  0.00    +0.064 C 
ATOM     42  N   UNL     1       2.984  -4.978  -8.899  0.00  0.00    -0.197 NA
ENDBRANCH  40  41
ENDBRANCH  39  40
ENDBRANCH  36  39
ENDBRANCH   4  33
TORSDOF 10
