REMARK  Name = CHEMBL471520
REMARK  4 active torsions:
REMARK  status: ('A' for Active; 'I' for Inactive)
REMARK    1  A    between atoms: C_4  and  C_7
REMARK    2  A    between atoms: C_7  and  N_8
REMARK    3  A    between atoms: C_10  and  C_26
REMARK    4  A    between atoms: N_15  and  C_16
REMARK                            x       y       z     vdW  Elec       q    Type
REMARK                         _______ _______ _______ _____ _____    ______ ____
ROOT
ATOM      1  N   UNL     1       4.016  -1.241   1.364  0.00  0.00    -0.324 N 
ATOM      2  C   UNL     1       5.203  -1.921   1.584  0.00  0.00    +0.136 A 
ATOM      3  C   UNL     1       5.552  -2.339   2.871  0.00  0.00    +0.113 A 
ATOM      4  C   UNL     1       6.745  -3.013   3.043  0.00  0.00    +0.130 A 
ATOM      5  N   UNL     1       7.518  -3.241   1.992  0.00  0.00    -0.222 NA
ATOM      6  C   UNL     1       7.162  -2.833   0.783  0.00  0.00    +0.221 A 
ATOM      7  N   UNL     1       6.023  -2.189   0.574  0.00  0.00    -0.199 NA
ATOM      8  N   UNL     1       7.998  -3.091  -0.291  0.00  0.00    -0.284 N 
ATOM      9  H   UNL     1       3.422  -1.049   2.107  0.00  0.00    +0.148 HD
ATOM     10  H   UNL     1       7.713  -2.870  -1.191  0.00  0.00    +0.155 HD
ENDROOT
BRANCH   8  11
ATOM     11  C   UNL     1       9.254  -3.672  -0.076  0.00  0.00    +0.034 A 
ATOM     12  C   UNL     1       9.794  -4.536  -1.020  0.00  0.00    +0.025 A 
ATOM     13  C   UNL     1      11.030  -5.109  -0.812  0.00  0.00    +0.025 A 
ATOM     14  C   UNL     1      11.748  -4.826   0.348  0.00  0.00    +0.037 A 
ATOM     15  C   UNL     1      11.200  -3.961   1.287  0.00  0.00    -0.016 A 
ATOM     16  C   UNL     1       9.969  -3.382   1.080  0.00  0.00    +0.029 A 
ATOM     17  C   UNL     1      12.205  -3.860   2.411  0.00  0.00    +0.133 C 
ATOM     18  C   UNL     1      13.341  -4.761   1.973  0.00  0.00    +0.222 C 
ATOM     19  O   UNL     1      14.366  -4.977   2.584  0.00  0.00    -0.275 OA
ATOM     20  N   UNL     1      12.999  -5.276   0.780  0.00  0.00    -0.285 N 
ATOM     21  H   UNL     1      13.557  -5.889   0.276  0.00  0.00    +0.155 HD
ENDBRANCH   8  11
BRANCH   3  22
ATOM     22  C   UNL     1       4.648  -2.060   4.044  0.00  0.00    +0.422 C 
ATOM     23  F   UNL     1       5.223  -2.579   5.209  0.00  0.00    -0.166 F 
ATOM     24  F   UNL     1       4.476  -0.679   4.183  0.00  0.00    -0.166 F 
ATOM     25  F   UNL     1       3.405  -2.665   3.828  0.00  0.00    -0.166 F 
ENDBRANCH   3  22
BRANCH   1  26
ATOM     26  C   UNL     1       3.657  -0.813   0.010  0.00  0.00    +0.138 C 
BRANCH  26  30
ATOM     27  C   UNL     1      -0.107   1.204   0.102  0.00  0.00    +0.000 A 
ATOM     28  C   UNL     1       1.064   1.919   0.269  0.00  0.00    +0.000 A 
ATOM     29  C   UNL     1       2.282   1.266   0.239  0.00  0.00    +0.005 A 
ATOM     30  C   UNL     1       2.329  -0.102   0.043  0.00  0.00    -0.030 A 
ATOM     31  C   UNL     1       1.157  -0.817  -0.122  0.00  0.00    +0.005 A 
ATOM     32  C   UNL     1      -0.061  -0.164  -0.094  0.00  0.00    +0.000 A 
ENDBRANCH  26  30
ENDBRANCH   1  26
TORSDOF 4
