REMARK  Name = CHEMBL207444
REMARK  13 active torsions:
REMARK  status: ('A' for Active; 'I' for Inactive)
REMARK    1  A    between atoms: C_1  and  C_2
REMARK    2  A    between atoms: N_4  and  C_5
REMARK    3  A    between atoms: C_5  and  C_6
REMARK    4  A    between atoms: C_6  and  N_7
REMARK    5  A    between atoms: C_8  and  C_10
REMARK    6  A    between atoms: C_14  and  N_16
REMARK    7  A    between atoms: N_25  and  C_26
REMARK    8  A    between atoms: C_28  and  O_36
REMARK    9  A    between atoms: C_29  and  O_34
REMARK   10  A    between atoms: C_30  and  O_32
REMARK   11  A    between atoms: O_32  and  C_33
REMARK   12  A    between atoms: O_34  and  C_35
REMARK   13  A    between atoms: O_36  and  C_37
REMARK                            x       y       z     vdW  Elec       q    Type
REMARK                         _______ _______ _______ _____ _____    ______ ____
ROOT
ATOM      1  N   UNL     1       0.386  -8.739  -6.444  0.00  0.00    -0.301 N 
ATOM      2  C   UNL     1      -0.520  -8.553  -7.459  0.00  0.00    +0.094 A 
ATOM      3  C   UNL     1      -0.399  -9.535  -8.366  0.00  0.00    +0.031 A 
ATOM      4  C   UNL     1       0.669 -10.418  -7.894  0.00  0.00    +0.037 A 
ATOM      5  C   UNL     1       1.131  -9.864  -6.682  0.00  0.00    +0.150 A 
ATOM      6  N   UNL     1       2.118 -10.476  -6.037  0.00  0.00    -0.196 NA
ATOM      7  C   UNL     1       2.656 -11.581  -6.528  0.00  0.00    +0.221 A 
ATOM      8  N   UNL     1       2.247 -12.126  -7.668  0.00  0.00    -0.222 NA
ATOM      9  C   UNL     1       1.264 -11.587  -8.369  0.00  0.00    +0.126 A 
ATOM     10  N   UNL     1       3.684 -12.191  -5.828  0.00  0.00    -0.283 N 
ATOM     11  H   UNL     1       3.943 -11.856  -4.955  0.00  0.00    +0.155 HD
ENDROOT
BRANCH   1  16
ATOM     12  C   UNL     1       0.794  -5.696  -4.400  0.00  0.00    +0.039 A 
ATOM     13  C   UNL     1       0.819  -6.248  -3.118  0.00  0.00    +0.013 A 
ATOM     14  C   UNL     1       0.701  -7.612  -2.952  0.00  0.00    +0.003 A 
ATOM     15  C   UNL     1       0.557  -8.437  -4.052  0.00  0.00    +0.026 A 
ATOM     16  C   UNL     1       0.532  -7.898  -5.332  0.00  0.00    +0.049 A 
ATOM     17  C   UNL     1       0.644  -6.528  -5.509  0.00  0.00    +0.039 A 
BRANCH  12  19
ATOM     18  N   UNL     1       1.065  -3.432  -3.508  0.00  0.00    -0.310 N 
ATOM     19  C   UNL     1       0.921  -4.234  -4.581  0.00  0.00    +0.244 C 
ATOM     20  O   UNL     1       0.894  -3.755  -5.698  0.00  0.00    -0.270 OA
ATOM     21  H   UNL     1       1.087  -3.814  -2.616  0.00  0.00    +0.149 HD
BRANCH  18  22
ATOM     22  C   UNL     1       1.190  -1.983  -3.687  0.00  0.00    +0.123 C 
BRANCH  22  23
ATOM     23  C   UNL     1       1.342  -1.311  -2.321  0.00  0.00    +0.123 C 
BRANCH  23  27
ATOM     24  C   UNL     1       1.740   2.429  -1.611  0.00  0.00    +0.109 C 
ATOM     25  C   UNL     1       1.612   0.939  -1.427  0.00  0.00    +0.210 C 
ATOM     26  O   UNL     1       1.639   0.461  -0.312  0.00  0.00    -0.276 OA
ATOM     27  N   UNL     1       1.467   0.137  -2.500  0.00  0.00    -0.314 N 
ATOM     28  H   UNL     1       1.445   0.519  -3.391  0.00  0.00    +0.149 HD
ENDBRANCH  23  27
ENDBRANCH  22  23
ENDBRANCH  18  22
ENDBRANCH  12  19
ENDBRANCH   1  16
BRANCH  10  29
ATOM     29  C   UNL     1       4.350 -13.292  -6.380  0.00  0.00    +0.041 A 
ATOM     30  C   UNL     1       4.539 -13.372  -7.753  0.00  0.00    +0.073 A 
ATOM     31  C   UNL     1       5.198 -14.462  -8.300  0.00  0.00    +0.167 A 
ATOM     32  C   UNL     1       5.670 -15.475  -7.473  0.00  0.00    +0.204 A 
ATOM     33  C   UNL     1       5.480 -15.394  -6.099  0.00  0.00    +0.167 A 
ATOM     34  C   UNL     1       4.826 -14.301  -5.553  0.00  0.00    +0.073 A 
BRANCH  33  35
ATOM     35  O   UNL     1       5.941 -16.385  -5.290  0.00  0.00    -0.491 OA
ATOM     36  C   UNL     1       5.711 -16.237  -3.887  0.00  0.00    +0.277 C 
ENDBRANCH  33  35
BRANCH  32  37
ATOM     37  O   UNL     1       6.317 -16.546  -8.010  0.00  0.00    -0.488 OA
ATOM     38  C   UNL     1       7.735 -16.444  -8.149  0.00  0.00    +0.277 C 
ENDBRANCH  32  37
BRANCH  31  39
ATOM     39  O   UNL     1       5.383 -14.540  -9.645  0.00  0.00    -0.491 OA
ATOM     40  C   UNL     1       4.871 -13.464 -10.433  0.00  0.00    +0.277 C 
ENDBRANCH  31  39
ENDBRANCH  10  29
TORSDOF 9
