REMARK  Name = CHEMBL488089
REMARK  6 active torsions:
REMARK  status: ('A' for Active; 'I' for Inactive)
REMARK    1  A    between atoms: C_1  and  S_2
REMARK    2  A    between atoms: S_2  and  C_5
REMARK    3  A    between atoms: C_10  and  C_11
REMARK    4  A    between atoms: C_11  and  N_12
REMARK    5  A    between atoms: C_14  and  C_30
REMARK    6  A    between atoms: N_19  and  C_20
REMARK                            x       y       z     vdW  Elec       q    Type
REMARK                         _______ _______ _______ _____ _____    ______ ____
ROOT
ATOM      1  N   UNL     1      -0.492   2.005  -2.736  0.00  0.00    -0.324 N 
ATOM      2  C   UNL     1      -1.436   2.908  -3.197  0.00  0.00    +0.136 A 
ATOM      3  C   UNL     1      -1.061   4.208  -3.546  0.00  0.00    +0.113 A 
ATOM      4  C   UNL     1      -2.035   5.075  -4.001  0.00  0.00    +0.130 A 
ATOM      5  N   UNL     1      -3.287   4.652  -4.092  0.00  0.00    -0.222 NA
ATOM      6  C   UNL     1      -3.615   3.414  -3.754  0.00  0.00    +0.221 A 
ATOM      7  N   UNL     1      -2.709   2.550  -3.319  0.00  0.00    -0.199 NA
ATOM      8  N   UNL     1      -4.935   3.011  -3.863  0.00  0.00    -0.284 N 
ATOM      9  H   UNL     1       0.436   2.274  -2.650  0.00  0.00    +0.148 HD
ATOM     10  H   UNL     1      -5.175   2.085  -3.699  0.00  0.00    +0.155 HD
ENDROOT
BRANCH   8  11
ATOM     11  C   UNL     1      -5.924   3.939  -4.212  0.00  0.00    +0.034 A 
ATOM     12  C   UNL     1      -7.000   3.549  -4.999  0.00  0.00    +0.025 A 
ATOM     13  C   UNL     1      -7.976   4.461  -5.343  0.00  0.00    +0.025 A 
ATOM     14  C   UNL     1      -7.889   5.781  -4.905  0.00  0.00    +0.037 A 
ATOM     15  C   UNL     1      -6.809   6.161  -4.118  0.00  0.00    -0.016 A 
ATOM     16  C   UNL     1      -5.836   5.253  -3.767  0.00  0.00    +0.029 A 
ATOM     17  C   UNL     1      -7.001   7.628  -3.811  0.00  0.00    +0.133 C 
ATOM     18  C   UNL     1      -8.293   7.986  -4.516  0.00  0.00    +0.222 C 
ATOM     19  O   UNL     1      -8.826   9.076  -4.532  0.00  0.00    -0.275 OA
ATOM     20  N   UNL     1      -8.737   6.871  -5.119  0.00  0.00    -0.285 N 
ATOM     21  H   UNL     1      -9.552   6.827  -5.642  0.00  0.00    +0.155 HD
ENDBRANCH   8  11
BRANCH   3  22
ATOM     22  C   UNL     1       0.374   4.654  -3.429  0.00  0.00    +0.422 C 
ATOM     23  F   UNL     1       0.483   5.988  -3.837  0.00  0.00    -0.166 F 
ATOM     24  F   UNL     1       0.791   4.538  -2.099  0.00  0.00    -0.166 F 
ATOM     25  F   UNL     1       1.180   3.850  -4.242  0.00  0.00    -0.166 F 
ENDBRANCH   3  22
BRANCH   1  26
ATOM     26  C   UNL     1      -0.896   0.642  -2.379  0.00  0.00    +0.140 C 
BRANCH  26  32
ATOM     27  C   UNL     1       0.850  -0.084  -0.740  0.00  0.00    +0.093 A 
ATOM     28  C   UNL     1       1.966  -0.829  -0.405  0.00  0.00    +0.027 A 
ATOM     29  C   UNL     1       2.558  -1.648  -1.347  0.00  0.00    +0.002 A 
ATOM     30  C   UNL     1       2.035  -1.724  -2.624  0.00  0.00    +0.000 A 
ATOM     31  C   UNL     1       0.919  -0.981  -2.959  0.00  0.00    +0.007 A 
ATOM     32  C   UNL     1       0.324  -0.164  -2.015  0.00  0.00    -0.006 A 
BRANCH  27  34
ATOM     33  C   UNL     1      -1.497   0.173   0.829  0.00  0.00    +0.200 C 
ATOM     34  S   UNL     1       0.095   0.961   0.461  0.00  0.00    -0.006 S 
ATOM     35  O   UNL     1      -0.113   2.195  -0.211  0.00  0.00    -0.170 OA
ATOM     36  O   UNL     1       0.950   0.888   1.594  0.00  0.00    -0.170 OA
ENDBRANCH  27  34
ENDBRANCH  26  32
ENDBRANCH   1  26
TORSDOF 5
