REMARK  3 active torsions:
REMARK  status: ('A' for Active; 'I' for Inactive)
REMARK    1  A    between atoms: C19_6  and  C09_27 
REMARK    2  A    between atoms: C27_8  and  N08_16 
REMARK    3  A    between atoms: N08_16  and  C04_18 
ROOT
HETATM    1  C10 JIN A 600      18.718  14.507   3.584  1.00 14.71     0.034 A 
HETATM    2  C12 JIN A 600      17.605  16.133   4.930  1.00 15.38     0.260 A 
HETATM    3  C13 JIN A 600      15.153  16.002   5.311  1.00 17.15     0.161 C 
HETATM    4  C04 JIN A 600      15.136  12.713   3.087  1.00 15.55     0.684 A 
HETATM    5  N03 JIN A 600      16.163  12.126   2.521  1.00 14.20    -0.201 N 
ATOM      6  H03 JIN A 600      16.040  11.259   1.998  1.00  0.00     0.183 HD
HETATM    7  C02 JIN A 600      17.384  12.685   2.640  1.00 14.69     0.121 A 
HETATM    8  N05 JIN A 600      15.183  13.830   3.831  1.00 12.60    -0.175 N 
ATOM      9  H05 JIN A 600      14.344  14.223   4.258  1.00  0.00     0.186 HD
HETATM   10  C06 JIN A 600      16.392  14.407   3.986  1.00 12.00     0.137 A 
HETATM   11  N11 JIN A 600      16.441  15.494   4.744  1.00 15.54    -0.303 N 
HETATM   12  O14 JIN A 600      17.586  17.153   5.621  1.00 15.21    -0.267 OA
HETATM   13  C09 JIN A 600      18.791  15.681   4.335  1.00 15.83     0.047 A 
HETATM   14  C01 JIN A 600      17.506  13.853   3.414  1.00 11.06     0.026 A 
ENDROOT
BRANCH   4  15
HETATM   15  N08 JIN A 600      13.988  12.055   2.867  1.00 15.25    -0.192 N 
ATOM     16  H08 JIN A 600      14.070  11.135   2.434  1.00  0.00     0.184 HD
BRANCH  15  17
HETATM   17  C27 JIN A 600      12.721  12.478   3.158  1.00 13.28     0.050 A 
HETATM   18  C28 JIN A 600      11.693  11.786   2.486  1.00 14.81     0.039 A 
HETATM   19  C29 JIN A 600      10.339  12.155   2.688  1.00 15.39    -0.021 A 
HETATM   20  C34 JIN A 600       9.222  11.461   1.955  1.00 21.06     0.051 C 
HETATM   21  C30 JIN A 600       9.942  13.081   3.623  1.00 17.86     0.122 A 
HETATM   22  F35 JIN A 600       8.671  13.363   3.887  1.00 20.20    -0.206 F 
HETATM   23  C31 JIN A 600      10.927  13.709   4.343  1.00 15.44     0.045 A 
HETATM   24  C26 JIN A 600      12.282  13.403   4.121  1.00 15.35     0.033 A 
ENDBRANCH  15  17
ENDBRANCH   4  15
BRANCH  13  25
HETATM   25  C19 JIN A 600      20.129  16.320   4.503  1.00 16.07     0.023 A 
HETATM   26  C18 JIN A 600      20.538  17.263   3.544  1.00 17.76     0.046 A 
HETATM   27  C17 JIN A 600      21.711  18.023   3.711  1.00 17.85     0.025 A 
HETATM   28 CL4  JIN A 600      19.697  17.581   2.047  1.00 18.91    -0.083 Cl
HETATM   29  C16 JIN A 600      22.456  17.838   4.911  1.00 20.49     0.003 A 
HETATM   30  C15 JIN A 600      22.052  16.867   5.863  1.00 19.98     0.025 A 
HETATM   31  C20 JIN A 600      20.867  16.145   5.645  1.00 19.81     0.046 A 
HETATM   32 CL5  JIN A 600      20.377  14.917   6.850  1.00 23.21    -0.083 Cl
ENDBRANCH  13  25
TORSDOF 3
