REMARK  Name = ZINC63161044
REMARK  6 active torsions:
REMARK  status: ('A' for Active; 'I' for Inactive)
REMARK    1  A    between atoms: C_7  and  C_10
REMARK    2  A    between atoms: C_10  and  C_12
REMARK    3  A    between atoms: C_10  and  C_29
REMARK    4  A    between atoms: C_12  and  N_13
REMARK    5  A    between atoms: C_14  and  C_16
REMARK    6  A    between atoms: C_22  and  C_24
REMARK                            x       y       z     vdW  Elec       q    Type
REMARK                         _______ _______ _______ _____ _____    ______ ____
ROOT
ATOM      1  C   UNL     1       1.051  -4.314   0.767  0.00  0.00    +0.066 C 
ENDROOT
BRANCH   1   8
ATOM      2  C   UNL     1       1.200   0.269   0.926  0.00  0.00    +0.001 A 
ATOM      3  C   UNL     1       2.493   0.784   1.093  0.00  0.00    +0.002 A 
ATOM      4  C   UNL     1       3.584  -0.004   1.196  0.00  0.00    +0.026 A 
ATOM      5  C   UNL     1       3.456  -1.419   1.137  0.00  0.00    +0.043 A 
ATOM      6  N   UNL     1       4.346  -2.379   1.211  0.00  0.00    -0.380 N 
ATOM      7  C   UNL     1       3.654  -3.668   1.090  0.00  0.00    +0.145 C 
ATOM      8  C   UNL     1       2.187  -3.337   0.930  0.00  0.00    -0.033 C 
ATOM      9  C   UNL     1       2.101  -1.988   0.962  0.00  0.00    -0.000 A 
ATOM     10  C   UNL     1       0.967  -1.061   0.859  0.00  0.00    +0.010 A 
ATOM     11  H   UNL     1       5.301  -2.258   1.325  0.00  0.00    +0.160 HD
ENDBRANCH   1   8
BRANCH   1  12
ATOM     12  C   UNL     1       0.990  -5.219   1.971  0.00  0.00    -0.020 A 
ATOM     13  C   UNL     1       2.074  -6.012   2.296  0.00  0.00    +0.006 A 
ATOM     14  C   UNL     1       2.018  -6.841   3.400  0.00  0.00    +0.000 A 
ATOM     15  C   UNL     1       0.877  -6.878   4.180  0.00  0.00    +0.001 A 
ATOM     16  C   UNL     1      -0.208  -6.086   3.857  0.00  0.00    +0.020 A 
ATOM     17  C   UNL     1      -0.150  -5.251   2.755  0.00  0.00    +0.045 A 
ATOM     18 CL   UNL     1      -1.510  -4.250   2.351  0.00  0.00    -0.083 Cl
ENDBRANCH   1  12
BRANCH   1  19
ATOM     19  C   UNL     1       1.278  -5.155  -0.491  0.00  0.00    +0.116 C 
BRANCH  19  20
ATOM     20  N   UNL     1       0.117  -6.021  -0.715  0.00  0.00    -0.314 N 
ATOM     21  C   UNL     1       0.094  -6.855  -1.774  0.00  0.00    +0.216 C 
ATOM     22  O   UNL     1       1.033  -6.889  -2.540  0.00  0.00    -0.276 OA
ATOM     23  H   UNL     1      -0.634  -5.993  -0.102  0.00  0.00    +0.149 HD
BRANCH  21  24
ATOM     24  C   UNL     1      -1.100  -7.745  -2.005  0.00  0.00    +0.078 C 
ATOM     25  C   UNL     1      -2.352  -6.884  -2.183  0.00  0.00    +0.032 C 
ATOM     26  C   UNL     1      -3.568  -7.793  -2.383  0.00  0.00    +0.109 C 
ATOM     27  N   UNL     1      -3.298  -8.705  -3.503  0.00  0.00    -0.295 N 
ATOM     28  C   UNL     1      -2.073  -9.515  -3.475  0.00  0.00    +0.109 C 
ATOM     29  C   UNL     1      -0.873  -8.586  -3.263  0.00  0.00    +0.032 C 
ATOM     30  C   UNL     1      -4.159  -8.797  -4.537  0.00  0.00    +0.282 C 
ATOM     31  O   UNL     1      -5.224  -8.211  -4.495  0.00  0.00    -0.267 OA
BRANCH  30  32
ATOM     32  C   UNL     1      -3.811  -9.604  -5.711  0.00  0.00    +0.189 A 
ATOM     33  C   UNL     1      -4.636  -9.891  -6.760  0.00  0.00    +0.054 A 
ATOM     34  C   UNL     1      -3.895 -10.684  -7.651  0.00  0.00    +0.042 A 
ATOM     35  C   UNL     1      -2.666 -10.843  -7.113  0.00  0.00    +0.196 A 
ATOM     36  O   UNL     1      -2.617 -10.186  -5.947  0.00  0.00    -0.458 OA
ENDBRANCH  30  32
ENDBRANCH  21  24
ENDBRANCH  19  20
ENDBRANCH   1  19
TORSDOF 6
