REMARK  Name = ZINC22708965
REMARK  5 active torsions:
REMARK  status: ('A' for Active; 'I' for Inactive)
REMARK    1  A    between atoms: C_6  and  C_7
REMARK    2  A    between atoms: N_9  and  N_10
REMARK    3  A    between atoms: C_11  and  C_13
REMARK    4  A    between atoms: C_13  and  S_14
REMARK    5  A    between atoms: S_14  and  C_15
REMARK                            x       y       z     vdW  Elec       q    Type
REMARK                         _______ _______ _______ _____ _____    ______ ____
ROOT
ATOM      1  S   UNL     1       6.227   2.362  -0.463  0.00  0.00    -0.077 S 
ENDROOT
BRANCH   1   2
ATOM      2  C   UNL     1       7.586   1.263  -0.244  0.00  0.00    +0.191 A 
ATOM      3  N   UNL     1       7.371  -0.048  -0.243  0.00  0.00    -0.207 NA
ATOM      4  C   UNL     1       8.351  -0.921  -0.082  0.00  0.00    +0.129 A 
ATOM      5  C   UNL     1       9.681  -0.448   0.096  0.00  0.00    +0.051 A 
ATOM      6  C   UNL     1      10.909  -1.222   0.290  0.00  0.00    -0.025 A 
ATOM      7  C   UNL     1      12.054  -0.527   0.435  0.00  0.00    -0.004 A 
ATOM      8  S   UNL     1      11.578   1.177   0.325  0.00  0.00    -0.073 S 
ATOM      9  C   UNL     1       9.835   0.952   0.083  0.00  0.00    +0.115 A 
ATOM     10  N   UNL     1       8.806   1.760  -0.088  0.00  0.00    -0.214 NA
ATOM     11  C   UNL     1      13.432  -1.079   0.645  0.00  0.00    +0.043 C 
ATOM     12  C   UNL     1      13.306  -2.556   1.045  0.00  0.00    +0.005 C 
ATOM     13  C   UNL     1      12.338  -3.245   0.079  0.00  0.00    +0.005 C 
ATOM     14  C   UNL     1      10.914  -2.748   0.328  0.00  0.00    +0.037 C 
ATOM     15  N   UNL     1       8.085  -2.278  -0.088  0.00  0.00    -0.343 N 
ATOM     16  H   UNL     1       8.905  -2.999   0.046  0.00  0.00    +0.144 HD
ATOM     17  H   UNL     1       7.055  -2.636  -0.226  0.00  0.00    +0.144 HD
ENDBRANCH   1   2
BRANCH   1  18
ATOM     18  C   UNL     1       4.878   1.166  -0.626  0.00  0.00    +0.174 C 
BRANCH  18  20
ATOM     19  N   UNL     1       2.429   1.209  -0.974  0.00  0.00    -0.233 N 
ATOM     20  C   UNL     1       3.577   1.900  -0.828  0.00  0.00    +0.239 C 
ATOM     21  O   UNL     1       3.563   3.112  -0.859  0.00  0.00    -0.273 OA
ATOM     22  H   UNL     1       2.442   0.109  -0.946  0.00  0.00    +0.173 HD
BRANCH  19  25
ATOM     23  C   UNL     1       0.072   1.200  -1.308  0.00  0.00    +0.260 C 
ATOM     24  O   UNL     1       0.086  -0.015  -1.277  0.00  0.00    -0.269 OA
ATOM     25  N   UNL     1       1.220   1.891  -1.162  0.00  0.00    -0.230 N 
ATOM     26  H   UNL     1       1.208   2.990  -1.191  0.00  0.00    +0.173 HD
BRANCH  23  32
ATOM     27  C   UNL     1      -1.221   3.315  -1.543  0.00  0.00    +0.016 A 
ATOM     28  C   UNL     1      -2.412   3.981  -1.740  0.00  0.00    +0.039 A 
ATOM     29  C   UNL     1      -3.591   3.267  -1.895  0.00  0.00    +0.123 A 
ATOM     30  C   UNL     1      -3.578   1.881  -1.860  0.00  0.00    +0.039 A 
ATOM     31  C   UNL     1      -2.392   1.205  -1.670  0.00  0.00    +0.016 A 
ATOM     32  C   UNL     1      -1.202   1.919  -1.513  0.00  0.00    +0.038 A 
ATOM     33  F   UNL     1      -4.756   3.925  -2.081  0.00  0.00    -0.205 F 
ENDBRANCH  23  32
ENDBRANCH  19  25
ENDBRANCH  18  20
ENDBRANCH   1  18
TORSDOF 5
