REMARK  Name = ZINC06831842
REMARK  4 active torsions:
REMARK  status: ('A' for Active; 'I' for Inactive)
REMARK    1  A    between atoms: C_4  and  C_11
REMARK    2  A    between atoms: C_11  and  S_12
REMARK    3  A    between atoms: S_12  and  C_13
REMARK    4  A    between atoms: C_17  and  N_19
REMARK                            x       y       z     vdW  Elec       q    Type
REMARK                         _______ _______ _______ _____ _____    ______ ____
ROOT
ATOM      1  S   UNL     1      -1.452   0.212   4.446  0.00  0.00    -0.081 S 
ENDROOT
BRANCH   1   2
ATOM      2  C   UNL     1      -0.605   0.822   5.865  0.00  0.00    +0.192 A 
ATOM      3  N   UNL     1      -0.518   2.130   6.053  0.00  0.00    -0.207 NA
ATOM      4  C   UNL     1       0.110   2.627   7.116  0.00  0.00    +0.122 A 
ATOM      5  C   UNL     1       0.688   1.751   8.031  0.00  0.00    +0.086 A 
ATOM      6  C   UNL     1       0.581   0.383   7.798  0.00  0.00    +0.122 A 
ATOM      7  N   UNL     1      -0.067  -0.041   6.715  0.00  0.00    -0.207 NA
ATOM      8  N   UNL     1       0.191   3.997   7.308  0.00  0.00    -0.343 N 
ATOM      9  H   UNL     1       0.653   4.352   8.083  0.00  0.00    +0.144 HD
ATOM     10  H   UNL     1      -0.214   4.601   6.666  0.00  0.00    +0.144 HD
BRANCH   6  11
ATOM     11  N   UNL     1       1.140  -0.526   8.683  0.00  0.00    -0.343 N 
ATOM     12  H   UNL     1       1.061  -1.478   8.514  0.00  0.00    +0.144 HD
ATOM     13  H   UNL     1       1.611  -0.210   9.470  0.00  0.00    +0.144 HD
ENDBRANCH   6  11
ENDBRANCH   1   2
BRANCH   1  14
ATOM     14  C   UNL     1      -1.954   1.776   3.684  0.00  0.00    +0.116 C 
BRANCH  14  18
ATOM     15  C   UNL     1      -4.120   0.976   0.087  0.00  0.00    +0.029 A 
ATOM     16  C   UNL     1      -4.792   1.081   1.292  0.00  0.00    +0.042 A 
ATOM     17  C   UNL     1      -4.090   1.339   2.456  0.00  0.00    +0.028 A 
ATOM     18  C   UNL     1      -2.718   1.494   2.416  0.00  0.00    +0.006 A 
ATOM     19  C   UNL     1      -2.043   1.389   1.208  0.00  0.00    +0.133 A 
ATOM     20  C   UNL     1      -2.747   1.129   0.043  0.00  0.00    +0.022 A 
ATOM     21  C   UNL     1      -2.025   1.010  -1.276  0.00  0.00    +0.202 C 
ATOM     22  O   UNL     1      -0.712   1.564  -1.147  0.00  0.00    -0.339 OA
ATOM     23  C   UNL     1      -0.013   1.086   0.008  0.00  0.00    +0.394 C 
ATOM     24  O   UNL     1      -0.689   1.550   1.180  0.00  0.00    -0.466 OA
ATOM     25 CL   UNL     1      -6.516   0.889   1.343  0.00  0.00    -0.084 Cl
ENDBRANCH  14  18
ENDBRANCH   1  14
TORSDOF 4
