REMARK  Name = ZINC63573189
REMARK  5 active torsions:
REMARK  status: ('A' for Active; 'I' for Inactive)
REMARK    1  A    between atoms: C_1  and  C_2
REMARK    2  A    between atoms: C_7  and  N_8
REMARK    3  A    between atoms: C_17  and  O_33
REMARK    4  A    between atoms: C_24  and  C_26
REMARK    5  A    between atoms: O_33  and  C_34
REMARK                            x       y       z     vdW  Elec       q    Type
REMARK                         _______ _______ _______ _____ _____    ______ ____
ROOT
ATOM      1  N   UNL     1       1.802   0.023   2.988  0.00  0.00    -0.269 N 
ATOM      2  C   UNL     1       1.111  -0.662   3.920  0.00  0.00    +0.307 C 
ATOM      3  O   UNL     1       1.023  -1.873   3.844  0.00  0.00    -0.252 OA
ATOM      4  N   UNL     1       0.516  -0.006   4.936  0.00  0.00    -0.276 N 
ATOM      5  C   UNL     1       0.519   1.460   4.952  0.00  0.00    +0.114 C 
ATOM      6  C   UNL     1      -0.932   1.974   5.004  0.00  0.00    +0.052 C 
ATOM      7  C   UNL     1      -1.645   1.154   6.050  0.00  0.00    -0.035 C 
ATOM      8  C   UNL     1      -2.372   1.511   7.101  0.00  0.00    +0.003 A 
ATOM      9  C   UNL     1      -2.839   2.824   7.572  0.00  0.00    +0.055 A 
ATOM     10  C   UNL     1      -3.565   2.836   8.724  0.00  0.00    +0.121 A 
ATOM     11  C   UNL     1      -3.879   1.688   9.465  0.00  0.00    +0.047 A 
ATOM     12  C   UNL     1      -3.506   0.429   9.119  0.00  0.00    +0.029 A 
ATOM     13  C   UNL     1      -2.723   0.286   7.883  0.00  0.00    +0.043 A 
ATOM     14  N   UNL     1      -2.255  -0.777   7.301  0.00  0.00    -0.375 N 
ATOM     15  C   UNL     1      -1.607  -0.370   6.053  0.00  0.00    +0.131 C 
ATOM     16  C   UNL     1      -0.133  -0.769   6.014  0.00  0.00    +0.134 C 
ATOM     17  H   UNL     1       1.934   0.979   3.087  0.00  0.00    +0.156 HD
ATOM     18  H   UNL     1      -2.324  -1.684   7.636  0.00  0.00    +0.160 HD
ENDROOT
BRANCH   1  25
ATOM     19  C   UNL     1       2.073   1.470   0.554  0.00  0.00    +0.045 C 
ATOM     20  C   UNL     1       2.481   0.024   0.670  0.00  0.00    -0.029 A 
ATOM     21  C   UNL     1       3.009  -0.635  -0.423  0.00  0.00    +0.006 A 
ATOM     22  C   UNL     1       3.383  -1.962  -0.318  0.00  0.00    +0.020 A 
ATOM     23  C   UNL     1       3.230  -2.634   0.883  0.00  0.00    +0.043 A 
ATOM     24  C   UNL     1       2.703  -1.979   1.980  0.00  0.00    +0.043 A 
ATOM     25  C   UNL     1       2.332  -0.645   1.878  0.00  0.00    +0.039 A 
ATOM     26 CL   UNL     1       3.701  -4.300   1.011  0.00  0.00    -0.083 Cl
ENDBRANCH   1  25
BRANCH  16  27
ATOM     27  C   UNL     1      -0.014  -2.245   5.738  0.00  0.00    -0.025 A 
ATOM     28  C   UNL     1      -0.789  -2.829   4.753  0.00  0.00    +0.008 A 
ATOM     29  C   UNL     1      -0.679  -4.183   4.499  0.00  0.00    +0.038 A 
ATOM     30  C   UNL     1       0.206  -4.955   5.231  0.00  0.00    +0.123 A 
ATOM     31  C   UNL     1       0.982  -4.370   6.218  0.00  0.00    +0.038 A 
ATOM     32  C   UNL     1       0.875  -3.014   6.466  0.00  0.00    +0.008 A 
ATOM     33  F   UNL     1       0.314  -6.279   4.984  0.00  0.00    -0.205 F 
ENDBRANCH  16  27
BRANCH  10  34
ATOM     34  O   UNL     1      -4.011   4.035   9.184  0.00  0.00    -0.495 OA
ATOM     35  C   UNL     1      -4.770   4.024  10.395  0.00  0.00    +0.277 C 
ENDBRANCH  10  34
TORSDOF 3
