REMARK  Name = ZINC39595520
REMARK  9 active torsions:
REMARK  status: ('A' for Active; 'I' for Inactive)
REMARK    1  A    between atoms: C_1  and  C_2
REMARK    2  A    between atoms: C_2  and  C_3
REMARK    3  A    between atoms: C_2  and  N_4
REMARK    4  A    between atoms: C_8  and  C_10
REMARK    5  A    between atoms: C_10  and  O_11
REMARK    6  A    between atoms: O_11  and  C_12
REMARK    7  A    between atoms: C_12  and  C_14
REMARK    8  A    between atoms: C_18  and  S_20
REMARK    9  A    between atoms: S_20  and  N_23
REMARK                            x       y       z     vdW  Elec       q    Type
REMARK                         _______ _______ _______ _____ _____    ______ ____
ROOT
ATOM      1  C   UNL     1      -7.752  -2.333  -5.140  0.00  0.00    +0.061 A 
ATOM      2  C   UNL     1      -6.998  -1.948  -6.251  0.00  0.00    +0.016 A 
ATOM      3  C   UNL     1      -7.548  -2.022  -7.513  0.00  0.00    +0.023 A 
ATOM      4  C   UNL     1      -8.846  -2.477  -7.680  0.00  0.00    +0.067 A 
ATOM      5  C   UNL     1      -9.599  -2.860  -6.582  0.00  0.00    +0.124 A 
ATOM      6  C   UNL     1      -9.057  -2.796  -5.315  0.00  0.00    +0.045 A 
ATOM      7 CL   UNL     1      -9.533  -2.566  -9.272  0.00  0.00    -0.082 Cl
ENDROOT
BRANCH   5   8
ATOM      8  S   UNL     1     -11.249  -3.437  -6.805  0.00  0.00    +0.062 S 
ATOM      9  O   UNL     1     -11.202  -4.412  -7.837  0.00  0.00    -0.153 OA
ATOM     10  O   UNL     1     -11.758  -3.722  -5.509  0.00  0.00    -0.153 OA
BRANCH   8  11
ATOM     11  N   UNL     1     -12.136  -2.168  -7.393  0.00  0.00    -0.177 NA
ATOM     12  C   UNL     1     -12.785  -1.282  -6.453  0.00  0.00    +0.109 C 
ATOM     13  C   UNL     1     -14.201  -1.817  -6.128  0.00  0.00    +0.017 C 
ATOM     14  C   UNL     1     -15.092  -1.643  -7.286  0.00  0.00    +0.001 C 
ATOM     15  C   UNL     1     -14.669  -2.423  -8.527  0.00  0.00    +0.001 C 
ATOM     16  C   UNL     1     -13.656  -1.618  -9.303  0.00  0.00    +0.017 C 
ATOM     17  C   UNL     1     -12.226  -1.985  -8.855  0.00  0.00    +0.109 C 
ENDBRANCH   8  11
ENDBRANCH   5   8
BRANCH   1  18
ATOM     18  C   UNL     1      -7.168  -2.257  -3.785  0.00  0.00    +0.340 C 
ATOM     19  O   UNL     1      -7.824  -2.597  -2.821  0.00  0.00    -0.245 OA
BRANCH  18  20
ATOM     20  O   UNL     1      -5.908  -1.810  -3.619  0.00  0.00    -0.452 OA
BRANCH  20  21
ATOM     21  C   UNL     1      -5.408  -1.762  -2.281  0.00  0.00    +0.328 C 
BRANCH  21  26
ATOM     22  N   UNL     1      -1.372  -0.511   0.012  0.00  0.00    -0.297 N 
ATOM     23  C   UNL     1      -2.051  -0.643  -1.145  0.00  0.00    +0.306 C 
ATOM     24  O   UNL     1      -1.522  -0.341  -2.197  0.00  0.00    -0.252 OA
ATOM     25  N   UNL     1      -3.315  -1.109  -1.135  0.00  0.00    -0.237 N 
ATOM     26  C   UNL     1      -3.994  -1.241  -2.292  0.00  0.00    +0.258 C 
ATOM     27  O   UNL     1      -3.467  -0.940  -3.341  0.00  0.00    -0.272 OA
ATOM     28  H   UNL     1      -1.794  -0.752   0.852  0.00  0.00    +0.151 HD
ATOM     29  H   UNL     1      -3.737  -1.350  -0.295  0.00  0.00    +0.159 HD
BRANCH  22  31
ATOM     30  C   UNL     1      -0.019   1.526   0.010  0.00  0.00    +0.027 C 
ATOM     31  C   UNL     1       0.002  -0.004   0.002  0.00  0.00    +0.068 C 
ATOM     32  C   UNL     1       0.742  -0.511   1.242  0.00  0.00    +0.027 C 
ENDBRANCH  22  31
ENDBRANCH  21  26
ENDBRANCH  20  21
ENDBRANCH  18  20
ENDBRANCH   1  18
TORSDOF 7
