REMARK  Name = ZINC59315757
REMARK  9 active torsions:
REMARK  status: ('A' for Active; 'I' for Inactive)
REMARK    1  A    between atoms: C_1  and  C_2
REMARK    2  A    between atoms: C_5  and  N_9
REMARK    3  A    between atoms: C_13  and  S_14
REMARK    4  A    between atoms: S_14  and  C_15
REMARK    5  A    between atoms: C_15  and  C_16
REMARK    6  A    between atoms: N_18  and  C_19
REMARK    7  A    between atoms: C_19  and  C_21
REMARK    8  A    between atoms: C_19  and  C_22
REMARK    9  A    between atoms: C_23  and  C_31
REMARK                            x       y       z     vdW  Elec       q    Type
REMARK                         _______ _______ _______ _____ _____    ______ ____
ROOT
ATOM      1  C   UNL     1       4.063  -5.755   3.274  0.00  0.00    +0.224 C 
ATOM      2  O   UNL     1       4.355  -4.607   3.535  0.00  0.00    -0.275 OA
ATOM      3  N   UNL     1       4.755  -6.769   3.831  0.00  0.00    -0.305 N 
ATOM      4  H   UNL     1       4.522  -7.687   3.622  0.00  0.00    +0.149 HD
ENDROOT
BRANCH   3   5
ATOM      5  C   UNL     1       5.859  -6.484   4.751  0.00  0.00    +0.136 C 
ATOM      6  C   UNL     1       7.141  -6.243   3.951  0.00  0.00    +0.036 C 
BRANCH   5   7
ATOM      7  C   UNL     1       6.057  -7.657   5.676  0.00  0.00    +0.129 A 
ATOM      8  C   UNL     1       6.236  -7.568   7.001  0.00  0.00    +0.000 A 
ATOM      9  C   UNL     1       6.384  -8.945   7.488  0.00  0.00    +0.023 A 
ATOM     10  C   UNL     1       6.593  -9.518   8.741  0.00  0.00    +0.012 A 
ATOM     11  C   UNL     1       6.689 -10.878   8.857  0.00  0.00    +0.001 A 
ATOM     12  C   UNL     1       6.581 -11.687   7.735  0.00  0.00    +0.004 A 
ATOM     13  C   UNL     1       6.375 -11.138   6.488  0.00  0.00    +0.047 A 
ATOM     14  C   UNL     1       6.274  -9.759   6.348  0.00  0.00    +0.136 A 
ATOM     15  O   UNL     1       6.074  -8.946   5.292  0.00  0.00    -0.458 OA
ATOM     16  C   UNL     1       6.276  -6.307   7.826  0.00  0.00    +0.048 C 
ENDBRANCH   5   7
ENDBRANCH   3   5
BRANCH   1  17
ATOM     17  C   UNL     1       2.928  -6.048   2.327  0.00  0.00    +0.173 C 
BRANCH  17  18
ATOM     18  S   UNL     1       2.203  -4.488   1.752  0.00  0.00    -0.076 S 
BRANCH  18  23
ATOM     19  N   UNL     1       0.059  -4.174  -0.022  0.00  0.00    -0.277 N 
ATOM     20  C   UNL     1      -0.766  -5.008  -0.729  0.00  0.00    +0.230 A 
ATOM     21  N   UNL     1      -0.411  -6.231  -0.452  0.00  0.00    -0.137 NA
ATOM     22  N   UNL     1       0.574  -6.229   0.375  0.00  0.00    -0.122 NA
ATOM     23  C   UNL     1       0.908  -4.993   0.669  0.00  0.00    +0.196 A 
BRANCH  19  28
ATOM     24  C   UNL     1      -0.018   1.503   0.010  0.00  0.00    +0.045 C 
ATOM     25  C   UNL     1       0.002  -0.004   0.002  0.00  0.00    -0.032 A 
ATOM     26  C   UNL     1       0.006  -0.688  -1.200  0.00  0.00    +0.007 A 
ATOM     27  C   UNL     1       0.025  -2.069  -1.211  0.00  0.00    +0.026 A 
ATOM     28  C   UNL     1       0.040  -2.771  -0.013  0.00  0.00    +0.051 A 
ATOM     29  C   UNL     1       0.037  -2.084   1.192  0.00  0.00    +0.046 A 
ATOM     30  C   UNL     1       0.023  -0.701   1.197  0.00  0.00    +0.046 A 
ATOM     31 CL   UNL     1       0.025   0.161   2.704  0.00  0.00    -0.083 Cl
ENDBRANCH  19  28
ENDBRANCH  18  23
ENDBRANCH  17  18
ENDBRANCH   1  17
TORSDOF 6
