REMARK  Name = ZINC63634945
REMARK  12 active torsions:
REMARK  status: ('A' for Active; 'I' for Inactive)
REMARK    1  A    between atoms: C_1  and  C_2
REMARK    2  A    between atoms: C_2  and  O_3
REMARK    3  A    between atoms: O_3  and  C_4
REMARK    4  A    between atoms: C_4  and  C_6
REMARK    5  A    between atoms: C_7  and  C_32
REMARK    6  A    between atoms: C_9  and  C_31
REMARK    7  A    between atoms: C_10  and  S_12
REMARK    8  A    between atoms: S_12  and  N_15
REMARK    9  A    between atoms: C_18  and  C_21
REMARK   10  A    between atoms: N_23  and  C_24
REMARK   11  A    between atoms: N_23  and  C_25
REMARK   12  A    between atoms: C_25  and  C_26
REMARK                            x       y       z     vdW  Elec       q    Type
REMARK                         _______ _______ _______ _____ _____    ______ ____
ROOT
ATOM      1  N   UNL     1      -6.199   0.098  -1.811  0.00  0.00    -0.180 NA
ATOM      2  C   UNL     1      -7.617  -0.082  -2.151  0.00  0.00    +0.110 C 
ATOM      3  C   UNL     1      -8.437  -0.093  -0.857  0.00  0.00    +0.030 C 
ATOM      4  C   UNL     1      -8.139   1.178  -0.058  0.00  0.00    +0.078 C 
ATOM      5  C   UNL     1      -6.654   1.214   0.311  0.00  0.00    +0.030 C 
ATOM      6  C   UNL     1      -5.815   1.236  -0.965  0.00  0.00    +0.110 C 
ENDROOT
BRANCH   4   7
ATOM      7  C   UNL     1      -8.969   1.187   1.199  0.00  0.00    +0.219 C 
ATOM      8  O   UNL     1      -9.632   0.215   1.495  0.00  0.00    -0.275 OA
ATOM      9  N   UNL     1      -8.976   2.274   1.995  0.00  0.00    -0.297 N 
ATOM     10  C   UNL     1      -8.289   3.497   1.571  0.00  0.00    +0.132 C 
BRANCH   9  11
ATOM     11  C   UNL     1      -9.669   2.234   3.285  0.00  0.00    +0.181 C 
BRANCH  11  12
ATOM     12  C   UNL     1      -8.715   1.768   4.354  0.00  0.00    +0.122 A 
ATOM     13  C   UNL     1      -7.928   2.560   5.106  0.00  0.00    +0.046 A 
ATOM     14  C   UNL     1      -7.203   1.711   5.973  0.00  0.00    +0.041 A 
ATOM     15  C   UNL     1      -7.590   0.452   5.700  0.00  0.00    +0.195 A 
ATOM     16  O   UNL     1      -8.510   0.493   4.723  0.00  0.00    -0.466 OA
ENDBRANCH  11  12
ENDBRANCH   9  11
ENDBRANCH   4   7
BRANCH   1  17
ATOM     17  S   UNL     1      -5.057  -0.964  -2.365  0.00  0.00    +0.044 S 
ATOM     18  O   UNL     1      -3.830  -0.251  -2.288  0.00  0.00    -0.157 OA
ATOM     19  O   UNL     1      -5.556  -1.413  -3.618  0.00  0.00    -0.157 OA
BRANCH  17  24
ATOM     20  C   UNL     1      -6.428  -2.993  -1.120  0.00  0.00    +0.088 C 
ATOM     21  C   UNL     1      -6.858  -2.814   0.151  0.00  0.00    +0.050 C 
ATOM     22  N   UNL     1      -5.972  -2.135   0.890  0.00  0.00    -0.258 NA
ATOM     23  C   UNL     1      -4.904  -1.796   0.245  0.00  0.00    +0.046 C 
ATOM     24  C   UNL     1      -5.066  -2.326  -1.167  0.00  0.00    +0.230 C 
ATOM     25  C   UNL     1      -3.726  -1.030   0.791  0.00  0.00    +0.063 C 
ATOM     26  C   UNL     1      -8.179  -3.319   0.673  0.00  0.00    +0.066 C 
BRANCH  20  27
ATOM     27  C   UNL     1      -7.100  -3.662  -2.174  0.00  0.00    +0.339 C 
ATOM     28  O   UNL     1      -8.198  -4.150  -1.983  0.00  0.00    -0.245 OA
BRANCH  27  29
ATOM     29  O   UNL     1      -6.523  -3.756  -3.390  0.00  0.00    -0.462 OA
BRANCH  29  31
ATOM     30  C   UNL     1      -6.448  -4.448  -5.704  0.00  0.00    +0.048 C 
ATOM     31  C   UNL     1      -7.256  -4.443  -4.405  0.00  0.00    +0.229 C 
ENDBRANCH  29  31
ENDBRANCH  27  29
ENDBRANCH  20  27
ENDBRANCH  17  24
ENDBRANCH   1  17
TORSDOF 8
