REMARK  Name = ZINC59117817
REMARK  10 active torsions:
REMARK  status: ('A' for Active; 'I' for Inactive)
REMARK    1  A    between atoms: C_1  and  C_2
REMARK    2  A    between atoms: C_2  and  C_3
REMARK    3  A    between atoms: C_3  and  C_4
REMARK    4  A    between atoms: C_3  and  C_5
REMARK    5  A    between atoms: C_3  and  C_6
REMARK    6  A    between atoms: N_14  and  C_18
REMARK    7  A    between atoms: C_18  and  C_19
REMARK    8  A    between atoms: N_21  and  C_22
REMARK    9  A    between atoms: C_22  and  C_23
REMARK   10  A    between atoms: C_32  and  C_35
REMARK                            x       y       z     vdW  Elec       q    Type
REMARK                         _______ _______ _______ _____ _____    ______ ____
ROOT
ATOM      1  C   UNL     1       3.998  -7.782  -1.329  0.00  0.00    +0.213 C 
ENDROOT
BRANCH   1  10
ATOM      2  C   UNL     1       0.675  -2.048  -1.300  0.00  0.00    -0.005 C 
ATOM      3  C   UNL     1       1.387  -2.563  -0.047  0.00  0.00    +0.006 C 
ATOM      4  C   UNL     1       1.398  -4.094  -0.061  0.00  0.00    +0.035 C 
ATOM      5  C   UNL     1       2.115  -4.587  -1.313  0.00  0.00    +0.113 C 
ATOM      6  C   UNL     1       1.429  -4.063  -2.570  0.00  0.00    +0.035 C 
ATOM      7  C   UNL     1       1.418  -2.533  -2.547  0.00  0.00    +0.006 C 
ATOM      8  C   UNL     1       2.168  -6.097  -1.331  0.00  0.00    +0.247 C 
ATOM      9  O   UNL     1       1.230  -6.864  -1.353  0.00  0.00    -0.273 OA
ATOM     10  N   UNL     1       3.480  -6.412  -1.319  0.00  0.00    -0.215 N 
ATOM     11  C   UNL     1       4.250  -5.316  -1.296  0.00  0.00    +0.310 C 
ATOM     12  O   UNL     1       5.465  -5.344  -1.282  0.00  0.00    -0.252 OA
ATOM     13  N   UNL     1       3.526  -4.181  -1.291  0.00  0.00    -0.285 N 
ATOM     14  H   UNL     1       3.869  -3.273  -1.275  0.00  0.00    +0.151 HD
BRANCH   2  15
ATOM     15  C   UNL     1       0.654  -0.518  -1.281  0.00  0.00    -0.032 C 
ATOM     16  C   UNL     1      -0.059  -0.003  -2.532  0.00  0.00    +0.011 C 
ATOM     17  C   UNL     1       2.090   0.011  -1.258  0.00  0.00    +0.011 C 
BRANCH  15  19
ATOM     18  C   UNL     1      -0.108   1.496  -0.016  0.00  0.00    +0.004 C 
ATOM     19  C   UNL     1      -0.088  -0.033  -0.034  0.00  0.00    +0.003 C 
ENDBRANCH  15  19
ENDBRANCH   2  15
ENDBRANCH   1  10
BRANCH   1  20
ATOM     20  C   UNL     1       4.193  -8.235  -2.753  0.00  0.00    +0.231 C 
ATOM     21  O   UNL     1       3.926  -7.487  -3.669  0.00  0.00    -0.274 OA
ATOM     22  N   UNL     1       4.665  -9.472  -3.008  0.00  0.00    -0.310 N 
ATOM     23  H   UNL     1       4.879 -10.070  -2.275  0.00  0.00    +0.149 HD
BRANCH  22  24
ATOM     24  C   UNL     1       4.855  -9.912  -4.392  0.00  0.00    +0.141 C 
BRANCH  24  25
ATOM     25  C   UNL     1       5.388 -11.322  -4.402  0.00  0.00    -0.014 A 
ATOM     26  C   UNL     1       6.757 -11.554  -4.383  0.00  0.00    +0.010 A 
ATOM     27  C   UNL     1       7.205 -12.862  -4.393  0.00  0.00    +0.042 A 
ATOM     28  C   UNL     1       6.274 -13.896  -4.422  0.00  0.00    +0.099 A 
ATOM     29  N   UNL     1       4.976 -13.633  -4.440  0.00  0.00    -0.349 N 
ATOM     30  C   UNL     1       4.520 -12.395  -4.425  0.00  0.00    +0.089 A 
ATOM     31  N   UNL     1       6.710 -15.216  -4.433  0.00  0.00    -0.317 N 
ATOM     32  C   UNL     1       8.140 -15.530  -4.546  0.00  0.00    +0.107 C 
ATOM     33  C   UNL     1       8.341 -16.499  -5.716  0.00  0.00    +0.022 C 
ATOM     34  C   UNL     1       7.442 -17.722  -5.520  0.00  0.00    -0.011 C 
ATOM     35  C   UNL     1       5.976 -17.282  -5.504  0.00  0.00    +0.022 C 
ATOM     36  C   UNL     1       5.749 -16.322  -4.326  0.00  0.00    +0.107 C 
ATOM     37  C   UNL     1       7.665 -18.708  -6.669  0.00  0.00    +0.007 C 
ATOM     38  H   UNL     1       4.345 -14.370  -4.461  0.00  0.00    +0.167 HD
ENDBRANCH  24  25
ENDBRANCH  22  24
ENDBRANCH   1  20
TORSDOF 6
