REMARK  Name = ZINC16491797
REMARK  11 active torsions:
REMARK  status: ('A' for Active; 'I' for Inactive)
REMARK    1  A    between atoms: C_1  and  C_2
REMARK    2  A    between atoms: C_5  and  C_8
REMARK    3  A    between atoms: C_8  and  N_9
REMARK    4  A    between atoms: C_10  and  C_32
REMARK    5  A    between atoms: C_11  and  C_15
REMARK    6  A    between atoms: C_12  and  C_14
REMARK    7  A    between atoms: C_16  and  C_17
REMARK    8  A    between atoms: N_19  and  C_20
REMARK    9  A    between atoms: C_20  and  C_21
REMARK   10  A    between atoms: N_23  and  C_24
REMARK   11  A    between atoms: C_29  and  C_30
REMARK                            x       y       z     vdW  Elec       q    Type
REMARK                         _______ _______ _______ _____ _____    ______ ____
ROOT
ATOM      1  C   UNL     1      -1.187  -0.870  -0.015  0.00  0.00    +0.016 C 
ATOM      2  C   UNL     1      -1.273  -1.878  -0.909  0.00  0.00    +0.068 C 
ENDROOT
BRANCH   1   5
ATOM      3  N   UNL     1       1.239   1.823  -0.030  0.00  0.00    -0.263 N 
ATOM      4  C   UNL     1      -0.038   1.403  -0.023  0.00  0.00    +0.044 A 
ATOM      5  C   UNL     1      -0.018   0.020  -0.022  0.00  0.00    +0.018 A 
ATOM      6  C   UNL     1       1.340  -0.377  -0.028  0.00  0.00    +0.067 A 
ATOM      7  N   UNL     1       2.075   0.701  -0.033  0.00  0.00    -0.175 NA
ATOM      8  C   UNL     1       1.848  -1.795  -0.029  0.00  0.00    +0.068 C 
ATOM      9  C   UNL     1      -1.265   2.278  -0.024  0.00  0.00    +0.066 C 
BRANCH   3  10
ATOM     10  C   UNL     1       1.681   3.219  -0.034  0.00  0.00    +0.178 C 
BRANCH  10  15
ATOM     11  C   UNL     1       2.289   5.063   5.409  0.00  0.00    +0.044 C 
ATOM     12  C   UNL     1       2.131   4.582   3.989  0.00  0.00    -0.050 A 
ATOM     13  C   UNL     1       3.199   4.001   3.333  0.00  0.00    +0.004 A 
ATOM     14  C   UNL     1       3.054   3.560   2.031  0.00  0.00    +0.006 A 
ATOM     15  C   UNL     1       1.839   3.700   1.385  0.00  0.00    -0.026 A 
ATOM     16  C   UNL     1       0.772   4.287   2.039  0.00  0.00    +0.006 A 
ATOM     17  C   UNL     1       0.917   4.724   3.343  0.00  0.00    +0.004 A 
ENDBRANCH  10  15
ENDBRANCH   3  10
ENDBRANCH   1   5
BRANCH   2  18
ATOM     18  C   UNL     1      -2.402  -2.737  -0.903  0.00  0.00    +0.237 C 
ATOM     19  O   UNL     1      -3.293  -2.565  -0.091  0.00  0.00    -0.271 OA
ATOM     20  N   UNL     1      -2.488  -3.743  -1.795  0.00  0.00    -0.303 N 
ATOM     21  H   UNL     1      -1.778  -3.880  -2.442  0.00  0.00    +0.149 HD
BRANCH  20  22
ATOM     22  C   UNL     1      -3.654  -4.630  -1.789  0.00  0.00    +0.200 C 
BRANCH  22  23
ATOM     23  C   UNL     1      -3.506  -5.663  -2.877  0.00  0.00    +0.234 C 
ATOM     24  O   UNL     1      -2.523  -5.658  -3.587  0.00  0.00    -0.274 OA
ATOM     25  N   UNL     1      -4.465  -6.591  -3.060  0.00  0.00    -0.284 N 
ATOM     26  H   UNL     1      -5.211  -6.646  -2.442  0.00  0.00    +0.155 HD
BRANCH  25  27
ATOM     27  C   UNL     1      -4.385  -7.477  -4.140  0.00  0.00    +0.036 A 
ATOM     28  C   UNL     1      -3.672  -7.123  -5.279  0.00  0.00    +0.024 A 
ATOM     29  C   UNL     1      -3.595  -7.998  -6.343  0.00  0.00    +0.017 A 
ATOM     30  C   UNL     1      -4.226  -9.228  -6.277  0.00  0.00    +0.018 A 
ATOM     31  C   UNL     1      -4.936  -9.584  -5.145  0.00  0.00    +0.020 A 
ATOM     32  C   UNL     1      -5.013  -8.714  -4.074  0.00  0.00    -0.028 A 
ATOM     33  C   UNL     1      -5.782  -9.104  -2.838  0.00  0.00    +0.046 C 
ATOM     34 BR   UNL     1      -4.117 -10.425  -7.737  0.00  0.00    -0.050 Br
ENDBRANCH  25  27
ENDBRANCH  22  23
ENDBRANCH  20  22
ENDBRANCH   2  18
TORSDOF 7
