REMARK  Name = ZINC17086675
REMARK  11 active torsions:
REMARK  status: ('A' for Active; 'I' for Inactive)
REMARK    1  A    between atoms: C_1  and  O_2
REMARK    2  A    between atoms: O_2  and  C_3
REMARK    3  A    between atoms: C_6  and  C_11
REMARK    4  A    between atoms: C_8  and  O_9
REMARK    5  A    between atoms: O_9  and  C_10
REMARK    6  A    between atoms: C_11  and  N_12
REMARK    7  A    between atoms: C_19  and  C_22
REMARK    8  A    between atoms: C_19  and  O_33
REMARK    9  A    between atoms: C_22  and  C_23
REMARK   10  A    between atoms: C_23  and  C_25
REMARK   11  A    between atoms: C_26  and  C_27
REMARK                            x       y       z     vdW  Elec       q    Type
REMARK                         _______ _______ _______ _____ _____    ______ ____
ROOT
ATOM      1  N   UNL     1       7.439   6.741   1.896  0.00  0.00    -0.264 N 
ATOM      2  C   UNL     1       7.010   7.960   1.370  0.00  0.00    +0.043 A 
ATOM      3  C   UNL     1       7.190   9.264   1.829  0.00  0.00    +0.025 A 
ATOM      4  C   UNL     1       6.661  10.325   1.124  0.00  0.00    +0.017 A 
ATOM      5  C   UNL     1       5.949  10.105  -0.042  0.00  0.00    +0.018 A 
ATOM      6  C   UNL     1       5.766   8.812  -0.503  0.00  0.00    +0.024 A 
ATOM      7  C   UNL     1       6.293   7.752   0.199  0.00  0.00    +0.016 A 
ATOM      8  C   UNL     1       6.273   6.258  -0.028  0.00  0.00    +0.175 C 
ATOM      9  C   UNL     1       7.053   5.697   1.143  0.00  0.00    +0.257 C 
ATOM     10  O   UNL     1       7.284   4.527   1.360  0.00  0.00    -0.272 OA
ATOM     11 BR   UNL     1       5.227  11.566  -1.002  0.00  0.00    -0.050 Br
ENDROOT
BRANCH   8  12
ATOM     12  O   UNL     1       6.915   5.927  -1.261  0.00  0.00    -0.374 OA
ATOM     13  H   UNL     1       6.957   4.978  -1.440  0.00  0.00    +0.211 HD
ENDBRANCH   8  12
BRANCH   1  14
ATOM     14  C   UNL     1       8.221   6.613   3.128  0.00  0.00    +0.149 C 
BRANCH  14  18
ATOM     15  C   UNL     1      12.391   6.759   2.192  0.00  0.00    +0.162 A 
ATOM     16  C   UNL     1      11.725   5.544   2.213  0.00  0.00    +0.050 A 
ATOM     17  C   UNL     1      10.378   5.500   2.521  0.00  0.00    +0.009 A 
ATOM     18  C   UNL     1       9.691   6.666   2.799  0.00  0.00    -0.026 A 
ATOM     19  C   UNL     1      10.349   7.882   2.780  0.00  0.00    +0.054 A 
ATOM     20  C   UNL     1      11.701   7.933   2.477  0.00  0.00    +0.162 A 
BRANCH  15  22
ATOM     21  C   UNL     1      14.362   5.559   1.613  0.00  0.00    +0.277 C 
ATOM     22  O   UNL     1      13.718   6.803   1.895  0.00  0.00    -0.491 OA
ENDBRANCH  15  22
BRANCH  20  23
ATOM     23  O   UNL     1      12.350   9.127   2.458  0.00  0.00    -0.491 OA
ATOM     24  C   UNL     1      11.577  10.291   2.760  0.00  0.00    +0.277 C 
ENDBRANCH  20  23
ENDBRANCH  14  18
ENDBRANCH   1  14
BRANCH   8  25
ATOM     25  C   UNL     1       4.836   5.733  -0.016  0.00  0.00    +0.128 C 
BRANCH  25  26
ATOM     26  C   UNL     1       4.852   4.226  -0.024  0.00  0.00    +0.160 C 
ATOM     27  O   UNL     1       5.910   3.630  -0.038  0.00  0.00    -0.293 OA
BRANCH  26  28
ATOM     28  C   UNL     1       3.638   3.508  -0.015  0.00  0.00    +0.047 C 
ATOM     29  C   UNL     1       3.652   2.155  -0.023  0.00  0.00    +0.011 C 
BRANCH  29  30
ATOM     30  C   UNL     1       2.387   1.406  -0.014  0.00  0.00    -0.025 A 
ATOM     31  C   UNL     1       1.165   2.089   0.002  0.00  0.00    +0.008 A 
ATOM     32  C   UNL     1      -0.017   1.380   0.010  0.00  0.00    +0.001 A 
ATOM     33  C   UNL     1       0.002  -0.004   0.002  0.00  0.00    +0.000 A 
ATOM     34  C   UNL     1       1.206  -0.687  -0.013  0.00  0.00    +0.001 A 
ATOM     35  C   UNL     1       2.397   0.007  -0.021  0.00  0.00    +0.008 A 
ENDBRANCH  29  30
ENDBRANCH  26  28
ENDBRANCH  25  26
ENDBRANCH   8  25
TORSDOF 9
