REMARK  Name = ZINC10050109
REMARK  10 active torsions:
REMARK  status: ('A' for Active; 'I' for Inactive)
REMARK    1  A    between atoms: C_1  and  C_2
REMARK    2  A    between atoms: C_6  and  N_8
REMARK    3  A    between atoms: C_9  and  C_36
REMARK    4  A    between atoms: N_18  and  C_23
REMARK    5  A    between atoms: N_21  and  C_22
REMARK    6  A    between atoms: C_23  and  C_24
REMARK    7  A    between atoms: C_24  and  C_26
REMARK    8  A    between atoms: C_24  and  C_27
REMARK    9  A    between atoms: C_27  and  N_69
REMARK   10  A    between atoms: C_30  and  C_33
REMARK                            x       y       z     vdW  Elec       q    Type
REMARK                         _______ _______ _______ _____ _____    ______ ____
ROOT
ATOM      1  N   UNL     1       6.977   1.182   2.067  0.00  0.00    -0.283 N 
ATOM      2  C   UNL     1       6.789  -0.050   1.467  0.00  0.00    +0.040 A 
ATOM      3  C   UNL     1       5.485  -0.309   1.449  0.00  0.00    +0.116 A 
ATOM      4  N   UNL     1       4.821   0.754   2.037  0.00  0.00    -0.277 N 
ATOM      5  C   UNL     1       5.743   1.670   2.416  0.00  0.00    +0.223 A 
ATOM      6  N   UNL     1       5.129   2.699   2.983  0.00  0.00    -0.193 NA
ATOM      7  C   UNL     1       3.815   2.494   2.993  0.00  0.00    +0.170 A 
ATOM      8  C   UNL     1       3.579   1.256   2.394  0.00  0.00    +0.157 A 
ATOM      9  C   UNL     1       2.259   0.791   2.280  0.00  0.00    +0.283 A 
ATOM     10  O   UNL     1       2.030  -0.289   1.764  0.00  0.00    -0.265 OA
ATOM     11  N   UNL     1       1.247   1.554   2.742  0.00  0.00    -0.259 N 
ATOM     12  C   UNL     1       1.483   2.745   3.317  0.00  0.00    +0.333 A 
ATOM     13  O   UNL     1       0.545   3.402   3.726  0.00  0.00    -0.246 OA
ATOM     14  N   UNL     1       2.732   3.229   3.453  0.00  0.00    -0.279 N 
ATOM     15  C   UNL     1       2.949   4.532   4.086  0.00  0.00    +0.155 C 
ATOM     16  C   UNL     1       7.875  -0.945   0.928  0.00  0.00    +0.065 C 
ENDROOT
BRANCH   1  22
ATOM     17  C   UNL     1      11.021   3.297   0.236  0.00  0.00    +0.044 C 
ATOM     18  C   UNL     1      10.186   2.853   1.410  0.00  0.00    -0.048 A 
ATOM     19  C   UNL     1      10.635   3.074   2.699  0.00  0.00    +0.003 A 
ATOM     20  C   UNL     1       9.873   2.668   3.779  0.00  0.00    +0.002 A 
ATOM     21  C   UNL     1       8.660   2.041   3.573  0.00  0.00    +0.026 A 
ATOM     22  C   UNL     1       8.206   1.818   2.279  0.00  0.00    +0.050 A 
ATOM     23  C   UNL     1       8.976   2.223   1.197  0.00  0.00    +0.029 A 
ENDBRANCH   1  22
BRANCH  11  24
ATOM     24  C   UNL     1      -0.132   1.073   2.619  0.00  0.00    +0.131 C 
BRANCH  24  25
ATOM     25  C   UNL     1      -0.722   1.549   1.290  0.00  0.00    -0.011 C 
ATOM     26  C   UNL     1       0.038   0.899   0.133  0.00  0.00    +0.007 C 
BRANCH  25  27
ATOM     27  C   UNL     1      -2.198   1.155   1.217  0.00  0.00    -0.074 C 
BRANCH  27  33
ATOM     28  C   UNL     1      -2.687   3.272   2.285  0.00  0.00    -0.078 C 
ATOM     29  C   UNL     1      -3.354   3.914   3.503  0.00  0.00    -0.006 C 
ATOM     30  C   UNL     1      -4.859   3.638   3.461  0.00  0.00    +0.071 C 
ATOM     31  C   UNL     1      -5.091   2.125   3.423  0.00  0.00    -0.006 C 
ATOM     32  C   UNL     1      -4.375   1.534   2.207  0.00  0.00    -0.078 C 
ATOM     33  N   UNL     1      -2.927   1.813   2.321  0.00  0.00    +0.380 N 
ATOM     34  H   UNL     1      -2.586   1.441   3.215  0.00  0.00    -0.082 HD
BRANCH  30  35
ATOM     35  C   UNL     1      -5.513   4.217   4.689  0.00  0.00    +0.213 C 
ATOM     36  O   UNL     1      -6.106   3.493   5.459  0.00  0.00    -0.276 OA
ATOM     37  N   UNL     1      -5.438   5.541   4.931  0.00  0.00    -0.329 N 
ATOM     38  H   UNL     1      -4.963   6.121   4.315  0.00  0.00    +0.145 HD
ATOM     39  H   UNL     1      -5.859   5.914   5.722  0.00  0.00    +0.145 HD
ENDBRANCH  30  35
ENDBRANCH  27  33
ENDBRANCH  25  27
ENDBRANCH  24  25
ENDBRANCH  11  24
TORSDOF 6
