REMARK  Name = ZINC14276556
REMARK  13 active torsions:
REMARK  status: ('A' for Active; 'I' for Inactive)
REMARK    1  A    between atoms: C_1  and  C_2
REMARK    2  A    between atoms: C_2  and  C_3
REMARK    3  A    between atoms: C_2  and  C_4
REMARK    4  A    between atoms: C_7  and  C_10
REMARK    5  A    between atoms: C_11  and  C_12
REMARK    6  A    between atoms: N_14  and  C_15
REMARK    7  A    between atoms: C_15  and  N_17
REMARK    8  A    between atoms: N_17  and  C_18
REMARK    9  A    between atoms: C_19  and  C_32
REMARK   10  A    between atoms: C_24  and  C_28
REMARK   11  A    between atoms: C_28  and  C_29
REMARK   12  A    between atoms: C_28  and  C_30
REMARK   13  A    between atoms: C_28  and  C_31
REMARK                            x       y       z     vdW  Elec       q    Type
REMARK                         _______ _______ _______ _____ _____    ______ ____
ROOT
ATOM      1  N   UNL     1      -3.434  -4.884   0.009  0.00  0.00    -0.291 N 
ATOM      2  H   UNL     1      -4.281  -4.411   0.019  0.00  0.00    +0.154 HD
ENDROOT
BRANCH   1   3
ATOM      3  C   UNL     1      -3.416  -6.270   0.001  0.00  0.00    +0.084 A 
ATOM      4  C   UNL     1      -4.491  -7.147   0.007  0.00  0.00    +0.068 A 
ATOM      5  C   UNL     1      -4.197  -8.570  -0.004  0.00  0.00    -0.023 A 
ATOM      6  C   UNL     1      -2.884  -8.886  -0.019  0.00  0.00    -0.004 A 
ATOM      7  S   UNL     1      -2.044  -7.328  -0.025  0.00  0.00    -0.077 S 
ATOM      8  C   UNL     1      -2.285 -10.259  -0.033  0.00  0.00    +0.046 C 
ATOM      9  C   UNL     1      -3.386 -11.263  -0.406  0.00  0.00    -0.000 C 
ATOM     10  C   UNL     1      -4.626 -10.973   0.445  0.00  0.00    +0.009 C 
ATOM     11  C   UNL     1      -5.266  -9.656   0.001  0.00  0.00    +0.037 C 
BRANCH   4  12
ATOM     12  C   UNL     1      -5.872  -6.656   0.023  0.00  0.00    +0.244 C 
ATOM     13  O   UNL     1      -6.457  -6.447  -1.024  0.00  0.00    -0.270 OA
ATOM     14  N   UNL     1      -6.496  -6.437   1.198  0.00  0.00    -0.325 N 
ATOM     15  H   UNL     1      -6.030  -6.604   2.033  0.00  0.00    +0.145 HD
ATOM     16  H   UNL     1      -7.410  -6.112   1.209  0.00  0.00    +0.145 HD
ENDBRANCH   4  12
BRANCH   9  17
ATOM     17  C   UNL     1      -2.896 -12.686  -0.131  0.00  0.00    -0.035 C 
ATOM     18  C   UNL     1      -4.001 -13.683  -0.487  0.00  0.00    +0.011 C 
ATOM     19  C   UNL     1      -1.657 -12.972  -0.982  0.00  0.00    +0.011 C 
ATOM     20  C   UNL     1      -2.541 -12.826   1.351  0.00  0.00    +0.011 C 
ENDBRANCH   9  17
ENDBRANCH   1   3
BRANCH   1  21
ATOM     21  C   UNL     1      -2.276  -4.195   0.001  0.00  0.00    +0.141 C 
ATOM     22  S   UNL     1      -0.782  -5.030  -0.018  0.00  0.00    -0.018 S 
BRANCH  21  25
ATOM     23  C   UNL     1      -1.137  -2.157   0.001  0.00  0.00    +0.242 C 
ATOM     24  O   UNL     1      -0.075  -2.751  -0.012  0.00  0.00    -0.270 OA
ATOM     25  N   UNL     1      -2.295  -2.847   0.009  0.00  0.00    -0.264 N 
ATOM     26  H   UNL     1      -3.141  -2.373   0.019  0.00  0.00    +0.157 HD
BRANCH  23  28
ATOM     27  C   UNL     1       0.002  -0.004   0.002  0.00  0.00    +0.013 C 
ATOM     28  C   UNL     1      -1.157  -0.694   0.009  0.00  0.00    +0.068 C 
BRANCH  27  32
ATOM     29  C   UNL     1      -0.056   4.237   0.025  0.00  0.00    -0.045 A 
ATOM     30  C   UNL     1       1.154   3.565   0.010  0.00  0.00    +0.004 A 
ATOM     31  C   UNL     1       1.181   2.187   0.003  0.00  0.00    +0.008 A 
ATOM     32  C   UNL     1      -0.018   1.468   0.010  0.00  0.00    -0.025 A 
ATOM     33  C   UNL     1      -1.236   2.154   0.020  0.00  0.00    +0.008 A 
ATOM     34  C   UNL     1      -1.247   3.533   0.033  0.00  0.00    +0.004 A 
BRANCH  29  36
ATOM     35  C   UNL     1      -0.816   6.250  -1.208  0.00  0.00    +0.012 C 
ATOM     36  C   UNL     1      -0.076   5.744   0.032  0.00  0.00    +0.013 C 
ATOM     37  C   UNL     1      -0.792   6.238   1.291  0.00  0.00    +0.012 C 
ENDBRANCH  29  36
ENDBRANCH  27  32
ENDBRANCH  23  28
ENDBRANCH  21  25
ENDBRANCH   1  21
TORSDOF 8
