REMARK  Name = ZINC63900939
REMARK  10 active torsions:
REMARK  status: ('A' for Active; 'I' for Inactive)
REMARK    1  A    between atoms: C_1  and  C_2
REMARK    2  A    between atoms: C_3  and  C_15
REMARK    3  A    between atoms: N_5  and  C_7
REMARK    4  A    between atoms: N_17  and  C_18
REMARK    5  A    between atoms: C_18  and  C_19
REMARK    6  A    between atoms: C_19  and  C_21
REMARK    7  A    between atoms: C_19  and  C_30
REMARK    8  A    between atoms: C_24  and  N_27
REMARK    9  A    between atoms: N_27  and  C_28
REMARK   10  A    between atoms: N_27  and  C_29
REMARK                            x       y       z     vdW  Elec       q    Type
REMARK                         _______ _______ _______ _____ _____    ______ ____
ROOT
ATOM      1  C   UNL     1      -2.641   0.402  -5.057  0.00  0.00    +0.064 C 
ENDROOT
BRANCH   1   2
ATOM      2  C   UNL     1      -3.312  -0.948  -5.069  0.00  0.00    -0.033 C 
ATOM      3  C   UNL     1      -4.409  -1.317  -4.370  0.00  0.00    -0.000 A 
ATOM      4  C   UNL     1      -5.273  -0.600  -3.424  0.00  0.00    +0.010 A 
ATOM      5  C   UNL     1      -6.322  -1.250  -2.871  0.00  0.00    +0.001 A 
ATOM      6  C   UNL     1      -6.604  -2.588  -3.178  0.00  0.00    +0.002 A 
ATOM      7  C   UNL     1      -5.856  -3.313  -4.037  0.00  0.00    +0.026 A 
ATOM      8  C   UNL     1      -4.728  -2.729  -4.677  0.00  0.00    +0.043 A 
ATOM      9  N   UNL     1      -3.862  -3.215  -5.532  0.00  0.00    -0.380 N 
ATOM     10  C   UNL     1      -2.898  -2.162  -5.870  0.00  0.00    +0.145 C 
ATOM     11  H   UNL     1      -3.861  -4.118  -5.886  0.00  0.00    +0.160 HD
ENDBRANCH   1   2
BRANCH   1  12
ATOM     12  C   UNL     1      -2.657   0.983  -6.448  0.00  0.00    -0.039 A 
ATOM     13  C   UNL     1      -2.041   0.306  -7.484  0.00  0.00    +0.006 A 
ATOM     14  C   UNL     1      -2.053   0.836  -8.760  0.00  0.00    +0.023 A 
ATOM     15  C   UNL     1      -2.685   2.049  -9.001  0.00  0.00    +0.029 A 
ATOM     16  C   UNL     1      -3.303   2.726  -7.957  0.00  0.00    +0.023 A 
ATOM     17  C   UNL     1      -3.292   2.188  -6.685  0.00  0.00    +0.006 A 
BRANCH  15  18
ATOM     18  N   UNL     1      -2.699   2.587 -10.290  0.00  0.00    -0.336 N 
ATOM     19  C   UNL     1      -1.942   1.938 -11.363  0.00  0.00    +0.129 C 
ATOM     20  C   UNL     1      -3.471   3.801 -10.568  0.00  0.00    +0.129 C 
ENDBRANCH  15  18
ENDBRANCH   1  12
BRANCH   1  21
ATOM     21  C   UNL     1      -1.194   0.248  -4.585  0.00  0.00    +0.117 C 
BRANCH  21  24
ATOM     22  C   UNL     1      -0.007  -0.408  -2.560  0.00  0.00    +0.249 C 
ATOM     23  O   UNL     1       1.040  -0.218  -3.148  0.00  0.00    -0.270 OA
ATOM     24  N   UNL     1      -1.181  -0.203  -3.191  0.00  0.00    -0.310 N 
ATOM     25  H   UNL     1      -2.016  -0.355  -2.722  0.00  0.00    +0.149 HD
BRANCH  22  28
ATOM     26  C   UNL     1       0.011   1.468  -0.001  0.00  0.00    +0.068 C 
ATOM     27  C   UNL     1       0.014  -0.039  -0.010  0.00  0.00    +0.074 A 
ATOM     28  C   UNL     1       0.006  -0.862  -1.159  0.00  0.00    +0.096 A 
ATOM     29  C   UNL     1       0.013  -2.174  -0.721  0.00  0.00    +0.145 A 
ATOM     30  N   UNL     1       0.024  -2.147   0.625  0.00  0.00    -0.220 N 
ATOM     31  N   UNL     1       0.030  -0.811   1.042  0.00  0.00    -0.170 NA
ATOM     32 CL   UNL     1       0.006  -3.592  -1.721  0.00  0.00    -0.061 Cl
BRANCH  30  33
ATOM     33  C   UNL     1       0.034  -3.268   1.467  0.00  0.00    +0.067 A 
ATOM     34  C   UNL     1      -0.652  -4.418   1.101  0.00  0.00    +0.030 A 
ATOM     35  C   UNL     1      -0.641  -5.521   1.932  0.00  0.00    +0.040 A 
ATOM     36  C   UNL     1       0.053  -5.480   3.130  0.00  0.00    +0.124 A 
ATOM     37  C   UNL     1       0.737  -4.334   3.497  0.00  0.00    +0.040 A 
ATOM     38  C   UNL     1       0.733  -3.231   2.666  0.00  0.00    +0.030 A 
ATOM     39  F   UNL     1       0.062  -6.560   3.941  0.00  0.00    -0.205 F 
ENDBRANCH  30  33
ENDBRANCH  22  28
ENDBRANCH  21  24
ENDBRANCH   1  21
TORSDOF 7
