REMARK  Name = ZINC67587329
REMARK  2 active torsions:
REMARK  status: ('A' for Active; 'I' for Inactive)
REMARK    1  A    between atoms: C_1  and  C_2
REMARK    2  A    between atoms: C_23  and  C_25
REMARK                            x       y       z     vdW  Elec       q    Type
REMARK                         _______ _______ _______ _____ _____    ______ ____
ROOT
ATOM      1  C   UNL     1      -0.023   1.521   0.005  0.00  0.00    +0.035 C 
ATOM      2  C   UNL     1       0.002  -0.009  -0.000  0.00  0.00    +0.121 C 
ATOM      3  C   UNL     1       0.732  -0.506  -1.228  0.00  0.00    +0.041 A 
ATOM      4  C   UNL     1       1.960  -1.069  -1.188  0.00  0.00    -0.016 A 
ATOM      5  C   UNL     1       2.315  -1.405  -2.552  0.00  0.00    +0.003 A 
ATOM      6  C   UNL     1       3.448  -1.998  -3.118  0.00  0.00    +0.010 A 
ATOM      7  C   UNL     1       3.443  -2.169  -4.480  0.00  0.00    +0.001 A 
ATOM      8  C   UNL     1       2.373  -1.778  -5.268  0.00  0.00    +0.002 A 
ATOM      9  C   UNL     1       1.240  -1.189  -4.735  0.00  0.00    +0.026 A 
ATOM     10  C   UNL     1       1.216  -1.002  -3.354  0.00  0.00    +0.047 A 
ATOM     11  N   UNL     1       0.280  -0.464  -2.519  0.00  0.00    -0.356 N 
ATOM     12  H   UNL     1      -0.577  -0.105  -2.799  0.00  0.00    +0.166 HD
ATOM     13  C   UNL     1       2.764  -1.289   0.067  0.00  0.00    +0.056 C 
ATOM     14  C   UNL     1       2.201  -0.400   1.183  0.00  0.00    +0.115 C 
ATOM     15  N   UNL     1       0.733  -0.501   1.181  0.00  0.00    -0.277 N 
ATOM     16  C   UNL     1       0.073  -1.031   2.230  0.00  0.00    +0.308 C 
ATOM     17  O   UNL     1       0.694  -1.518   3.155  0.00  0.00    -0.252 OA
ATOM     18  N   UNL     1      -1.275  -1.020   2.254  0.00  0.00    -0.247 N 
ATOM     19  C   UNL     1      -1.954  -1.471   3.381  0.00  0.00    +0.189 A 
ATOM     20  N   UNL     1      -1.467  -1.937   4.514  0.00  0.00    -0.125 NA
ATOM     21  N   UNL     1      -2.217  -2.313   5.459  0.00  0.00    -0.139 NA
ATOM     22  C   UNL     1      -3.524  -2.237   5.308  0.00  0.00    +0.169 A 
ATOM     23  S   UNL     1      -3.614  -1.558   3.657  0.00  0.00    -0.030 S 
ATOM     24  H   UNL     1      -1.771  -0.697   1.486  0.00  0.00    +0.158 HD
ENDROOT
BRANCH  22  25
ATOM     25  C   UNL     1      -4.630  -2.613   6.261  0.00  0.00    +0.398 C 
ATOM     26  F   UNL     1      -4.190  -2.442   7.577  0.00  0.00    -0.202 F 
ATOM     27  F   UNL     1      -5.742  -1.796   6.030  0.00  0.00    -0.202 F 
ENDBRANCH  22  25
TORSDOF 1
