REMARK  Name = ZINC38975583
REMARK  6 active torsions:
REMARK  status: ('A' for Active; 'I' for Inactive)
REMARK    1  A    between atoms: C_3  and  C_6
REMARK    2  A    between atoms: C_7  and  C_8
REMARK    3  A    between atoms: N_10  and  C_11
REMARK    4  A    between atoms: C_14  and  C_17
REMARK    5  A    between atoms: C_28  and  C_30
REMARK    6  A    between atoms: C_31  and  C_32
REMARK                            x       y       z     vdW  Elec       q    Type
REMARK                         _______ _______ _______ _____ _____    ______ ____
ROOT
ATOM      1  C   UNL     1      11.567  -2.215  -0.231  0.00  0.00    +0.218 C 
ATOM      2  N   UNL     1      11.981  -3.456   0.428  0.00  0.00    -0.360 N 
ATOM      3  C   UNL     1      12.861  -3.178   1.346  0.00  0.00    +0.060 C 
ATOM      4  C   UNL     1      13.592  -4.045   2.291  0.00  0.00    +0.029 C 
ATOM      5  C   UNL     1      14.463  -3.495   3.155  0.00  0.00    +0.025 C 
ATOM      6  C   UNL     1      14.687  -2.045   3.161  0.00  0.00    +0.036 C 
ATOM      7  C   UNL     1      13.996  -1.202   2.264  0.00  0.00    +0.050 C 
ATOM      8  C   UNL     1      13.108  -1.719   1.376  0.00  0.00    +0.075 C 
ATOM      9  N   UNL     1      12.317  -1.126   0.410  0.00  0.00    -0.220 NA
ATOM     10  N   UNL     1      15.552  -1.518   4.022  0.00  0.00    -0.282 N 
ATOM     11  C   UNL     1      16.300  -2.319   4.798  0.00  0.00    +0.241 C 
ATOM     12  O   UNL     1      17.008  -3.174   4.290  0.00  0.00    -0.270 OA
ATOM     13  H   UNL     1      15.643  -0.554   4.090  0.00  0.00    +0.155 HD
ATOM     14  H   UNL     1      11.652  -4.343   0.214  0.00  0.00    +0.162 HD
ENDROOT
BRANCH   1  18
ATOM     15  C   UNL     1       7.370  -1.608   0.295  0.00  0.00    +0.034 A 
ATOM     16  C   UNL     1       8.222  -0.517   0.185  0.00  0.00    +0.024 A 
ATOM     17  C   UNL     1       9.578  -0.716   0.016  0.00  0.00    +0.009 A 
ATOM     18  C   UNL     1      10.087  -2.001  -0.045  0.00  0.00    -0.006 A 
ATOM     19  C   UNL     1       9.241  -3.089   0.064  0.00  0.00    +0.009 A 
ATOM     20  C   UNL     1       7.885  -2.896   0.240  0.00  0.00    +0.024 A 
BRANCH  15  23
ATOM     21  C   UNL     1       5.384  -0.374  -0.142  0.00  0.00    +0.241 C 
ATOM     22  O   UNL     1       6.039   0.435  -0.774  0.00  0.00    -0.270 OA
ATOM     23  N   UNL     1       5.996  -1.409   0.467  0.00  0.00    -0.282 N 
ATOM     24  H   UNL     1       5.484  -2.016   1.023  0.00  0.00    +0.155 HD
BRANCH  21  26
ATOM     25  C   UNL     1       3.363   0.814  -0.659  0.00  0.00    +0.051 C 
ATOM     26  C   UNL     1       3.980  -0.228  -0.047  0.00  0.00    +0.071 C 
BRANCH  25  29
ATOM     27  C   UNL     1      -0.130   1.714  -0.781  0.00  0.00    +0.042 A 
ATOM     28  C   UNL     1       1.205   1.966  -1.134  0.00  0.00    +0.049 A 
ATOM     29  C   UNL     1       1.958   0.961  -0.564  0.00  0.00    +0.128 A 
ATOM     30  O   UNL     1       1.116   0.141   0.100  0.00  0.00    -0.464 OA
ATOM     31  C   UNL     1      -0.139   0.592  -0.029  0.00  0.00    +0.195 A 
ENDBRANCH  25  29
ENDBRANCH  21  26
ENDBRANCH  15  23
ENDBRANCH   1  18
BRANCH  11  32
ATOM     32  C   UNL     1      16.266  -2.168   6.252  0.00  0.00    +0.071 C 
ATOM     33  C   UNL     1      17.021  -2.978   7.036  0.00  0.00    +0.051 C 
BRANCH  33  34
ATOM     34  C   UNL     1      16.988  -2.831   8.443  0.00  0.00    +0.128 A 
ATOM     35  C   UNL     1      17.706  -3.579   9.356  0.00  0.00    +0.049 A 
ATOM     36  C   UNL     1      17.365  -3.092  10.626  0.00  0.00    +0.042 A 
ATOM     37  C   UNL     1      16.475  -2.090  10.445  0.00  0.00    +0.195 A 
ATOM     38  O   UNL     1      16.255  -1.933   9.132  0.00  0.00    -0.464 OA
ENDBRANCH  33  34
ENDBRANCH  11  32
TORSDOF 6
