REMARK  Name = ZINC20714870
REMARK  7 active torsions:
REMARK  status: ('A' for Active; 'I' for Inactive)
REMARK    1  A    between atoms: C_1  and  O_2
REMARK    2  A    between atoms: O_2  and  C_3
REMARK    3  A    between atoms: C_3  and  C_5
REMARK    4  A    between atoms: C_5  and  C_7
REMARK    5  A    between atoms: C_5  and  N_14
REMARK    6  A    between atoms: C_7  and  C_8
REMARK    7  A    between atoms: C_26  and  C_28
REMARK                            x       y       z     vdW  Elec       q    Type
REMARK                         _______ _______ _______ _____ _____    ______ ____
ROOT
ATOM      1  N   UNL     1      -0.615  -2.325  -3.524  0.00  0.00    -0.286 N 
ATOM      2  C   UNL     1       0.702  -2.609  -3.504  0.00  0.00    +0.304 C 
ATOM      3  O   UNL     1       1.344  -2.446  -2.485  0.00  0.00    -0.253 OA
ATOM      4  N   UNL     1       1.308  -3.074  -4.615  0.00  0.00    -0.273 N 
ATOM      5  C   UNL     1       2.716  -3.496  -4.584  0.00  0.00    +0.116 C 
ATOM      6  C   UNL     1       2.797  -4.999  -4.879  0.00  0.00    +0.074 C 
ATOM      7  C   UNL     1       1.901  -5.313  -6.048  0.00  0.00    +0.040 A 
ATOM      8  C   UNL     1       0.912  -4.512  -6.500  0.00  0.00    +0.062 A 
ATOM      9  N   UNL     1       0.333  -5.113  -7.541  0.00  0.00    -0.348 N 
ATOM     10  C   UNL     1       0.926  -6.258  -7.758  0.00  0.00    +0.171 A 
ATOM     11  N   UNL     1       1.912  -6.418  -6.845  0.00  0.00    -0.349 N 
ATOM     12  H   UNL     1       2.513  -7.175  -6.772  0.00  0.00    +0.166 HD
ATOM     13  C   UNL     1       0.573  -3.177  -5.888  0.00  0.00    +0.156 C 
ATOM     14  H   UNL     1      -1.110  -2.378  -4.356  0.00  0.00    +0.151 HD
ATOM     15  H   UNL     1      -0.409  -4.758  -8.055  0.00  0.00    +0.167 HD
ENDROOT
BRANCH  13  16
ATOM     16  C   UNL     1       0.998  -2.070  -6.817  0.00  0.00    -0.021 A 
ATOM     17  C   UNL     1       2.299  -2.020  -7.284  0.00  0.00    +0.007 A 
ATOM     18  C   UNL     1       2.689  -1.004  -8.136  0.00  0.00    +0.020 A 
ATOM     19  C   UNL     1       1.778  -0.037  -8.522  0.00  0.00    +0.041 A 
ATOM     20  C   UNL     1       0.477  -0.088  -8.055  0.00  0.00    +0.020 A 
ATOM     21  C   UNL     1       0.086  -1.107  -7.208  0.00  0.00    +0.007 A 
ATOM     22 CL   UNL     1       2.268   1.239  -9.592  0.00  0.00    -0.084 Cl
ENDBRANCH  13  16
BRANCH   1  23
ATOM     23  C   UNL     1      -1.299  -1.937  -2.288  0.00  0.00    +0.187 C 
BRANCH  23  24
ATOM     24  C   UNL     1      -1.724  -3.174  -1.539  0.00  0.00    +0.328 C 
ATOM     25  O   UNL     1      -1.480  -4.267  -1.991  0.00  0.00    -0.249 OA
BRANCH  24  27
ATOM     26  C   UNL     1      -2.745  -4.274   0.286  0.00  0.00    +0.280 C 
ATOM     27  O   UNL     1      -2.373  -3.060  -0.369  0.00  0.00    -0.467 OA
ENDBRANCH  24  27
ENDBRANCH  23  24
BRANCH  23  28
ATOM     28  C   UNL     1      -2.533  -1.099  -2.629  0.00  0.00    +0.069 C 
BRANCH  28  29
ATOM     29  C   UNL     1      -2.099   0.195  -3.269  0.00  0.00    -0.045 A 
ATOM     30  C   UNL     1      -1.844   1.303  -2.482  0.00  0.00    +0.004 A 
ATOM     31  C   UNL     1      -1.446   2.490  -3.069  0.00  0.00    +0.000 A 
ATOM     32  C   UNL     1      -1.304   2.569  -4.442  0.00  0.00    +0.000 A 
ATOM     33  C   UNL     1      -1.559   1.461  -5.228  0.00  0.00    +0.000 A 
ATOM     34  C   UNL     1      -1.952   0.273  -4.641  0.00  0.00    +0.004 A 
ENDBRANCH  28  29
ENDBRANCH  23  28
ENDBRANCH   1  23
TORSDOF 6
