REMARK  Name = ZINC58247154
REMARK  12 active torsions:
REMARK  status: ('A' for Active; 'I' for Inactive)
REMARK    1  A    between atoms: C_1  and  O_2
REMARK    2  A    between atoms: O_2  and  C_3
REMARK    3  A    between atoms: C_6  and  C_9
REMARK    4  A    between atoms: C_9  and  C_11
REMARK    5  A    between atoms: C_9  and  N_27
REMARK    6  A    between atoms: C_11  and  N_12
REMARK    7  A    between atoms: C_13  and  C_15
REMARK    8  A    between atoms: C_16  and  C_17
REMARK    9  A    between atoms: C_19  and  O_25
REMARK   10  A    between atoms: C_21  and  O_23
REMARK   11  A    between atoms: O_23  and  C_24
REMARK   12  A    between atoms: O_25  and  C_26
REMARK                            x       y       z     vdW  Elec       q    Type
REMARK                         _______ _______ _______ _____ _____    ______ ____
ROOT
ATOM      1  C   UNL     1       4.057  -2.952   3.952  0.00  0.00    +0.094 C 
ENDROOT
BRANCH   1   2
ATOM      2  N   UNL     1       4.799  -1.749   3.566  0.00  0.00    -0.313 N 
ATOM      3  C   UNL     1       6.066  -1.855   3.119  0.00  0.00    +0.237 C 
ATOM      4  O   UNL     1       6.593  -2.948   3.036  0.00  0.00    -0.271 OA
ATOM      5  H   UNL     1       4.379  -0.877   3.633  0.00  0.00    +0.149 HD
BRANCH   3   6
ATOM      6  C   UNL     1       6.809  -0.653   2.733  0.00  0.00    +0.068 C 
ATOM      7  C   UNL     1       8.076  -0.758   2.286  0.00  0.00    +0.013 C 
BRANCH   7   8
ATOM      8  C   UNL     1       8.823   0.450   1.898  0.00  0.00    -0.018 A 
ATOM      9  C   UNL     1       8.222   1.708   1.998  0.00  0.00    +0.053 A 
ATOM     10  C   UNL     1       8.928   2.841   1.633  0.00  0.00    +0.124 A 
ATOM     11  C   UNL     1      10.231   2.730   1.167  0.00  0.00    +0.091 A 
ATOM     12  C   UNL     1      10.832   1.483   1.066  0.00  0.00    +0.124 A 
ATOM     13  C   UNL     1      10.137   0.344   1.434  0.00  0.00    +0.053 A 
BRANCH  12  14
ATOM     14  O   UNL     1      12.108   1.381   0.609  0.00  0.00    -0.495 OA
ATOM     15  C   UNL     1      12.769   2.596   0.251  0.00  0.00    +0.277 C 
ENDBRANCH  12  14
BRANCH  10  16
ATOM     16  O   UNL     1       8.345   4.065   1.730  0.00  0.00    -0.495 OA
ATOM     17  C   UNL     1       9.132   5.191   1.336  0.00  0.00    +0.277 C 
ENDBRANCH  10  16
ENDBRANCH   7   8
ENDBRANCH   3   6
ENDBRANCH   1   2
BRANCH   1  18
ATOM     18  C   UNL     1       2.614  -2.572   4.293  0.00  0.00    -0.020 C 
BRANCH  18  19
ATOM     19  N   UNL     1       1.894  -3.762   4.767  0.00  0.00    +0.385 N 
ATOM     20  C   UNL     1       0.496  -3.409   5.040  0.00  0.00    -0.078 C 
ATOM     21  C   UNL     1      -0.278  -4.662   5.457  0.00  0.00    -0.019 C 
ATOM     22  C   UNL     1       0.357  -5.251   6.719  0.00  0.00    -0.004 C 
ATOM     23  C   UNL     1       1.834  -5.546   6.446  0.00  0.00    -0.019 C 
ATOM     24  C   UNL     1       2.530  -4.261   5.992  0.00  0.00    -0.078 C 
ATOM     25  H   UNL     1       1.926  -4.478   4.057  0.00  0.00    -0.081 HD
ENDBRANCH  18  19
BRANCH  18  29
ATOM     26  C   UNL     1       0.684  -1.036   0.804  0.00  0.00    +0.120 A 
ATOM     27  C   UNL     1       1.177  -0.166   1.765  0.00  0.00    +0.046 A 
ATOM     28  C   UNL     1       1.800  -0.665   2.892  0.00  0.00    +0.005 A 
ATOM     29  C   UNL     1       1.933  -2.030   3.062  0.00  0.00    -0.059 A 
ATOM     30  C   UNL     1       1.443  -2.900   2.105  0.00  0.00    +0.005 A 
ATOM     31  C   UNL     1       0.814  -2.406   0.979  0.00  0.00    +0.046 A 
BRANCH  26  33
ATOM     32  C   UNL     1      -0.028   0.874  -0.420  0.00  0.00    +0.277 C 
ATOM     33  O   UNL     1       0.070  -0.547  -0.306  0.00  0.00    -0.495 OA
ENDBRANCH  26  33
ENDBRANCH  18  29
ENDBRANCH   1  18
TORSDOF 9
