REMARK  Name = ZINC04786289
REMARK  5 active torsions:
REMARK  status: ('A' for Active; 'I' for Inactive)
REMARK    1  A    between atoms: C_5  and  C_7
REMARK    2  A    between atoms: C_16  and  N_25
REMARK    3  A    between atoms: C_17  and  C_23
REMARK    4  A    between atoms: C_18  and  C_19
REMARK    5  A    between atoms: C_18  and  C_21
REMARK                            x       y       z     vdW  Elec       q    Type
REMARK                         _______ _______ _______ _____ _____    ______ ____
ROOT
ATOM      1  C   UNL     1      -0.019   1.525   0.010  0.00  0.00    +0.069 C 
ATOM      2  C   UNL     1       1.487   1.759   0.146  0.00  0.00    +0.031 C 
ATOM      3  C   UNL     1       1.807   3.168   0.582  0.00  0.00    +0.009 C 
ATOM      4  C   UNL     1       2.239   4.046  -0.591  0.00  0.00    +0.005 C 
ATOM      5  C   UNL     1       3.470   3.405  -1.247  0.00  0.00    +0.027 C 
ATOM      6  C   UNL     1       3.062   2.049  -1.762  0.00  0.00    -0.021 C 
ATOM      7  C   UNL     1       2.147   1.332  -1.131  0.00  0.00    -0.026 C 
ATOM      8  C   UNL     1       1.729   0.030  -1.697  0.00  0.00    +0.044 C 
ATOM      9  C   UNL     1       0.591  -0.558  -1.242  0.00  0.00    +0.084 C 
ATOM     10  C   UNL     1      -0.272   0.027  -0.165  0.00  0.00    +0.186 C 
ENDROOT
BRANCH   1  15
ATOM     11  C   UNL     1      -0.931   2.046   3.637  0.00  0.00    +0.000 A 
ATOM     12  C   UNL     1      -2.004   2.912   3.531  0.00  0.00    +0.003 A 
ATOM     13  C   UNL     1      -2.436   3.329   2.287  0.00  0.00    +0.038 A 
ATOM     14  C   UNL     1      -1.790   2.884   1.145  0.00  0.00    +0.127 A 
ATOM     15  C   UNL     1      -0.719   2.014   1.252  0.00  0.00    -0.006 A 
ATOM     16  C   UNL     1      -0.289   1.598   2.498  0.00  0.00    +0.007 A 
ATOM     17  F   UNL     1      -2.208   3.296  -0.072  0.00  0.00    -0.205 F 
ENDBRANCH   1  15
BRANCH   8  18
ATOM     18  N   UNL     1       2.486  -0.581  -2.676  0.00  0.00    -0.357 N 
ATOM     19  H   UNL     1       2.170  -1.549  -3.093  0.00  0.00    +0.142 HD
ATOM     20  H   UNL     1       3.406  -0.100  -3.041  0.00  0.00    +0.142 HD
ENDBRANCH   8  18
BRANCH  10  21
ATOM     21  C   UNL     1       0.014  -0.660   1.105  0.00  0.00    +0.090 C 
ATOM     22  N   UNL     1       0.234  -1.190   2.086  0.00  0.00    -0.195 NA
ENDBRANCH  10  21
BRANCH  10  23
ATOM     23  C   UNL     1      -1.685  -0.183  -0.517  0.00  0.00    +0.090 C 
ATOM     24  N   UNL     1      -2.776  -0.345  -0.789  0.00  0.00    -0.195 NA
ENDBRANCH  10  23
BRANCH   9  25
ATOM     25  C   UNL     1       0.195  -1.806  -1.823  0.00  0.00    +0.099 C 
ATOM     26  N   UNL     1      -0.119  -2.796  -2.283  0.00  0.00    -0.191 NA
ENDBRANCH   9  25
TORSDOF 5
