REMARK  Name = ZINC12586921
REMARK  8 active torsions:
REMARK  status: ('A' for Active; 'I' for Inactive)
REMARK    1  A    between atoms: C_1  and  C_2
REMARK    2  A    between atoms: C_3  and  C_17
REMARK    3  A    between atoms: C_5  and  C_7
REMARK    4  A    between atoms: C_11  and  O_15
REMARK    5  A    between atoms: C_12  and  O_13
REMARK    6  A    between atoms: O_13  and  C_14
REMARK    7  A    between atoms: O_15  and  C_16
REMARK    8  A    between atoms: C_17  and  N_59
REMARK                            x       y       z     vdW  Elec       q    Type
REMARK                         _______ _______ _______ _____ _____    ______ ____
ROOT
ATOM      1  C   UNL     1      -0.013   1.086   0.008  0.00  0.00    +0.088 C 
ATOM      2  C   UNL     1      -0.718   1.572   1.248  0.00  0.00    +0.124 A 
ATOM      3  C   UNL     1      -0.148   1.839   2.437  0.00  0.00    +0.066 A 
ATOM      4  N   UNL     1      -1.115   2.246   3.274  0.00  0.00    -0.216 NA
ATOM      5  C   UNL     1      -2.259   2.235   2.631  0.00  0.00    +0.231 A 
ATOM      6  O   UNL     1      -2.037   1.825   1.370  0.00  0.00    -0.440 OA
ENDROOT
BRANCH   5   7
ATOM      7  C   UNL     1      -3.570   2.615   3.196  0.00  0.00    +0.082 A 
ATOM      8  C   UNL     1      -3.667   3.031   4.526  0.00  0.00    +0.017 A 
ATOM      9  C   UNL     1      -4.892   3.385   5.050  0.00  0.00    +0.005 A 
ATOM     10  C   UNL     1      -6.030   3.331   4.264  0.00  0.00    +0.049 A 
ATOM     11  C   UNL     1      -5.949   2.920   2.943  0.00  0.00    +0.162 A 
ATOM     12  C   UNL     1      -4.719   2.565   2.400  0.00  0.00    +0.174 A 
BRANCH  12  13
ATOM     13  O   UNL     1      -4.635   2.167   1.103  0.00  0.00    -0.491 OA
ATOM     14  C   UNL     1      -4.790   0.771   0.842  0.00  0.00    +0.277 C 
ENDBRANCH  12  13
BRANCH  11  15
ATOM     15  O   UNL     1      -7.071   2.869   2.177  0.00  0.00    -0.491 OA
ATOM     16  C   UNL     1      -8.299   3.253   2.798  0.00  0.00    +0.277 C 
ENDBRANCH  11  15
ENDBRANCH   5   7
BRANCH   3  17
ATOM     17  C   UNL     1       1.316   1.706   2.769  0.00  0.00    -0.019 C 
BRANCH  17  31
ATOM     18  C   UNL     1       1.987   3.264   1.043  0.00  0.00    -0.077 C 
ATOM     19  C   UNL     1       2.569   4.660   0.799  0.00  0.00    -0.003 C 
ATOM     20  C   UNL     1       3.994   4.716   1.348  0.00  0.00    +0.011 C 
ATOM     21  C   UNL     1       3.998   4.347   2.831  0.00  0.00    -0.003 C 
ATOM     22  C   UNL     1       3.370   2.962   3.010  0.00  0.00    -0.077 C 
ATOM     23  C   UNL     1       4.888   3.780   0.575  0.00  0.00    -0.015 C 
ATOM     24  C   UNL     1       5.844   4.498   0.009  0.00  0.00    +0.005 C 
ATOM     25  C   UNL     1       5.694   5.929   0.333  0.00  0.00    -0.021 A 
ATOM     26  C   UNL     1       4.573   6.093   1.151  0.00  0.00    -0.030 A 
ATOM     27  C   UNL     1       4.213   7.343   1.597  0.00  0.00    +0.005 A 
ATOM     28  C   UNL     1       4.964   8.450   1.235  0.00  0.00    +0.000 A 
ATOM     29  C   UNL     1       6.075   8.300   0.425  0.00  0.00    +0.001 A 
ATOM     30  C   UNL     1       6.445   7.050  -0.027  0.00  0.00    +0.008 A 
ATOM     31  N   UNL     1       1.984   2.994   2.496  0.00  0.00    +0.384 N 
ATOM     32  H   UNL     1       1.470   3.744   2.973  0.00  0.00    -0.081 HD
ENDBRANCH  17  31
ENDBRANCH   3  17
TORSDOF 5
