REMARK  Name = ZINC12146752
REMARK  8 active torsions:
REMARK  status: ('A' for Active; 'I' for Inactive)
REMARK    1  A    between atoms: C_1  and  C_2
REMARK    2  A    between atoms: C_2  and  N_13
REMARK    3  A    between atoms: C_10  and  C_11
REMARK    4  A    between atoms: C_10  and  C_12
REMARK    5  A    between atoms: C_14  and  C_16
REMARK    6  A    between atoms: C_16  and  N_17
REMARK    7  A    between atoms: C_20  and  N_29
REMARK    8  A    between atoms: C_22  and  C_24
REMARK                            x       y       z     vdW  Elec       q    Type
REMARK                         _______ _______ _______ _____ _____    ______ ____
ROOT
ATOM      1  C   UNL     1      -3.595  -0.682  -0.957  0.00  0.00    +0.243 C 
ENDROOT
BRANCH   1   2
ATOM      2  N   UNL     1      -4.317  -0.196  -2.136  0.00  0.00    -0.218 N 
ATOM      3  C   UNL     1      -4.325  -0.930  -3.267  0.00  0.00    +0.288 A 
ATOM      4  O   UNL     1      -3.735  -1.997  -3.311  0.00  0.00    -0.264 OA
ATOM      5  C   UNL     1      -5.026  -0.454  -4.405  0.00  0.00    +0.094 A 
ATOM      6  C   UNL     1      -5.680   0.742  -4.332  0.00  0.00    +0.058 A 
ATOM      7  C   UNL     1      -5.648   1.482  -3.130  0.00  0.00    +0.100 A 
ATOM      8  N   UNL     1      -4.998   1.025  -2.081  0.00  0.00    -0.167 NA
BRANCH   7   9
ATOM      9  C   UNL     1      -6.355   2.777  -3.048  0.00  0.00    +0.039 A 
ATOM     10  C   UNL     1      -6.445   3.646  -1.993  0.00  0.00    +0.018 A 
ATOM     11  C   UNL     1      -7.168   4.808  -2.152  0.00  0.00    +0.008 A 
ATOM     12  C   UNL     1      -7.768   5.056  -3.344  0.00  0.00    +0.046 A 
ATOM     13  S   UNL     1      -7.308   3.621  -4.301  0.00  0.00    -0.095 S 
ENDBRANCH   7   9
BRANCH   5  14
ATOM     14  N   UNL     1      -5.046  -1.198  -5.584  0.00  0.00    -0.354 N 
ATOM     15  H   UNL     1      -4.580  -2.047  -5.629  0.00  0.00    +0.142 HD
ATOM     16  H   UNL     1      -5.527  -0.867  -6.358  0.00  0.00    +0.142 HD
ENDBRANCH   5  14
ENDBRANCH   1   2
BRANCH   1  18
ATOM     17  N   UNL     1      -1.321  -0.497  -0.003  0.00  0.00    -0.308 N 
ATOM     18  C   UNL     1      -2.177  -0.175  -0.993  0.00  0.00    +0.235 C 
ATOM     19  O   UNL     1      -1.805   0.524  -1.912  0.00  0.00    -0.274 OA
ATOM     20  H   UNL     1      -1.618  -1.056   0.733  0.00  0.00    +0.149 HD
BRANCH  17  22
ATOM     21  C   UNL     1       0.076   1.526  -0.055  0.00  0.00    +0.032 C 
ATOM     22  C   UNL     1       0.058  -0.004  -0.037  0.00  0.00    +0.040 C 
ATOM     23  C   UNL     1       0.810  -0.572  -1.279  0.00  0.00    +0.013 C 
ATOM     24  C   UNL     1       2.148   0.229  -1.324  0.00  0.00    +0.006 C 
ATOM     25  C   UNL     1       2.954  -0.288  -0.110  0.00  0.00    +0.004 C 
ATOM     26  C   UNL     1       2.027  -1.351   0.554  0.00  0.00    -0.003 C 
ATOM     27  C   UNL     1       1.295  -1.955  -0.718  0.00  0.00    +0.009 C 
ATOM     28  C   UNL     1       0.852  -0.538   1.178  0.00  0.00    -0.011 C 
ATOM     29  C   UNL     1       1.417   0.624   1.998  0.00  0.00    +0.013 C 
ATOM     30  C   UNL     1      -0.040  -1.424   2.050  0.00  0.00    +0.013 C 
ENDBRANCH  17  22
ENDBRANCH   1  18
TORSDOF 5
