REMARK  Name = ZINC00726584
REMARK  8 active torsions:
REMARK  status: ('A' for Active; 'I' for Inactive)
REMARK    1  A    between atoms: C_1  and  C_2
REMARK    2  A    between atoms: C_3  and  C_24
REMARK    3  A    between atoms: C_4  and  C_14
REMARK    4  A    between atoms: C_16  and  O_22
REMARK    5  A    between atoms: C_17  and  O_21
REMARK    6  A    between atoms: O_22  and  C_23
REMARK    7  A    between atoms: C_24  and  O_26
REMARK    8  A    between atoms: O_26  and  C_27
REMARK                            x       y       z     vdW  Elec       q    Type
REMARK                         _______ _______ _______ _____ _____    ______ ____
ROOT
ATOM      1  C   UNL     1       4.751   4.148   0.830  0.00  0.00    +0.061 C 
ATOM      2  C   UNL     1       3.564   3.322   0.406  0.00  0.00    +0.031 C 
ATOM      3  C   UNL     1       3.644   1.981   0.419  0.00  0.00    +0.154 C 
ATOM      4  C   UNL     1       2.485   1.127  -0.008  0.00  0.00    +0.073 C 
ATOM      5  C   UNL     1       1.201   1.918   0.002  0.00  0.00    +0.025 C 
ATOM      6  C   UNL     1       1.222   3.267  -0.001  0.00  0.00    +0.048 C 
ATOM      7  N   UNL     1       2.413   3.944   0.009  0.00  0.00    -0.260 NA
ATOM      8  C   UNL     1      -0.059   4.064  -0.014  0.00  0.00    +0.056 C 
ATOM      9  C   UNL     1      -1.153   3.287   0.725  0.00  0.00    +0.014 C 
ATOM     10  C   UNL     1      -1.335   1.932   0.028  0.00  0.00    +0.080 C 
ATOM     11  C   UNL     1      -0.015   1.211   0.013  0.00  0.00    +0.162 C 
ATOM     12  O   UNL     1       0.002  -0.004   0.007  0.00  0.00    -0.292 OA
ENDROOT
BRANCH   4  13
ATOM     13  C   UNL     1       2.733   0.603  -1.399  0.00  0.00    -0.034 A 
ATOM     14  C   UNL     1       2.823  -0.759  -1.617  0.00  0.00    +0.053 A 
ATOM     15  C   UNL     1       3.051  -1.243  -2.896  0.00  0.00    +0.163 A 
ATOM     16  C   UNL     1       3.189  -0.355  -3.958  0.00  0.00    +0.173 A 
ATOM     17  C   UNL     1       3.097   1.010  -3.733  0.00  0.00    +0.063 A 
ATOM     18  C   UNL     1       2.864   1.486  -2.455  0.00  0.00    +0.023 A 
ATOM     19 BR   UNL     1       3.282   2.221  -5.174  0.00  0.00    -0.046 Br
BRANCH  16  20
ATOM     20  O   UNL     1       3.413  -0.825  -5.215  0.00  0.00    -0.503 OA
ATOM     21  H   UNL     1       2.607  -0.996  -5.720  0.00  0.00    +0.292 HD
ENDBRANCH  16  20
BRANCH  15  22
ATOM     22  O   UNL     1       3.141  -2.582  -3.111  0.00  0.00    -0.491 OA
ATOM     23  C   UNL     1       2.990  -3.434  -1.974  0.00  0.00    +0.277 C 
ENDBRANCH  15  22
ENDBRANCH   4  13
BRANCH   3  24
ATOM     24  C   UNL     1       4.845   1.362   0.840  0.00  0.00    +0.317 C 
ATOM     25  O   UNL     1       5.792   2.043   1.185  0.00  0.00    -0.250 OA
BRANCH  24  26
ATOM     26  O   UNL     1       4.939   0.016   0.858  0.00  0.00    -0.461 OA
BRANCH  26  27
ATOM     27  C   UNL     1       6.181  -0.541   1.294  0.00  0.00    +0.176 C 
ATOM     28  C   UNL     1       7.100  -0.798   0.082  0.00  0.00    +0.044 C 
ATOM     29  C   UNL     1       7.829  -2.119   0.431  0.00  0.00    +0.004 C 
ATOM     30  C   UNL     1       6.721  -2.946   1.129  0.00  0.00    +0.004 C 
ATOM     31  C   UNL     1       5.940  -1.907   1.960  0.00  0.00    +0.044 C 
ENDBRANCH  26  27
ENDBRANCH  24  26
ENDBRANCH   3  24
TORSDOF 6
