REMARK  Name = ZINC39711093
REMARK  10 active torsions:
REMARK  status: ('A' for Active; 'I' for Inactive)
REMARK    1  A    between atoms: C_1  and  C_2
REMARK    2  A    between atoms: C_5  and  C_38
REMARK    3  A    between atoms: C_10  and  C_14
REMARK    4  A    between atoms: C_14  and  C_16
REMARK    5  A    between atoms: C_14  and  N_25
REMARK    6  A    between atoms: N_20  and  C_21
REMARK    7  A    between atoms: C_21  and  C_22
REMARK    8  A    between atoms: C_22  and  O_23
REMARK    9  A    between atoms: O_23  and  C_24
REMARK   10  A    between atoms: C_31  and  C_33
REMARK                            x       y       z     vdW  Elec       q    Type
REMARK                         _______ _______ _______ _____ _____    ______ ____
ROOT
ATOM      1  C   UNL     1      -1.284  -0.737   4.398  0.00  0.00    +0.142 C 
ENDROOT
BRANCH   1  11
ATOM      2  C   UNL     1       3.215   0.513   6.539  0.00  0.00    +0.044 C 
ATOM      3  C   UNL     1       3.000   1.119   5.176  0.00  0.00    -0.042 A 
ATOM      4  C   UNL     1       3.780   2.143   4.744  0.00  0.00    +0.004 A 
ATOM      5  C   UNL     1       3.595   2.716   3.486  0.00  0.00    +0.005 A 
ATOM      6  C   UNL     1       2.636   2.293   2.621  0.00  0.00    -0.029 A 
ATOM      7  C   UNL     1       1.775   1.237   2.971  0.00  0.00    +0.043 A 
ATOM      8  N   UNL     1       0.838   0.830   2.115  0.00  0.00    -0.284 N 
ATOM      9  C   UNL     1      -0.004  -0.155   2.380  0.00  0.00    +0.226 C 
ATOM     10  O   UNL     1      -0.839  -0.483   1.558  0.00  0.00    -0.275 OA
ATOM     11  C   UNL     1       0.076  -0.873   3.709  0.00  0.00    +0.123 C 
ATOM     12  C   UNL     1       1.140  -0.414   4.686  0.00  0.00    -0.002 C 
ATOM     13  C   UNL     1       1.951   0.609   4.293  0.00  0.00    -0.004 A 
ATOM     14  C   UNL     1       2.494   2.959   1.277  0.00  0.00    +0.045 C 
ATOM     15  H   UNL     1       0.770   1.277   1.257  0.00  0.00    +0.155 HD
ENDBRANCH   1  11
BRANCH   1  16
ATOM     16  N   UNL     1      -1.255  -1.450   5.682  0.00  0.00    -0.289 NA
ATOM     17  C   UNL     1      -0.998  -2.883   5.483  0.00  0.00    +0.104 C 
ATOM     18  C   UNL     1      -0.796  -3.556   6.845  0.00  0.00    +0.123 C 
ATOM     19  N   UNL     1      -1.954  -3.245   7.696  0.00  0.00    -0.293 N 
ATOM     20  C   UNL     1      -2.358  -1.837   7.834  0.00  0.00    +0.123 C 
ATOM     21  C   UNL     1      -2.499  -1.232   6.433  0.00  0.00    +0.104 C 
ATOM     22  C   UNL     1      -2.627  -4.223   8.333  0.00  0.00    +0.282 C 
ATOM     23  O   UNL     1      -2.238  -5.374   8.264  0.00  0.00    -0.267 OA
BRANCH  22  24
ATOM     24  C   UNL     1      -3.829  -3.901   9.109  0.00  0.00    +0.189 A 
ATOM     25  C   UNL     1      -4.675  -4.802   9.690  0.00  0.00    +0.054 A 
ATOM     26  C   UNL     1      -5.681  -4.059  10.326  0.00  0.00    +0.042 A 
ATOM     27  C   UNL     1      -5.409  -2.754  10.110  0.00  0.00    +0.196 A 
ATOM     28  O   UNL     1      -4.289  -2.662   9.380  0.00  0.00    -0.458 OA
ENDBRANCH  22  24
ENDBRANCH   1  16
BRANCH   1  29
ATOM     29  C   UNL     1      -1.581   0.720   4.639  0.00  0.00    +0.170 A 
ATOM     30  N   UNL     1      -1.040   1.489   5.553  0.00  0.00    -0.112 NA
ATOM     31  N   UNL     1      -1.554   2.665   5.439  0.00  0.00    -0.023 NA
ATOM     32  N   UNL     1      -2.408   2.667   4.476  0.00  0.00    -0.044 NA
ATOM     33  N   UNL     1      -2.450   1.488   3.954  0.00  0.00    -0.225 N 
BRANCH  33  34
ATOM     34  C   UNL     1      -3.287   1.062   2.830  0.00  0.00    +0.175 C 
BRANCH  34  35
ATOM     35  C   UNL     1      -4.628   0.548   3.359  0.00  0.00    +0.183 C 
BRANCH  35  36
ATOM     36  O   UNL     1      -5.445   0.133   2.263  0.00  0.00    -0.381 OA
ATOM     37  C   UNL     1      -6.727  -0.367   2.650  0.00  0.00    +0.194 C 
ENDBRANCH  35  36
ENDBRANCH  34  35
ENDBRANCH  33  34
ENDBRANCH   1  29
TORSDOF 7
