REMARK  Name = ZINC00041316
REMARK  3 active torsions:
REMARK  status: ('A' for Active; 'I' for Inactive)
REMARK    1  A    between atoms: C_1  and  C_2
REMARK    2  A    between atoms: C_6  and  N_11
REMARK    3  A    between atoms: C_14  and  C_16
REMARK                            x       y       z     vdW  Elec       q    Type
REMARK                         _______ _______ _______ _____ _____    ______ ____
ROOT
ATOM      1  C   UNL     1      -5.144   5.287  -1.395  0.00  0.00    +0.035 C 
ATOM      2  C   UNL     1      -5.038   4.419  -0.140  0.00  0.00    +0.123 C 
ATOM      3  C   UNL     1      -6.017   3.277  -0.228  0.00  0.00    +0.073 A 
ATOM      4  C   UNL     1      -5.320   2.089  -0.180  0.00  0.00    +0.033 A 
ATOM      5  C   UNL     1      -6.033   0.890  -0.242  0.00  0.00    +0.126 A 
ATOM      6  N   UNL     1      -7.358   0.935  -0.344  0.00  0.00    -0.200 NA
ATOM      7  C   UNL     1      -7.991   2.098  -0.387  0.00  0.00    +0.215 A 
ATOM      8  N   UNL     1      -7.339   3.249  -0.330  0.00  0.00    -0.217 NA
ATOM      9  N   UNL     1      -9.371   2.110  -0.493  0.00  0.00    -0.327 N 
ATOM     10  C   UNL     1      -3.850   2.386  -0.065  0.00  0.00    +0.149 C 
ATOM     11  N   UNL     1      -3.691   3.845  -0.044  0.00  0.00    -0.285 N 
ATOM     12  C   UNL     1      -2.532   4.526   0.050  0.00  0.00    +0.248 C 
ATOM     13  O   UNL     1      -2.546   5.737   0.155  0.00  0.00    -0.270 OA
ATOM     14  H   UNL     1      -9.861   1.274  -0.535  0.00  0.00    +0.145 HD
ATOM     15  H   UNL     1      -9.848   2.954  -0.525  0.00  0.00    +0.145 HD
ENDROOT
BRANCH  12  16
ATOM     16  C   UNL     1      -1.244   3.801   0.026  0.00  0.00    +0.040 A 
ATOM     17  C   UNL     1      -1.225   2.405   0.062  0.00  0.00    +0.033 A 
ATOM     18  C   UNL     1      -0.019   1.734   0.040  0.00  0.00    +0.043 A 
ATOM     19  C   UNL     1       1.170   2.441  -0.017  0.00  0.00    +0.040 A 
ATOM     20  C   UNL     1       1.157   3.825  -0.052  0.00  0.00    +0.043 A 
ATOM     21  C   UNL     1      -0.042   4.508  -0.025  0.00  0.00    +0.033 A 
ATOM     22 CL   UNL     1       2.653   4.703  -0.124  0.00  0.00    -0.083 Cl
ATOM     23 CL   UNL     1       0.006  -0.002   0.085  0.00  0.00    -0.083 Cl
ENDBRANCH  12  16
BRANCH   5  24
ATOM     24  N   UNL     1      -5.370  -0.326  -0.197  0.00  0.00    -0.343 N 
ATOM     25  H   UNL     1      -4.404  -0.349  -0.123  0.00  0.00    +0.144 HD
ATOM     26  H   UNL     1      -5.873  -1.154  -0.241  0.00  0.00    +0.144 HD
ENDBRANCH   5  24
TORSDOF 2
