REMARK  Name = ZINC59310003
REMARK  6 active torsions:
REMARK  status: ('A' for Active; 'I' for Inactive)
REMARK    1  A    between atoms: C_1  and  C_2
REMARK    2  A    between atoms: C_2  and  C_3
REMARK    3  A    between atoms: C_3  and  C_5
REMARK    4  A    between atoms: C_3  and  C_6
REMARK    5  A    between atoms: C_6  and  N_8
REMARK    6  A    between atoms: N_17  and  C_18
REMARK                            x       y       z     vdW  Elec       q    Type
REMARK                         _______ _______ _______ _____ _____    ______ ____
ROOT
ATOM      1  N   UNL     1      -2.559  -2.714  -0.133  0.00  0.00    -0.146 NA
ATOM      2  C   UNL     1      -2.549  -4.027  -0.349  0.00  0.00    +0.201 A 
ATOM      3  N   UNL     1      -1.436  -4.798  -0.467  0.00  0.00    -0.326 N 
ATOM      4  C   UNL     1      -1.837  -6.112  -0.686  0.00  0.00    +0.066 A 
ATOM      5  C   UNL     1      -1.138  -7.296  -0.875  0.00  0.00    +0.028 A 
ATOM      6  C   UNL     1      -1.826  -8.476  -1.075  0.00  0.00    +0.002 A 
ATOM      7  C   UNL     1      -3.211  -8.483  -1.088  0.00  0.00    +0.002 A 
ATOM      8  C   UNL     1      -3.915  -7.311  -0.901  0.00  0.00    +0.028 A 
ATOM      9  C   UNL     1      -3.233  -6.119  -0.699  0.00  0.00    +0.068 A 
ATOM     10  N   UNL     1      -3.652  -4.810  -0.482  0.00  0.00    -0.309 N 
ATOM     11  H   UNL     1      -0.520  -4.485  -0.408  0.00  0.00    +0.169 HD
ENDROOT
BRANCH  10  12
ATOM     12  C   UNL     1      -5.042  -4.355  -0.412  0.00  0.00    +0.091 C 
ATOM     13  C   UNL     1      -5.295  -3.318  -1.509  0.00  0.00    +0.025 C 
ATOM     14  C   UNL     1      -6.747  -2.842  -1.435  0.00  0.00    +0.002 C 
ATOM     15  C   UNL     1      -7.009  -2.210  -0.067  0.00  0.00    +0.000 C 
ATOM     16  C   UNL     1      -6.756  -3.247   1.030  0.00  0.00    +0.002 C 
ATOM     17  C   UNL     1      -5.303  -3.723   0.957  0.00  0.00    +0.025 C 
ENDBRANCH  10  12
BRANCH   1  18
ATOM     18  C   UNL     1      -1.417  -2.033  -0.133  0.00  0.00    +0.242 C 
ATOM     19  O   UNL     1      -0.358  -2.621  -0.235  0.00  0.00    -0.273 OA
BRANCH  18  20
ATOM     20  C   UNL     1      -1.436  -0.531  -0.006  0.00  0.00    +0.074 C 
ATOM     21  C   UNL     1      -2.101  -0.139   1.315  0.00  0.00    +0.017 C 
BRANCH  20  23
ATOM     22  C   UNL     1      -0.026   1.531  -0.031  0.00  0.00    +0.004 C 
ATOM     23  C   UNL     1      -0.002   0.001  -0.033  0.00  0.00    +0.009 C 
ENDBRANCH  20  23
ENDBRANCH  18  20
ENDBRANCH   1  18
TORSDOF 4
