REMARK  Name = ZINC06804748
REMARK  8 active torsions:
REMARK  status: ('A' for Active; 'I' for Inactive)
REMARK    1  A    between atoms: C_1  and  C_2
REMARK    2  A    between atoms: C_2  and  C_3
REMARK    3  A    between atoms: C_3  and  N_4
REMARK    4  A    between atoms: C_5  and  C_7
REMARK    5  A    between atoms: C_7  and  N_8
REMARK    6  A    between atoms: C_11  and  S_19
REMARK    7  A    between atoms: S_19  and  N_22
REMARK    8  A    between atoms: C_25  and  C_28
REMARK                            x       y       z     vdW  Elec       q    Type
REMARK                         _______ _______ _______ _____ _____    ______ ____
ROOT
ATOM      1  N   UNL     1      -3.925  -4.702   0.014  0.00  0.00    -0.261 N 
ATOM      2  C   UNL     1      -4.505  -4.921   1.261  0.00  0.00    +0.052 A 
ATOM      3  C   UNL     1      -3.999  -4.263   2.376  0.00  0.00    +0.053 A 
ATOM      4  C   UNL     1      -4.559  -4.473   3.621  0.00  0.00    +0.107 A 
ATOM      5  C   UNL     1      -5.628  -5.337   3.773  0.00  0.00    +0.030 A 
ATOM      6  C   UNL     1      -6.143  -5.997   2.672  0.00  0.00    +0.018 A 
ATOM      7  C   UNL     1      -5.587  -5.789   1.421  0.00  0.00    +0.030 A 
ATOM      8  S   UNL     1      -6.242  -6.616   0.006  0.00  0.00    -0.114 S 
ATOM      9  C   UNL     1      -5.898  -5.436  -1.335  0.00  0.00    +0.170 C 
ATOM     10  C   UNL     1      -4.500  -4.904  -1.168  0.00  0.00    +0.230 C 
ATOM     11  O   UNL     1      -3.861  -4.649  -2.167  0.00  0.00    -0.274 OA
ENDROOT
BRANCH   4  12
ATOM     12  S   UNL     1      -3.908  -3.633   5.026  0.00  0.00    +0.061 S 
ATOM     13  O   UNL     1      -4.253  -4.413   6.162  0.00  0.00    -0.153 OA
ATOM     14  O   UNL     1      -2.563  -3.299   4.712  0.00  0.00    -0.153 OA
BRANCH  12  15
ATOM     15  N   UNL     1      -4.730  -2.202   5.167  0.00  0.00    -0.177 NA
ATOM     16  C   UNL     1      -4.247  -0.991   4.489  0.00  0.00    +0.110 C 
ATOM     17  C   UNL     1      -4.114   0.132   5.522  0.00  0.00    +0.020 C 
ATOM     18  C   UNL     1      -5.448   0.310   6.251  0.00  0.00    -0.012 C 
ATOM     19  C   UNL     1      -5.805  -0.984   6.987  0.00  0.00    +0.020 C 
ATOM     20  C   UNL     1      -5.960  -2.121   5.966  0.00  0.00    +0.110 C 
ATOM     21  C   UNL     1      -5.329   1.454   7.259  0.00  0.00    +0.007 C 
ENDBRANCH  12  15
ENDBRANCH   4  12
BRANCH   1  22
ATOM     22  C   UNL     1      -2.551  -4.195   0.004  0.00  0.00    +0.209 C 
BRANCH  22  24
ATOM     23  N   UNL     1      -1.413  -1.998   0.005  0.00  0.00    -0.314 N 
ATOM     24  C   UNL     1      -2.571  -2.688   0.012  0.00  0.00    +0.231 C 
ATOM     25  O   UNL     1      -3.630  -2.096   0.025  0.00  0.00    -0.274 OA
ATOM     26  H   UNL     1      -0.567  -2.472  -0.006  0.00  0.00    +0.149 HD
BRANCH  23  27
ATOM     27  C   UNL     1      -1.433  -0.534   0.013  0.00  0.00    +0.104 C 
BRANCH  27  29
ATOM     28  C   UNL     1      -0.019   1.526   0.010  0.00  0.00    +0.005 C 
ATOM     29  C   UNL     1       0.002  -0.004   0.002  0.00  0.00    +0.015 C 
ENDBRANCH  27  29
ENDBRANCH  23  27
ENDBRANCH  22  24
ENDBRANCH   1  22
TORSDOF 6
