REMARK  Name = ZINC21080646
REMARK  7 active torsions:
REMARK  status: ('A' for Active; 'I' for Inactive)
REMARK    1  A    between atoms: C_1  and  O_2
REMARK    2  A    between atoms: O_2  and  C_3
REMARK    3  A    between atoms: C_8  and  C_9
REMARK    4  A    between atoms: N_10  and  N_11
REMARK    5  A    between atoms: C_14  and  S_17
REMARK    6  A    between atoms: S_17  and  C_18
REMARK    7  A    between atoms: C_18  and  C_19
REMARK                            x       y       z     vdW  Elec       q    Type
REMARK                         _______ _______ _______ _____ _____    ______ ____
ROOT
ATOM      1  N   UNL     1      10.422   2.942  -2.809  0.00  0.00    -0.205 N 
ATOM      2  C   UNL     1       9.235   2.882  -2.093  0.00  0.00    +0.232 A 
ATOM      3  N   UNL     1       7.978   2.825  -2.625  0.00  0.00    -0.186 NA
ATOM      4  C   UNL     1       7.084   2.777  -1.593  0.00  0.00    +0.210 A 
ATOM      5  N   UNL     1       7.760   2.808  -0.470  0.00  0.00    -0.144 NA
ATOM      6  N   UNL     1       9.123   2.870  -0.786  0.00  0.00    -0.245 N 
ATOM      7  H   UNL     1      10.401   2.947  -3.908  0.00  0.00    +0.177 HD
ATOM      8  H   UNL     1      10.024   2.906  -0.157  0.00  0.00    +0.192 HD
ENDROOT
BRANCH   1  10
ATOM      9  C   UNL     1      12.758   3.053  -2.801  0.00  0.00    +0.142 C 
ATOM     10  N   UNL     1      11.647   2.997  -2.131  0.00  0.00    -0.187 NA
BRANCH   9  16
ATOM     11  C   UNL     1      14.077   3.112  -0.687  0.00  0.00    +0.129 A 
ATOM     12  C   UNL     1      15.293   3.160  -0.027  0.00  0.00    +0.047 A 
ATOM     13  C   UNL     1      16.472   3.220  -0.747  0.00  0.00    +0.019 A 
ATOM     14  C   UNL     1      16.447   3.226  -2.132  0.00  0.00    +0.019 A 
ATOM     15  C   UNL     1      15.244   3.172  -2.805  0.00  0.00    +0.028 A 
ATOM     16  C   UNL     1      14.047   3.111  -2.088  0.00  0.00    +0.037 A 
ATOM     17 BR   UNL     1      18.067   3.308  -3.103  0.00  0.00    -0.050 Br
BRANCH  11  19
ATOM     18  C   UNL     1      13.028   3.063   1.445  0.00  0.00    +0.277 C 
ATOM     19  O   UNL     1      12.919   3.059   0.020  0.00  0.00    -0.494 OA
ENDBRANCH  11  19
ENDBRANCH   9  16
ENDBRANCH   1  10
BRANCH   4  20
ATOM     20  S   UNL     1       5.330   2.694  -1.745  0.00  0.00    -0.077 S 
BRANCH  20  21
ATOM     21  C   UNL     1       4.743   2.656  -0.029  0.00  0.00    +0.151 C 
BRANCH  21  22
ATOM     22  C   UNL     1       3.238   2.585  -0.015  0.00  0.00    +0.118 A 
ATOM     23  N   UNL     1       2.512   1.434  -0.014  0.00  0.00    -0.341 N 
ATOM     24  H   UNL     1       3.025   0.461  -0.023  0.00  0.00    +0.167 HD
ATOM     25  C   UNL     1       1.178   1.790   0.000  0.00  0.00    +0.066 A 
ATOM     26  C   UNL     1      -0.013   1.076   0.008  0.00  0.00    +0.028 A 
ATOM     27  C   UNL     1      -1.214   1.752   0.017  0.00  0.00    +0.002 A 
ATOM     28  C   UNL     1      -1.240   3.139   0.031  0.00  0.00    +0.002 A 
ATOM     29  C   UNL     1      -0.078   3.858   0.023  0.00  0.00    +0.030 A 
ATOM     30  C   UNL     1       1.151   3.194   0.008  0.00  0.00    +0.089 A 
ATOM     31  N   UNL     1       2.442   3.615  -0.002  0.00  0.00    -0.232 NA
ENDBRANCH  21  22
ENDBRANCH  20  21
ENDBRANCH   4  20
TORSDOF 6
