REMARK  Name = ZINC05428194
REMARK  6 active torsions:
REMARK  status: ('A' for Active; 'I' for Inactive)
REMARK    1  A    between atoms: C_1  and  C_2
REMARK    2  A    between atoms: C_7  and  C_20
REMARK    3  A    between atoms: C_12  and  C_13
REMARK    4  A    between atoms: C_13  and  C_14
REMARK    5  A    between atoms: C_24  and  C_25
REMARK    6  A    between atoms: C_24  and  N_57
REMARK                            x       y       z     vdW  Elec       q    Type
REMARK                         _______ _______ _______ _____ _____    ______ ____
ROOT
ATOM      1  C   UNL     1       0.113   5.810   0.339  0.00  0.00    +0.045 C 
ATOM      2  C   UNL     1      -1.044   5.019   0.893  0.00  0.00    -0.030 A 
ATOM      3  C   UNL     1      -0.894   3.607   1.249  0.00  0.00    +0.021 A 
ATOM      4  C   UNL     1       0.330   2.950   1.084  0.00  0.00    +0.017 A 
ATOM      5  C   UNL     1       0.450   1.631   1.421  0.00  0.00    -0.021 A 
ATOM      6  C   UNL     1      -0.643   0.936   1.933  0.00  0.00    +0.125 A 
ATOM      7  C   UNL     1      -1.862   1.574   2.108  0.00  0.00    +0.034 A 
ATOM      8  C   UNL     1      -2.003   2.911   1.764  0.00  0.00    +0.146 A 
ATOM      9  O   UNL     1      -3.188   3.534   1.926  0.00  0.00    -0.422 OA
ATOM     10  C   UNL     1      -3.321   4.824   1.599  0.00  0.00    +0.341 A 
ATOM     11  O   UNL     1      -4.404   5.356   1.759  0.00  0.00    -0.245 OA
ATOM     12  C   UNL     1      -2.262   5.593   1.079  0.00  0.00    +0.045 A 
ATOM     13  C   UNL     1      -3.036   0.813   2.666  0.00  0.00    +0.051 C 
ATOM     14  O   UNL     1      -0.533  -0.375   2.274  0.00  0.00    -0.509 OA
ATOM     15  C   UNL     1       0.595  -1.089   1.762  0.00  0.00    +0.157 C 
ATOM     16  C   UNL     1       1.779   0.944   1.230  0.00  0.00    -0.034 C 
ATOM     17  N   UNL     1       1.805  -0.289   2.039  0.00  0.00    +0.407 N 
ATOM     18  H   UNL     1       1.820  -0.037   3.035  0.00  0.00    -0.076 HD
ENDROOT
BRANCH  12  19
ATOM     19  C   UNL     1      -2.478   7.043   0.731  0.00  0.00    +0.077 C 
BRANCH  19  20
ATOM     20  C   UNL     1      -2.985   7.150  -0.684  0.00  0.00    -0.043 A 
ATOM     21  C   UNL     1      -2.098   7.380  -1.720  0.00  0.00    +0.004 A 
ATOM     22  C   UNL     1      -2.562   7.473  -3.019  0.00  0.00    +0.000 A 
ATOM     23  C   UNL     1      -3.913   7.346  -3.281  0.00  0.00    +0.000 A 
ATOM     24  C   UNL     1      -4.800   7.122  -2.245  0.00  0.00    +0.000 A 
ATOM     25  C   UNL     1      -4.336   7.024  -0.947  0.00  0.00    +0.004 A 
ENDBRANCH  19  20
ENDBRANCH  12  19
BRANCH  17  26
ATOM     26  C   UNL     1       3.018  -1.077   1.724  0.00  0.00    -0.042 C 
BRANCH  26  27
ATOM     27  C   UNL     1       4.253  -0.192   1.905  0.00  0.00    +0.102 C 
ATOM     28  C   UNL     1       5.532  -1.018   1.651  0.00  0.00    +0.032 C 
ATOM     29  C   UNL     1       6.495  -0.479   2.743  0.00  0.00    +0.030 C 
ATOM     30  C   UNL     1       5.501  -0.190   3.896  0.00  0.00    +0.160 C 
ATOM     31  O   UNL     1       4.311   0.292   3.252  0.00  0.00    -0.378 OA
ENDBRANCH  26  27
ENDBRANCH  17  26
TORSDOF 4
