REMARK  Name = ZINC67617711
REMARK  10 active torsions:
REMARK  status: ('A' for Active; 'I' for Inactive)
REMARK    1  A    between atoms: C_1  and  C_2
REMARK    2  A    between atoms: N_8  and  C_9
REMARK    3  A    between atoms: C_9  and  C_10
REMARK    4  A    between atoms: C_15  and  C_16
REMARK    5  A    between atoms: C_16  and  N_17
REMARK    6  A    between atoms: N_20  and  C_21
REMARK    7  A    between atoms: N_20  and  C_22
REMARK    8  A    between atoms: C_22  and  C_24
REMARK    9  A    between atoms: C_22  and  C_25
REMARK   10  A    between atoms: C_29  and  O_31
REMARK                            x       y       z     vdW  Elec       q    Type
REMARK                         _______ _______ _______ _____ _____    ______ ____
ROOT
ATOM      1  C   UNL     1       3.572  -2.255   1.431  0.00  0.00    +0.141 C 
ENDROOT
BRANCH   1   7
ATOM      2  C   UNL     1       3.239  -0.021   2.509  0.00  0.00    -0.059 A 
ATOM      3  C   UNL     1       3.397   0.851   3.570  0.00  0.00    +0.002 A 
ATOM      4  C   UNL     1       4.071   0.442   4.706  0.00  0.00    +0.000 A 
ATOM      5  C   UNL     1       4.587  -0.839   4.780  0.00  0.00    +0.000 A 
ATOM      6  C   UNL     1       4.428  -1.710   3.719  0.00  0.00    +0.005 A 
ATOM      7  C   UNL     1       3.750  -1.303   2.585  0.00  0.00    -0.029 A 
BRANCH   2   8
ATOM      8  C   UNL     1       2.504   0.425   1.271  0.00  0.00    -0.042 C 
BRANCH   8  15
ATOM      9  C   UNL     1       1.909  -0.034  -1.434  0.00  0.00    -0.013 C 
ATOM     10  C   UNL     1       2.762   1.158  -0.997  0.00  0.00    -0.071 C 
ATOM     11  C   UNL     1       3.772   1.492  -2.096  0.00  0.00    -0.016 C 
ATOM     12  C   UNL     1       4.623   2.687  -1.653  0.00  0.00    -0.003 C 
ATOM     13  C   UNL     1       5.303   2.351  -0.323  0.00  0.00    -0.019 C 
ATOM     14  C   UNL     1       4.235   1.985   0.711  0.00  0.00    -0.078 C 
ATOM     15  N   UNL     1       3.474   0.821   0.241  0.00  0.00    +0.384 N 
ATOM     16  H   UNL     1       4.107   0.055   0.066  0.00  0.00    -0.081 HD
ENDBRANCH   8  15
ENDBRANCH   2   8
ENDBRANCH   1   7
BRANCH   1  17
ATOM     17  N   UNL     1       4.594  -1.988   0.415  0.00  0.00    -0.295 N 
ATOM     18  C   UNL     1       4.675  -2.768  -0.680  0.00  0.00    +0.303 C 
ATOM     19  O   UNL     1       3.900  -3.694  -0.826  0.00  0.00    -0.253 OA
ATOM     20  N   UNL     1       5.615  -2.523  -1.614  0.00  0.00    -0.282 N 
ATOM     21  C   UNL     1       6.549  -1.407  -1.438  0.00  0.00    +0.134 C 
ATOM     22  H   UNL     1       5.212  -1.249   0.532  0.00  0.00    +0.151 HD
BRANCH  20  23
ATOM     23  C   UNL     1       5.704  -3.371  -2.805  0.00  0.00    +0.104 C 
ATOM     24  C   UNL     1       5.625  -2.499  -4.060  0.00  0.00    +0.033 C 
BRANCH  23  25
ATOM     25  C   UNL     1       7.013  -4.118  -2.794  0.00  0.00    -0.024 A 
ATOM     26  C   UNL     1       7.022  -5.496  -2.905  0.00  0.00    +0.006 A 
ATOM     27  C   UNL     1       8.222  -6.184  -2.895  0.00  0.00    +0.004 A 
ATOM     28  C   UNL     1       9.413  -5.496  -2.774  0.00  0.00    +0.045 A 
ATOM     29  C   UNL     1       9.406  -4.113  -2.662  0.00  0.00    +0.117 A 
ATOM     30  C   UNL     1       8.201  -3.425  -2.679  0.00  0.00    +0.050 A 
BRANCH  29  31
ATOM     31  O   UNL     1      10.577  -3.434  -2.543  0.00  0.00    -0.507 OA
ATOM     32  H   UNL     1      10.964  -3.166  -3.387  0.00  0.00    +0.292 HD
ENDBRANCH  29  31
ENDBRANCH  23  25
ENDBRANCH  20  23
ENDBRANCH   1  17
TORSDOF 7
