REMARK  Name = ZINC39881497
REMARK  7 active torsions:
REMARK  status: ('A' for Active; 'I' for Inactive)
REMARK    1  A    between atoms: C_1  and  C_2
REMARK    2  A    between atoms: N_12  and  C_15
REMARK    3  A    between atoms: C_18  and  C_21
REMARK    4  A    between atoms: N_23  and  C_24
REMARK    5  A    between atoms: N_23  and  C_27
REMARK    6  A    between atoms: C_24  and  C_25
REMARK    7  A    between atoms: C_27  and  C_28
REMARK                            x       y       z     vdW  Elec       q    Type
REMARK                         _______ _______ _______ _____ _____    ______ ____
ROOT
ATOM      1  C   UNL     1       0.192   1.801   0.152  0.00  0.00    +0.044 C 
ATOM      2  C   UNL     1       0.261   0.297   0.098  0.00  0.00    -0.048 A 
ATOM      3  C   UNL     1       0.330  -0.342  -1.138  0.00  0.00    +0.004 A 
ATOM      4  C   UNL     1       0.394  -1.700  -1.218  0.00  0.00    +0.010 A 
ATOM      5  C   UNL     1       0.389  -2.465  -0.043  0.00  0.00    -0.001 A 
ATOM      6  C   UNL     1       0.454  -3.873  -0.082  0.00  0.00    +0.017 A 
ATOM      7  C   UNL     1       0.446  -4.553   1.098  0.00  0.00    -0.007 A 
ATOM      8  C   UNL     1       0.374  -3.869   2.317  0.00  0.00    +0.107 A 
ATOM      9  N   UNL     1       0.314  -2.543   2.337  0.00  0.00    -0.342 N 
ATOM     10  C   UNL     1       0.318  -1.820   1.216  0.00  0.00    +0.048 A 
ATOM     11  C   UNL     1       0.259  -0.415   1.258  0.00  0.00    +0.029 A 
ATOM     12  N   UNL     1       0.378  -4.750   3.392  0.00  0.00    -0.286 N 
ATOM     13  C   UNL     1       0.456  -6.133   2.917  0.00  0.00    +0.117 C 
ATOM     14  C   UNL     1       0.503  -6.037   1.384  0.00  0.00    +0.058 C 
ATOM     15  H   UNL     1       0.265  -2.086   3.192  0.00  0.00    +0.167 HD
ENDROOT
BRANCH  12  16
ATOM     16  C   UNL     1       0.317  -4.371   4.730  0.00  0.00    +0.035 A 
ATOM     17  C   UNL     1      -0.842  -3.786   5.234  0.00  0.00    +0.024 A 
ATOM     18  C   UNL     1      -0.906  -3.411   6.556  0.00  0.00    +0.015 A 
ATOM     19  C   UNL     1       0.194  -3.618   7.394  0.00  0.00    +0.037 A 
ATOM     20  C   UNL     1       1.356  -4.205   6.885  0.00  0.00    +0.015 A 
ATOM     21  C   UNL     1       1.412  -4.583   5.562  0.00  0.00    +0.024 A 
BRANCH  19  22
ATOM     22  C   UNL     1       0.129  -3.216   8.812  0.00  0.00    +0.248 C 
ATOM     23  O   UNL     1       0.653  -3.907   9.664  0.00  0.00    -0.270 OA
ATOM     24  N   UNL     1      -0.511  -2.083   9.162  0.00  0.00    -0.271 N 
BRANCH  24  25
ATOM     25  C   UNL     1      -0.465  -1.615  10.550  0.00  0.00    +0.228 C 
BRANCH  25  26
ATOM     26  C   UNL     1       0.752  -0.814  10.758  0.00  0.00    +0.082 C 
ATOM     27  N   UNL     1       1.691  -0.195  10.919  0.00  0.00    -0.195 NA
ENDBRANCH  25  26
ENDBRANCH  24  25
BRANCH  24  28
ATOM     28  C   UNL     1      -1.252  -1.319   8.156  0.00  0.00    +0.228 C 
BRANCH  28  29
ATOM     29  C   UNL     1      -2.681  -1.665   8.231  0.00  0.00    +0.082 C 
ATOM     30  N   UNL     1      -3.783  -1.933   8.289  0.00  0.00    -0.195 NA
ENDBRANCH  28  29
ENDBRANCH  24  28
ENDBRANCH  19  22
ENDBRANCH  12  16
TORSDOF 6
