REMARK  Name = ZINC37040288
REMARK  4 active torsions:
REMARK  status: ('A' for Active; 'I' for Inactive)
REMARK    1  A    between atoms: C_3  and  N_11
REMARK    2  A    between atoms: C_6  and  N_7
REMARK    3  A    between atoms: C_12  and  C_14
REMARK    4  A    between atoms: C_17  and  O_21
REMARK                            x       y       z     vdW  Elec       q    Type
REMARK                         _______ _______ _______ _____ _____    ______ ____
ROOT
ATOM      1  N   UNL     1       3.584   2.125  -0.021  0.00  0.00    -0.286 N 
ATOM      2  C   UNL     1       3.568   3.470  -0.116  0.00  0.00    +0.203 C 
ATOM      3  O   UNL     1       2.512   4.066  -0.103  0.00  0.00    -0.277 OA
ATOM      4  H   UNL     1       4.429   1.654   0.049  0.00  0.00    +0.155 HD
ENDROOT
BRANCH   1   7
ATOM      5  C   UNL     1       0.065   1.242  -0.620  0.00  0.00    +0.034 A 
ATOM      6  C   UNL     1       1.250   1.952  -0.618  0.00  0.00    +0.026 A 
ATOM      7  C   UNL     1       2.381   1.409  -0.024  0.00  0.00    +0.048 A 
ATOM      8  C   UNL     1       2.317   0.153   0.567  0.00  0.00    +0.041 A 
ATOM      9  C   UNL     1       1.128  -0.551   0.562  0.00  0.00    +0.049 A 
ATOM     10  C   UNL     1       0.004  -0.007  -0.031  0.00  0.00    +0.127 A 
ATOM     11 BR   UNL     1       3.855  -0.591   1.378  0.00  0.00    -0.048 Br
BRANCH  10  12
ATOM     12  N   UNL     1      -1.268  -0.764  -0.034  0.00  0.00    +0.056 N 
ATOM     13  O   UNL     1      -2.253  -0.289  -0.552  0.00  0.00    -0.126 OA
ATOM     14  O   UNL     1      -1.323  -1.856   0.480  0.00  0.00    -0.126 OA
ENDBRANCH  10  12
ENDBRANCH   1   7
BRANCH   2  15
ATOM     15  C   UNL     1       4.862   4.232  -0.238  0.00  0.00    +0.019 C 
ATOM     16  C   UNL     1       5.506   4.443   1.155  0.00  0.00    +0.023 C 
ATOM     17  C   UNL     1       6.389   5.694   0.941  0.00  0.00    +0.097 C 
ATOM     18  C   UNL     1       5.787   6.408  -0.283  0.00  0.00    -0.050 C 
ATOM     19  N   UNL     1       4.613   5.616  -0.715  0.00  0.00    +0.388 N 
ATOM     20  H   UNL     1       4.533   5.628  -1.721  0.00  0.00    -0.085 HD
ATOM     21  H   UNL     1       3.773   5.983  -0.293  0.00  0.00    -0.085 HD
BRANCH  17  22
ATOM     22  O   UNL     1       7.740   5.308   0.678  0.00  0.00    -0.394 OA
ATOM     23  H   UNL     1       8.341   6.052   0.535  0.00  0.00    +0.210 HD
ENDBRANCH  17  22
ENDBRANCH   2  15
TORSDOF 4
