REMARK  Name = ZINC03516732
REMARK  8 active torsions:
REMARK  status: ('A' for Active; 'I' for Inactive)
REMARK    1  A    between atoms: C_1  and  C_2
REMARK    2  A    between atoms: C_7  and  C_8
REMARK    3  A    between atoms: C_8  and  C_9
REMARK    4  A    between atoms: C_8  and  C_10
REMARK    5  A    between atoms: C_11  and  C_16
REMARK    6  A    between atoms: C_16  and  N_17
REMARK    7  A    between atoms: C_20  and  C_24
REMARK    8  A    between atoms: C_20  and  C_25
REMARK                            x       y       z     vdW  Elec       q    Type
REMARK                         _______ _______ _______ _____ _____    ______ ____
ROOT
ATOM      1  C   UNL     1      -1.130   6.232   2.264  0.00  0.00    +0.154 C 
ENDROOT
BRANCH   1   9
ATOM      2  C   UNL     1       0.050  -0.267   3.032  0.00  0.00    +0.044 C 
ATOM      3  C   UNL     1      -0.411   1.167   3.076  0.00  0.00    -0.044 A 
ATOM      4  C   UNL     1      -1.376   1.546   3.987  0.00  0.00    +0.050 A 
ATOM      5  C   UNL     1      -1.803   2.867   4.031  0.00  0.00    +0.140 A 
ATOM      6  C   UNL     1      -1.243   3.802   3.143  0.00  0.00    +0.023 A 
ATOM      7  C   UNL     1      -0.263   3.399   2.231  0.00  0.00    +0.016 A 
ATOM      8  C   UNL     1       0.139   2.093   2.202  0.00  0.00    -0.041 A 
ATOM      9  C   UNL     1      -1.700   5.194   3.195  0.00  0.00    -0.012 A 
ATOM     10  C   UNL     1      -2.651   5.523   4.106  0.00  0.00    +0.098 A 
ATOM     11  C   UNL     1      -3.170   4.532   4.968  0.00  0.00    +0.338 A 
ATOM     12  O   UNL     1      -4.022   4.839   5.781  0.00  0.00    -0.245 OA
ATOM     13  O   UNL     1      -2.746   3.259   4.914  0.00  0.00    -0.422 OA
BRANCH   8  14
ATOM     14  C   UNL     1       1.191   1.656   1.216  0.00  0.00    +0.013 C 
ATOM     15  C   UNL     1       2.470   2.464   1.444  0.00  0.00    +0.012 C 
ATOM     16  C   UNL     1       0.686   1.895  -0.209  0.00  0.00    +0.012 C 
ENDBRANCH   8  14
ENDBRANCH   1   9
BRANCH   1  17
ATOM     17  N   UNL     1      -1.841   7.499   2.449  0.00  0.00    -0.220 N 
ATOM     18  C   UNL     1      -2.984   7.826   1.813  0.00  0.00    +0.251 C 
ATOM     19  O   UNL     1      -3.593   7.153   1.010  0.00  0.00    -0.272 OA
ATOM     20  C   UNL     1      -3.349   9.210   2.312  0.00  0.00    +0.136 C 
ATOM     21  N   UNL     1      -2.265   9.536   3.255  0.00  0.00    -0.281 N 
ATOM     22  C   UNL     1      -1.435   8.477   3.267  0.00  0.00    +0.310 C 
ATOM     23  O   UNL     1      -0.428   8.416   3.945  0.00  0.00    -0.252 OA
ATOM     24  C   UNL     1      -3.374  10.210   1.154  0.00  0.00    +0.047 C 
ATOM     25  H   UNL     1      -2.168  10.354   3.766  0.00  0.00    +0.152 HD
BRANCH  20  26
ATOM     26  C   UNL     1      -4.679   9.188   3.021  0.00  0.00    -0.002 A 
ATOM     27  C   UNL     1      -4.747   9.478   4.371  0.00  0.00    +0.007 A 
ATOM     28  C   UNL     1      -5.968   9.464   5.020  0.00  0.00    +0.000 A 
ATOM     29  C   UNL     1      -7.119   9.149   4.322  0.00  0.00    +0.001 A 
ATOM     30  C   UNL     1      -7.051   8.854   2.974  0.00  0.00    +0.015 A 
ATOM     31  C   UNL     1      -5.830   8.873   2.323  0.00  0.00    +0.024 A 
ATOM     32 BR   UNL     1      -5.736   8.470   0.477  0.00  0.00    -0.050 Br
ENDBRANCH  20  26
ENDBRANCH   1  17
TORSDOF 4
