REMARK  Name = ZINC05445483
REMARK  6 active torsions:
REMARK  status: ('A' for Active; 'I' for Inactive)
REMARK    1  A    between atoms: C_1  and  C_2
REMARK    2  A    between atoms: C_2  and  C_3
REMARK    3  A    between atoms: C_2  and  O_4
REMARK    4  A    between atoms: O_4  and  P_5
REMARK    5  A    between atoms: C_8  and  N_51
REMARK    6  A    between atoms: N_14  and  C_15
REMARK                            x       y       z     vdW  Elec       q    Type
REMARK                         _______ _______ _______ _____ _____    ______ ____
ROOT
ATOM      1  P   UNL     1       4.686   2.273  -0.231  0.00  0.00    +0.183 P 
ATOM      2  S   UNL     1       5.736   2.644  -1.725  0.00  0.00    -0.011 S 
ATOM      3  C   UNL     1       3.046   1.642  -0.701  0.00  0.00    +0.064 C 
ATOM      4  C   UNL     1       2.643   0.571  -1.359  0.00  0.00    +0.004 C 
ATOM      5  C   UNL     1       1.153   0.406  -1.587  0.00  0.00    +0.050 C 
ATOM      6  C   UNL     1       0.366   1.024  -0.434  0.00  0.00    +0.012 C 
ATOM      7  C   UNL     1       0.648   2.527  -0.313  0.00  0.00    +0.058 C 
ATOM      8  C   UNL     1       2.152   2.689  -0.147  0.00  0.00    +0.073 C 
ATOM      9  N   UNL     1       2.781   3.640   0.429  0.00  0.00    -0.177 NA
ATOM     10  N   UNL     1       4.178   3.668   0.529  0.00  0.00    -0.170 N 
ENDROOT
BRANCH  10  11
ATOM     11  C   UNL     1       4.969   4.646   1.130  0.00  0.00    +0.059 A 
ATOM     12  C   UNL     1       6.352   4.512   1.144  0.00  0.00    +0.025 A 
ATOM     13  C   UNL     1       7.133   5.484   1.737  0.00  0.00    +0.002 A 
ATOM     14  C   UNL     1       6.539   6.587   2.324  0.00  0.00    +0.000 A 
ATOM     15  C   UNL     1       5.162   6.722   2.317  0.00  0.00    +0.002 A 
ATOM     16  C   UNL     1       4.375   5.755   1.722  0.00  0.00    +0.025 A 
ENDBRANCH  10  11
BRANCH   4  21
ATOM     17  C   UNL     1       4.615  -0.115  -2.800  0.00  0.00    +0.085 C 
ATOM     18  C   UNL     1       5.350  -1.453  -3.030  0.00  0.00    +0.019 C 
ATOM     19  C   UNL     1       4.292  -2.505  -2.606  0.00  0.00    +0.019 C 
ATOM     20  C   UNL     1       3.594  -1.785  -1.425  0.00  0.00    +0.085 C 
ATOM     21  N   UNL     1       3.840  -0.330  -1.599  0.00  0.00    -0.396 NA
ATOM     22  H   UNL     1       4.484  -0.079  -0.840  0.00  0.00    +0.126 HD
ENDBRANCH   4  21
BRANCH   1  23
ATOM     23  O   UNL     1       5.438   1.279   0.788  0.00  0.00    -0.330 OA
BRANCH  23  25
ATOM     24  C   UNL     1       7.498   0.065   0.439  0.00  0.00    +0.038 C 
ATOM     25  C   UNL     1       5.970   0.013   0.391  0.00  0.00    +0.119 C 
ATOM     26  C   UNL     1       5.465  -1.073   1.342  0.00  0.00    +0.038 C 
ENDBRANCH  23  25
ENDBRANCH   1  23
TORSDOF 4
