REMARK  Name = ZINC40317366
REMARK  11 active torsions:
REMARK  status: ('A' for Active; 'I' for Inactive)
REMARK    1  A    between atoms: C_1  and  C_2
REMARK    2  A    between atoms: C_4  and  O_9
REMARK    3  A    between atoms: O_9  and  C_10
REMARK    4  A    between atoms: C_10  and  C_11
REMARK    5  A    between atoms: C_11  and  C_13
REMARK    6  A    between atoms: C_11  and  O_30
REMARK    7  A    between atoms: C_13  and  N_14
REMARK    8  A    between atoms: N_14  and  C_15
REMARK    9  A    between atoms: N_14  and  C_24
REMARK   10  A    between atoms: C_15  and  C_16
REMARK   11  A    between atoms: C_24  and  C_25
REMARK                            x       y       z     vdW  Elec       q    Type
REMARK                         _______ _______ _______ _____ _____    ______ ____
ROOT
ATOM      1  N   UNL     1       0.212  -6.924  -5.320  0.00  0.00    +0.389 N 
ATOM      2  H   UNL     1      -0.601  -6.631  -5.841  0.00  0.00    -0.081 HD
ENDROOT
BRANCH   1   3
ATOM      3  C   UNL     1       0.124  -6.410  -3.946  0.00  0.00    -0.043 C 
BRANCH   3   4
ATOM      4  C   UNL     1      -0.066  -4.892  -3.981  0.00  0.00    +0.135 C 
BRANCH   4   5
ATOM      5  O   UNL     1      -1.325  -4.582  -4.582  0.00  0.00    -0.390 OA
ATOM      6  H   UNL     1      -2.085  -4.954  -4.115  0.00  0.00    +0.210 HD
ENDBRANCH   4   5
BRANCH   4   7
ATOM      7  C   UNL     1      -0.032  -4.341  -2.554  0.00  0.00    +0.258 C 
BRANCH   7   8
ATOM      8  O   UNL     1      -0.092  -2.913  -2.593  0.00  0.00    -0.489 OA
BRANCH   8  12
ATOM      9  C   UNL     1      -0.167   1.289  -0.112  0.00  0.00    +0.045 C 
ATOM     10  C   UNL     1      -0.107  -0.216  -0.151  0.00  0.00    -0.029 A 
ATOM     11  C   UNL     1      -0.127  -0.877  -1.365  0.00  0.00    +0.050 A 
ATOM     12  C   UNL     1      -0.072  -2.262  -1.401  0.00  0.00    +0.121 A 
ATOM     13  C   UNL     1       0.003  -2.982  -0.217  0.00  0.00    +0.047 A 
ATOM     14  C   UNL     1       0.023  -2.319   0.994  0.00  0.00    +0.024 A 
ATOM     15  C   UNL     1      -0.027  -0.936   1.028  0.00  0.00    +0.044 A 
ATOM     16 CL   UNL     1       0.005  -0.104   2.551  0.00  0.00    -0.083 Cl
ENDBRANCH   8  12
ENDBRANCH   7   8
ENDBRANCH   4   7
ENDBRANCH   3   4
ENDBRANCH   1   3
BRANCH   1  17
ATOM     17  C   UNL     1       0.273  -8.391  -5.290  0.00  0.00    -0.041 C 
BRANCH  17  18
ATOM     18  C   UNL     1      -1.026  -8.938  -4.756  0.00  0.00    -0.046 A 
ATOM     19  C   UNL     1      -1.101  -9.388  -3.451  0.00  0.00    +0.004 A 
ATOM     20  C   UNL     1      -2.292  -9.890  -2.961  0.00  0.00    +0.020 A 
ATOM     21  C   UNL     1      -3.410  -9.940  -3.776  0.00  0.00    +0.042 A 
ATOM     22  C   UNL     1      -3.335  -9.489  -5.081  0.00  0.00    +0.040 A 
ATOM     23  C   UNL     1      -2.144  -8.982  -5.570  0.00  0.00    +0.044 A 
ATOM     24 CL   UNL     1      -2.050  -8.410  -7.206  0.00  0.00    -0.083 Cl
ATOM     25 CL   UNL     1      -4.905 -10.570  -3.159  0.00  0.00    -0.083 Cl
ENDBRANCH  17  18
ENDBRANCH   1  17
BRANCH   1  26
ATOM     26  C   UNL     1       1.422  -6.396  -5.964  0.00  0.00    -0.003 C 
BRANCH  26  27
ATOM     27  C   UNL     1       1.448  -6.820  -7.410  0.00  0.00    +0.089 A 
ATOM     28  C   UNL     1       0.836  -6.186  -8.426  0.00  0.00    +0.042 A 
ATOM     29  C   UNL     1       1.122  -6.922  -9.599  0.00  0.00    +0.041 A 
ATOM     30  C   UNL     1       1.890  -7.962  -9.229  0.00  0.00    +0.195 A 
ATOM     31  O   UNL     1       2.089  -7.892  -7.902  0.00  0.00    -0.470 OA
ENDBRANCH  26  27
ENDBRANCH   1  26
TORSDOF 10
