REMARK  Name = ZINC12499968
REMARK  12 active torsions:
REMARK  status: ('A' for Active; 'I' for Inactive)
REMARK    1  A    between atoms: C_1  and  C_2
REMARK    2  A    between atoms: C_4  and  N_27
REMARK    3  A    between atoms: C_7  and  N_8
REMARK    4  A    between atoms: N_8  and  C_9
REMARK    5  A    between atoms: C_9  and  N_11
REMARK    6  A    between atoms: C_12  and  C_14
REMARK    7  A    between atoms: C_14  and  O_15
REMARK    8  A    between atoms: O_15  and  C_16
REMARK    9  A    between atoms: C_18  and  C_26
REMARK   10  A    between atoms: C_21  and  C_22
REMARK   11  A    between atoms: C_22  and  C_23
REMARK   12  A    between atoms: C_22  and  C_24
REMARK                            x       y       z     vdW  Elec       q    Type
REMARK                         _______ _______ _______ _____ _____    ______ ____
ROOT
ATOM      1  N   UNL     1      -0.157  -0.027   4.744  0.00  0.00    -0.265 N 
ATOM      2  C   UNL     1      -0.238  -0.707   5.905  0.00  0.00    +0.256 C 
ATOM      3  O   UNL     1      -0.222  -1.919   5.900  0.00  0.00    -0.272 OA
ATOM      4  H   UNL     1      -0.170   0.943   4.748  0.00  0.00    +0.157 HD
ENDROOT
BRANCH   1   5
ATOM      5  C   UNL     1      -0.057  -0.695   3.578  0.00  0.00    +0.141 C 
ATOM      6  S   UNL     1      -0.033  -2.407   3.571  0.00  0.00    -0.018 S 
BRANCH   5   7
ATOM      7  N   UNL     1       0.025  -0.015   2.417  0.00  0.00    -0.296 N 
ATOM      8  H   UNL     1       0.074   0.954   2.424  0.00  0.00    +0.154 HD
BRANCH   7  15
ATOM      9  C   UNL     1      -1.704   0.882   0.343  0.00  0.00    +0.046 C 
ATOM     10  C   UNL     1      -0.790  -0.302   0.162  0.00  0.00    -0.027 A 
ATOM     11  C   UNL     1      -0.771  -0.984  -1.039  0.00  0.00    +0.038 A 
ATOM     12  C   UNL     1       0.067  -2.071  -1.206  0.00  0.00    +0.127 A 
ATOM     13  C   UNL     1       0.888  -2.479  -0.171  0.00  0.00    +0.034 A 
ATOM     14  C   UNL     1       0.874  -1.802   1.032  0.00  0.00    +0.026 A 
ATOM     15  C   UNL     1       0.037  -0.706   1.201  0.00  0.00    +0.036 A 
BRANCH  12  16
ATOM     16  N   UNL     1       0.085  -2.799  -2.495  0.00  0.00    +0.056 N 
ATOM     17  O   UNL     1      -0.633  -2.443  -3.400  0.00  0.00    -0.126 OA
ATOM     18  O   UNL     1       0.817  -3.749  -2.642  0.00  0.00    -0.126 OA
ENDBRANCH  12  16
ENDBRANCH   7  15
ENDBRANCH   5   7
ENDBRANCH   1   5
BRANCH   2  19
ATOM     19  C   UNL     1      -0.350   0.040   7.209  0.00  0.00    +0.325 C 
BRANCH  19  20
ATOM     20  O   UNL     1      -0.422  -0.894   8.288  0.00  0.00    -0.482 OA
BRANCH  20  21
ATOM     21  C   UNL     1      -0.527  -0.381   9.542  0.00  0.00    +0.125 A 
ATOM     22  C   UNL     1      -0.566   0.993   9.730  0.00  0.00    +0.050 A 
ATOM     23  C   UNL     1      -0.672   1.512  11.005  0.00  0.00    -0.033 A 
ATOM     24  C   UNL     1      -0.740   0.663  12.096  0.00  0.00    +0.021 A 
ATOM     25  C   UNL     1      -0.701  -0.707  11.911  0.00  0.00    +0.023 A 
ATOM     26  C   UNL     1      -0.601  -1.231  10.636  0.00  0.00    -0.002 A 
ATOM     27 BR   UNL     1      -0.886   1.377  13.841  0.00  0.00    -0.050 Br
ATOM     28  C   UNL     1      -0.714   3.005  11.210  0.00  0.00    +0.045 C 
BRANCH  26  29
ATOM     29  C   UNL     1      -0.566  -2.724  10.435  0.00  0.00    +0.016 C 
ATOM     30  C   UNL     1       0.638  -3.310  11.177  0.00  0.00    +0.012 C 
ATOM     31  C   UNL     1      -1.853  -3.343  10.983  0.00  0.00    +0.012 C 
ENDBRANCH  26  29
ENDBRANCH  20  21
ENDBRANCH  19  20
ENDBRANCH   2  19
TORSDOF 8
