REMARK  Name = ZINC11963498
REMARK  12 active torsions:
REMARK  status: ('A' for Active; 'I' for Inactive)
REMARK    1  A    between atoms: C_1  and  C_2
REMARK    2  A    between atoms: C_2  and  C_3
REMARK    3  A    between atoms: C_2  and  C_4
REMARK    4  A    between atoms: C_4  and  C_6
REMARK    5  A    between atoms: C_4  and  N_26
REMARK    6  A    between atoms: C_15  and  C_16
REMARK    7  A    between atoms: C_15  and  N_70
REMARK    8  A    between atoms: C_19  and  O_22
REMARK    9  A    between atoms: O_22  and  C_23
REMARK   10  A    between atoms: C_23  and  C_24
REMARK   11  A    between atoms: C_23  and  C_25
REMARK   12  A    between atoms: C_27  and  C_29
REMARK                            x       y       z     vdW  Elec       q    Type
REMARK                         _______ _______ _______ _____ _____    ______ ____
ROOT
ATOM      1  C   UNL     1      -2.403   4.012  -2.297  0.00  0.00    +0.154 A 
ATOM      2  N   UNL     1      -2.185   2.894  -2.938  0.00  0.00    -0.132 NA
ATOM      3  N   UNL     1      -1.460   2.112  -2.215  0.00  0.00    -0.134 NA
ATOM      4  C   UNL     1      -1.179   2.699  -1.089  0.00  0.00    +0.132 A 
ATOM      5  N   UNL     1      -1.784   3.912  -1.102  0.00  0.00    -0.315 N 
ATOM      6  C   UNL     1      -1.771   4.891  -0.015  0.00  0.00    +0.106 C 
ATOM      7  C   UNL     1      -0.493   4.712   0.810  0.00  0.00    -0.056 C 
ATOM      8  C   UNL     1      -1.072   2.415   1.366  0.00  0.00    -0.071 C 
ATOM      9  C   UNL     1      -0.339   2.167   0.044  0.00  0.00    +0.058 C 
ATOM     10  N   UNL     1      -0.697   3.739   1.908  0.00  0.00    +0.384 N 
ATOM     11  H   UNL     1       0.181   3.644   2.432  0.00  0.00    -0.081 HD
ENDROOT
BRANCH   1  12
ATOM     12  C   UNL     1      -3.196   5.191  -2.798  0.00  0.00    +0.144 C 
BRANCH  12  13
ATOM     13  N   UNL     1      -2.819   5.480  -4.184  0.00  0.00    -0.305 N 
ATOM     14  C   UNL     1      -2.980   6.722  -4.681  0.00  0.00    +0.219 C 
ATOM     15  O   UNL     1      -3.437   7.601  -3.981  0.00  0.00    -0.275 OA
ATOM     16  H   UNL     1      -2.454   4.777  -4.744  0.00  0.00    +0.149 HD
BRANCH  14  17
ATOM     17  C   UNL     1      -2.592   7.019  -6.107  0.00  0.00    +0.103 C 
ATOM     18  C   UNL     1      -2.868   8.502  -6.445  0.00  0.00    +0.043 C 
ATOM     19  C   UNL     1      -3.903   8.440  -7.590  0.00  0.00    +0.160 C 
ATOM     20  O   UNL     1      -4.551   7.159  -7.432  0.00  0.00    -0.379 OA
ATOM     21  C   UNL     1      -3.494   6.237  -7.087  0.00  0.00    +0.172 C 
ENDBRANCH  14  17
ENDBRANCH  12  13
BRANCH  12  23
ATOM     22  C   UNL     1      -4.964   3.573  -3.505  0.00  0.00    +0.009 C 
ATOM     23  C   UNL     1      -4.690   4.865  -2.733  0.00  0.00    +0.011 C 
ATOM     24  C   UNL     1      -5.109   4.686  -1.273  0.00  0.00    +0.009 C 
ENDBRANCH  12  23
ENDBRANCH   1  12
BRANCH  10  25
ATOM     25  C   UNL     1      -1.746   4.224   2.821  0.00  0.00    -0.043 C 
BRANCH  25  26
ATOM     26  C   UNL     1      -1.784   3.326   4.030  0.00  0.00    -0.064 A 
ATOM     27  C   UNL     1      -2.626   2.229   4.050  0.00  0.00    +0.005 A 
ATOM     28  C   UNL     1      -2.658   1.401   5.155  0.00  0.00    +0.046 A 
ATOM     29  C   UNL     1      -1.853   1.677   6.251  0.00  0.00    +0.121 A 
ATOM     30  C   UNL     1      -1.013   2.781   6.231  0.00  0.00    +0.046 A 
ATOM     31  C   UNL     1      -0.981   3.603   5.121  0.00  0.00    +0.005 A 
BRANCH  29  32
ATOM     32  O   UNL     1      -1.887   0.867   7.342  0.00  0.00    -0.489 OA
BRANCH  32  33
ATOM     33  C   UNL     1      -0.948   1.142   8.383  0.00  0.00    +0.167 C 
ATOM     34  C   UNL     1      -1.516   2.219   9.310  0.00  0.00    +0.051 C 
ATOM     35  C   UNL     1      -0.687  -0.134   9.185  0.00  0.00    +0.051 C 
ENDBRANCH  32  33
ENDBRANCH  29  32
ENDBRANCH  25  26
ENDBRANCH  10  25
TORSDOF 8
