REMARK  Name = ZINC14664726
REMARK  12 active torsions:
REMARK  status: ('A' for Active; 'I' for Inactive)
REMARK    1  A    between atoms: C_1  and  C_2
REMARK    2  A    between atoms: C_5  and  O_9
REMARK    3  A    between atoms: O_9  and  C_10
REMARK    4  A    between atoms: C_10  and  C_11
REMARK    5  A    between atoms: N_13  and  N_14
REMARK    6  A    between atoms: N_14  and  C_15
REMARK    7  A    between atoms: C_15  and  N_17
REMARK    8  A    between atoms: C_18  and  C_20
REMARK    9  A    between atoms: C_25  and  O_26
REMARK   10  A    between atoms: O_26  and  C_27
REMARK   11  A    between atoms: C_27  and  C_28
REMARK   12  A    between atoms: C_27  and  C_29
REMARK                            x       y       z     vdW  Elec       q    Type
REMARK                         _______ _______ _______ _____ _____    ______ ____
ROOT
ATOM      1  N   UNL     1      -5.516  -1.685   0.732  0.00  0.00    -0.245 N 
ATOM      2  H   UNL     1      -6.403  -1.367   0.965  0.00  0.00    +0.172 HD
ENDROOT
BRANCH   1   5
ATOM      3  C   UNL     1      -6.328  -3.918   0.580  0.00  0.00    +0.267 C 
ATOM      4  O   UNL     1      -7.436  -3.521   0.872  0.00  0.00    -0.271 OA
ATOM      5  N   UNL     1      -5.302  -3.048   0.489  0.00  0.00    -0.232 N 
ATOM      6  H   UNL     1      -4.416  -3.366   0.256  0.00  0.00    +0.173 HD
BRANCH   3   7
ATOM      7  C   UNL     1      -6.098  -5.384   0.319  0.00  0.00    +0.326 C 
BRANCH   7   8
ATOM      8  O   UNL     1      -7.328  -6.095   0.476  0.00  0.00    -0.482 OA
BRANCH   8  13
ATOM      9  C   UNL     1      -7.187 -11.664  -0.359  0.00  0.00    +0.044 C 
ATOM     10  C   UNL     1      -7.225 -10.174  -0.136  0.00  0.00    -0.049 A 
ATOM     11  C   UNL     1      -6.070  -9.426  -0.273  0.00  0.00    +0.007 A 
ATOM     12  C   UNL     1      -6.102  -8.060  -0.069  0.00  0.00    +0.047 A 
ATOM     13  C   UNL     1      -7.294  -7.438   0.274  0.00  0.00    +0.135 A 
ATOM     14  C   UNL     1      -8.451  -8.192   0.415  0.00  0.00    +0.060 A 
ATOM     15  C   UNL     1      -8.415  -9.558   0.205  0.00  0.00    +0.022 A 
ATOM     16 BR   UNL     1     -10.077  -7.350   0.889  0.00  0.00    -0.047 Br
ENDBRANCH   8  13
ENDBRANCH   7   8
ENDBRANCH   3   7
ENDBRANCH   1   5
BRANCH   1  17
ATOM     17  C   UNL     1      -4.491  -0.815   0.641  0.00  0.00    +0.153 C 
ATOM     18  S   UNL     1      -4.752   0.851   0.938  0.00  0.00    -0.017 S 
BRANCH  17  19
ATOM     19  N   UNL     1      -3.260  -1.257   0.317  0.00  0.00    -0.263 N 
ATOM     20  C   UNL     1      -2.234  -0.387   0.226  0.00  0.00    +0.253 C 
ATOM     21  O   UNL     1      -2.420   0.796   0.437  0.00  0.00    -0.270 OA
ATOM     22  H   UNL     1      -3.111  -2.200   0.148  0.00  0.00    +0.157 HD
BRANCH  20  23
ATOM     23  C   UNL     1      -0.887  -0.870  -0.129  0.00  0.00    +0.079 A 
ATOM     24  C   UNL     1      -0.669  -2.229  -0.373  0.00  0.00    +0.017 A 
ATOM     25  C   UNL     1       0.592  -2.673  -0.704  0.00  0.00    +0.001 A 
ATOM     26  C   UNL     1       1.647  -1.780  -0.798  0.00  0.00    +0.004 A 
ATOM     27  C   UNL     1       1.444  -0.434  -0.565  0.00  0.00    +0.046 A 
ATOM     28  C   UNL     1       0.183   0.031  -0.225  0.00  0.00    +0.133 A 
BRANCH  28  29
ATOM     29  O   UNL     1      -0.016   1.352   0.009  0.00  0.00    -0.489 OA
BRANCH  29  30
ATOM     30  C   UNL     1       1.139   2.193   0.005  0.00  0.00    +0.167 C 
ATOM     31  C   UNL     1       1.457   2.616  -1.431  0.00  0.00    +0.051 C 
ATOM     32  C   UNL     1       0.868   3.437   0.854  0.00  0.00    +0.051 C 
ENDBRANCH  29  30
ENDBRANCH  28  29
ENDBRANCH  20  23
ENDBRANCH  17  19
ENDBRANCH   1  17
TORSDOF 9
