REMARK  Name = ZINC16776802
REMARK  9 active torsions:
REMARK  status: ('A' for Active; 'I' for Inactive)
REMARK    1  A    between atoms: C_1  and  C_2
REMARK    2  A    between atoms: C_2  and  C_4
REMARK    3  A    between atoms: C_2  and  N_26
REMARK    4  A    between atoms: N_12  and  C_13
REMARK    5  A    between atoms: C_13  and  C_14
REMARK    6  A    between atoms: N_16  and  C_17
REMARK    7  A    between atoms: N_16  and  C_23
REMARK    8  A    between atoms: C_23  and  C_24
REMARK    9  A    between atoms: C_23  and  C_25
REMARK                            x       y       z     vdW  Elec       q    Type
REMARK                         _______ _______ _______ _____ _____    ______ ____
ROOT
ATOM      1  C   UNL     1       0.092  -1.332  -0.226  0.00  0.00    +0.097 A 
ATOM      2  N   UNL     1      -0.820  -1.325   0.702  0.00  0.00    -0.234 NA
ATOM      3  C   UNL     1      -0.235  -1.474   1.918  0.00  0.00    +0.089 A 
ATOM      4  C   UNL     1      -0.728  -1.534   3.224  0.00  0.00    +0.030 A 
ATOM      5  C   UNL     1       0.135  -1.694   4.271  0.00  0.00    +0.002 A 
ATOM      6  C   UNL     1       1.501  -1.797   4.053  0.00  0.00    +0.002 A 
ATOM      7  C   UNL     1       2.010  -1.740   2.773  0.00  0.00    +0.028 A 
ATOM      8  C   UNL     1       1.149  -1.579   1.696  0.00  0.00    +0.069 A 
ATOM      9  N   UNL     1       1.323  -1.491   0.330  0.00  0.00    -0.320 N 
ENDROOT
BRANCH   1  11
ATOM     10  C   UNL     1      -0.504   0.270  -2.023  0.00  0.00    -0.005 C 
ATOM     11  C   UNL     1      -0.177  -1.190  -1.702  0.00  0.00    -0.004 C 
BRANCH  11  12
ATOM     12  N   UNL     1      -1.315  -2.040  -2.076  0.00  0.00    +0.386 N 
ATOM     13  C   UNL     1      -1.004  -3.439  -1.760  0.00  0.00    -0.078 C 
ATOM     14  C   UNL     1      -2.216  -4.319  -2.072  0.00  0.00    -0.019 C 
ATOM     15  C   UNL     1      -2.560  -4.195  -3.559  0.00  0.00    -0.004 C 
ATOM     16  C   UNL     1      -2.811  -2.722  -3.894  0.00  0.00    -0.019 C 
ATOM     17  C   UNL     1      -1.576  -1.901  -3.514  0.00  0.00    -0.078 C 
ATOM     18  H   UNL     1      -2.132  -1.754  -1.558  0.00  0.00    -0.081 HD
ENDBRANCH  11  12
ENDBRANCH   1  11
BRANCH   9  19
ATOM     19  C   UNL     1       2.599  -1.554  -0.389  0.00  0.00    +0.219 C 
BRANCH  19  20
ATOM     20  C   UNL     1       3.168  -0.166  -0.524  0.00  0.00    +0.240 C 
ATOM     21  O   UNL     1       2.568   0.783  -0.066  0.00  0.00    -0.273 OA
ATOM     22  N   UNL     1       4.345   0.021  -1.154  0.00  0.00    -0.267 N 
BRANCH  22  23
ATOM     23  C   UNL     1       4.825   1.318  -1.369  0.00  0.00    +0.037 A 
ATOM     24  C   UNL     1       5.616   1.935  -0.409  0.00  0.00    +0.023 A 
ATOM     25  C   UNL     1       6.088   3.215  -0.624  0.00  0.00    +0.002 A 
ATOM     26  C   UNL     1       5.774   3.882  -1.794  0.00  0.00    +0.000 A 
ATOM     27  C   UNL     1       4.987   3.270  -2.752  0.00  0.00    +0.002 A 
ATOM     28  C   UNL     1       4.516   1.988  -2.546  0.00  0.00    +0.023 A 
ENDBRANCH  22  23
BRANCH  22  29
ATOM     29  C   UNL     1       5.121  -1.133  -1.615  0.00  0.00    +0.075 C 
ATOM     30  C   UNL     1       5.386  -1.003  -3.116  0.00  0.00    +0.028 C 
ATOM     31  C   UNL     1       6.453  -1.185  -0.864  0.00  0.00    +0.028 C 
ENDBRANCH  22  29
ENDBRANCH  19  20
ENDBRANCH   9  19
TORSDOF 6
