REMARK  Name = ZINC65398358
REMARK  8 active torsions:
REMARK  status: ('A' for Active; 'I' for Inactive)
REMARK    1  A    between atoms: C_1  and  C_2
REMARK    2  A    between atoms: C_5  and  C_8
REMARK    3  A    between atoms: C_9  and  C_24
REMARK    4  A    between atoms: N_14  and  C_15
REMARK    5  A    between atoms: N_14  and  C_16
REMARK    6  A    between atoms: C_16  and  C_17
REMARK    7  A    between atoms: C_17  and  C_23
REMARK    8  A    between atoms: N_20  and  C_22
REMARK                            x       y       z     vdW  Elec       q    Type
REMARK                         _______ _______ _______ _____ _____    ______ ____
ROOT
ATOM      1  C   UNL     1       0.059  -4.254  -0.021  0.00  0.00    +0.084 A 
ATOM      2  C   UNL     1       0.764  -4.967   0.968  0.00  0.00    +0.029 A 
ATOM      3  C   UNL     1       0.749  -6.361   0.912  0.00  0.00    +0.125 A 
ATOM      4  N   UNL     1       0.080  -6.960  -0.058  0.00  0.00    -0.222 NA
ATOM      5  C   UNL     1      -0.573  -6.258  -0.973  0.00  0.00    +0.218 A 
ATOM      6  N   UNL     1      -0.593  -4.934  -0.960  0.00  0.00    -0.214 NA
ATOM      7  N   UNL     1      -1.259  -6.929  -1.970  0.00  0.00    -0.302 N 
ATOM      8  C   UNL     1      -1.988  -6.175  -2.993  0.00  0.00    +0.132 C 
ENDROOT
BRANCH   1  13
ATOM      9  C   UNL     1      -0.018   1.503   0.010  0.00  0.00    +0.044 C 
ATOM     10  C   UNL     1       0.002  -0.004   0.002  0.00  0.00    -0.050 A 
ATOM     11  C   UNL     1       0.006  -0.686  -1.201  0.00  0.00    +0.004 A 
ATOM     12  C   UNL     1       0.024  -2.066  -1.215  0.00  0.00    +0.010 A 
ATOM     13  C   UNL     1       0.040  -2.773  -0.013  0.00  0.00    +0.001 A 
ATOM     14  C   UNL     1       0.036  -2.079   1.197  0.00  0.00    +0.010 A 
ATOM     15  C   UNL     1       0.023  -0.699   1.198  0.00  0.00    +0.004 A 
ENDBRANCH   1  13
BRANCH   2  16
ATOM     16  C   UNL     1       1.502  -4.255   2.038  0.00  0.00    +0.022 A 
ATOM     17  C   UNL     1       2.388  -3.217   1.732  0.00  0.00    +0.122 A 
ATOM     18  N   UNL     1       3.025  -2.609   2.718  0.00  0.00    -0.243 NA
ATOM     19  C   UNL     1       2.835  -2.969   3.972  0.00  0.00    +0.221 A 
ATOM     20  N   UNL     1       2.009  -3.941   4.304  0.00  0.00    -0.243 NA
ATOM     21  C   UNL     1       1.328  -4.599   3.382  0.00  0.00    +0.122 A 
ENDBRANCH   2  16
BRANCH   7  22
ATOM     22  C   UNL     1      -1.256  -8.394  -2.002  0.00  0.00    +0.112 C 
BRANCH  22  23
ATOM     23  C   UNL     1      -2.437  -8.924  -1.186  0.00  0.00    -0.033 C 
ATOM     24  C   UNL     1      -2.274  -8.543   0.303  0.00  0.00    -0.012 C 
ATOM     25  C   UNL     1      -2.774  -9.809   1.042  0.00  0.00    -0.079 C 
ATOM     26  N   UNL     1      -2.276 -10.919   0.189  0.00  0.00    +0.378 N 
ATOM     27  C   UNL     1      -2.452 -10.464  -1.207  0.00  0.00    -0.071 C 
ATOM     28  C   UNL     1      -3.065 -12.135   0.429  0.00  0.00    -0.096 C 
ATOM     29  C   UNL     1      -3.753  -8.373  -1.738  0.00  0.00    +0.011 C 
ATOM     30  H   UNL     1      -1.300 -11.092   0.378  0.00  0.00    -0.082 HD
ENDBRANCH  22  23
ENDBRANCH   7  22
TORSDOF 4
