REMARK  Name = ZINC20722881
REMARK  4 active torsions:
REMARK  status: ('A' for Active; 'I' for Inactive)
REMARK    1  A    between atoms: C_8  and  C_10
REMARK    2  A    between atoms: N_13  and  C_16
REMARK    3  A    between atoms: C_16  and  C_18
REMARK    4  A    between atoms: C_16  and  C_29
REMARK                            x       y       z     vdW  Elec       q    Type
REMARK                         _______ _______ _______ _____ _____    ______ ____
ROOT
ATOM      1  C   UNL     1       1.141   6.289  -0.890  0.00  0.00    +0.072 C 
ATOM      2  C   UNL     1      -0.105   5.428  -1.115  0.00  0.00    -0.006 C 
ATOM      3  C   UNL     1       0.307   3.959  -1.222  0.00  0.00    -0.076 C 
ATOM      4  N   UNL     1       0.991   3.550   0.012  0.00  0.00    +0.392 N 
ATOM      5  C   UNL     1       2.216   4.330   0.224  0.00  0.00    -0.076 C 
ATOM      6  C   UNL     1       1.861   5.811   0.374  0.00  0.00    -0.006 C 
ATOM      7  H   UNL     1       0.313   3.755   0.854  0.00  0.00    -0.080 HD
ENDROOT
BRANCH   1  15
ATOM      8  C   UNL     1      -0.849  11.813   0.323  0.00  0.00    +0.002 A 
ATOM      9  C   UNL     1      -0.086  12.162  -0.781  0.00  0.00    +0.004 A 
ATOM     10  C   UNL     1       0.623  11.203  -1.473  0.00  0.00    +0.048 A 
ATOM     11  C   UNL     1       0.573   9.879  -1.065  0.00  0.00    +0.155 A 
ATOM     12  C   UNL     1      -0.198   9.521   0.051  0.00  0.00    +0.110 A 
ATOM     13  C   UNL     1      -0.910  10.503   0.743  0.00  0.00    +0.031 A 
ATOM     14  N   UNL     1      -0.057   8.176   0.203  0.00  0.00    -0.213 NA
ATOM     15  C   UNL     1       0.735   7.730  -0.724  0.00  0.00    +0.200 A 
ATOM     16  O   UNL     1       1.136   8.737  -1.517  0.00  0.00    -0.439 OA
ENDBRANCH   1  15
BRANCH   4  17
ATOM     17  C   UNL     1       1.279   2.109   0.001  0.00  0.00    +0.080 C 
BRANCH  17  18
ATOM     18  C   UNL     1       2.085   1.749   1.222  0.00  0.00    -0.025 A 
ATOM     19  C   UNL     1       2.109   2.414   2.388  0.00  0.00    +0.086 A 
ATOM     20  N   UNL     1       2.957   1.791   3.263  0.00  0.00    -0.360 N 
ATOM     21  H   UNL     1       3.102   2.200   4.274  0.00  0.00    +0.165 HD
ATOM     22  C   UNL     1       3.514   0.682   2.667  0.00  0.00    +0.048 A 
ATOM     23  C   UNL     1       2.988   0.604   1.364  0.00  0.00    +0.002 A 
ATOM     24  C   UNL     1       3.374  -0.437   0.518  0.00  0.00    +0.011 A 
ATOM     25  C   UNL     1       4.260  -1.379   0.961  0.00  0.00    +0.016 A 
ATOM     26  C   UNL     1       4.779  -1.308   2.247  0.00  0.00    +0.020 A 
ATOM     27  C   UNL     1       4.417  -0.284   3.096  0.00  0.00    +0.041 A 
ATOM     28 BR   UNL     1       6.004  -2.623   2.835  0.00  0.00    -0.050 Br
ENDBRANCH  17  18
BRANCH  17  29
ATOM     29  C   UNL     1      -0.016   1.338   0.009  0.00  0.00    +0.347 C 
ATOM     30  O   UNL     1      -1.071   1.928   0.018  0.00  0.00    -0.248 OA
ATOM     31  O   UNL     1       0.002  -0.004   0.002  0.00  0.00    -0.248 OA
ENDBRANCH  17  29
ENDBRANCH   4  17
TORSDOF 4
