REMARK  Name = ZINC38965985
REMARK  11 active torsions:
REMARK  status: ('A' for Active; 'I' for Inactive)
REMARK    1  A    between atoms: C_1  and  C_2
REMARK    2  A    between atoms: C_2  and  O_3
REMARK    3  A    between atoms: O_3  and  C_4
REMARK    4  A    between atoms: C_4  and  C_6
REMARK    5  A    between atoms: C_7  and  C_31
REMARK    6  A    between atoms: C_8  and  C_29
REMARK    7  A    between atoms: C_10  and  N_13
REMARK    8  A    between atoms: C_14  and  C_16
REMARK    9  A    between atoms: C_16  and  S_17
REMARK   10  A    between atoms: S_17  and  C_18
REMARK   11  A    between atoms: C_20  and  C_23
REMARK                            x       y       z     vdW  Elec       q    Type
REMARK                         _______ _______ _______ _____ _____    ______ ____
ROOT
ATOM      1  N   UNL     1       4.629  -3.001   3.977  0.00  0.00    -0.301 N 
ATOM      2  C   UNL     1       5.251  -1.923   3.459  0.00  0.00    +0.224 C 
ATOM      3  O   UNL     1       4.686  -0.850   3.439  0.00  0.00    -0.275 OA
ATOM      4  H   UNL     1       5.081  -3.860   3.993  0.00  0.00    +0.150 HD
ENDROOT
BRANCH   1   8
ATOM      5  C   UNL     1       1.495  -2.373   2.479  0.00  0.00    +0.094 C 
ATOM      6  C   UNL     1       1.616  -3.662   2.804  0.00  0.00    -0.033 C 
ATOM      7  C   UNL     1       2.364  -4.041   4.041  0.00  0.00    +0.149 C 
ATOM      8  C   UNL     1       3.273  -2.877   4.516  0.00  0.00    +0.157 C 
ATOM      9  S   UNL     1       2.373  -1.470   3.742  0.00  0.00    -0.094 S 
ATOM     10  C   UNL     1       1.001  -4.727   1.932  0.00  0.00    +0.042 C 
BRANCH   5  11
ATOM     11  C   UNL     1       0.788  -1.812   1.313  0.00  0.00    +0.346 C 
ATOM     12  O   UNL     1       0.316  -2.554   0.474  0.00  0.00    -0.244 OA
BRANCH  11  13
ATOM     13  O   UNL     1       0.665  -0.477   1.177  0.00  0.00    -0.461 OA
BRANCH  13  15
ATOM     14  C   UNL     1      -0.070   1.526   0.043  0.00  0.00    +0.048 C 
ATOM     15  C   UNL     1      -0.032  -0.003   0.024  0.00  0.00    +0.229 C 
ENDBRANCH  13  15
ENDBRANCH  11  13
ENDBRANCH   5  11
BRANCH   7  16
ATOM     16  C   UNL     1       1.404  -4.369   5.107  0.00  0.00    +0.073 C 
ATOM     17  N   UNL     1       0.663  -4.622   5.930  0.00  0.00    -0.196 NA
ENDBRANCH   7  16
ENDBRANCH   1   8
BRANCH   2  18
ATOM     18  C   UNL     1       6.646  -2.051   2.906  0.00  0.00    +0.173 C 
BRANCH  18  19
ATOM     19  S   UNL     1       7.202  -0.439   2.288  0.00  0.00    -0.075 S 
BRANCH  19  20
ATOM     20  C   UNL     1       8.827  -0.751   1.682  0.00  0.00    +0.212 A 
ATOM     21  N   UNL     1       9.668   0.161   1.112  0.00  0.00    -0.199 NA
ATOM     22  C   UNL     1      10.813  -0.535   0.799  0.00  0.00    +0.184 A 
ATOM     23  N   UNL     1      10.624  -1.778   1.176  0.00  0.00    -0.127 NA
ATOM     24  N   UNL     1       9.457  -1.905   1.700  0.00  0.00    -0.120 NA
BRANCH  22  25
ATOM     25  C   UNL     1      12.028   0.014   0.159  0.00  0.00    +0.021 A 
ATOM     26  C   UNL     1      12.089   1.365  -0.184  0.00  0.00    +0.011 A 
ATOM     27  C   UNL     1      13.226   1.871  -0.780  0.00  0.00    +0.001 A 
ATOM     28  C   UNL     1      14.303   1.042  -1.039  0.00  0.00    +0.000 A 
ATOM     29  C   UNL     1      14.248  -0.299  -0.702  0.00  0.00    +0.001 A 
ATOM     30  C   UNL     1      13.120  -0.816  -0.099  0.00  0.00    +0.011 A 
ENDBRANCH  22  25
ENDBRANCH  19  20
ENDBRANCH  18  19
ENDBRANCH   2  18
TORSDOF 9
