REMARK  Name = ZINC23858007
REMARK  11 active torsions:
REMARK  status: ('A' for Active; 'I' for Inactive)
REMARK    1  A    between atoms: C_1  and  C_2
REMARK    2  A    between atoms: C_2  and  C_3
REMARK    3  A    between atoms: C_2  and  C_4
REMARK    4  A    between atoms: C_4  and  C_5
REMARK    5  A    between atoms: C_5  and  N_6
REMARK    6  A    between atoms: C_7  and  C_9
REMARK    7  A    between atoms: N_11  and  C_12
REMARK    8  A    between atoms: C_12  and  C_13
REMARK    9  A    between atoms: C_13  and  C_15
REMARK   10  A    between atoms: C_13  and  N_25
REMARK   11  A    between atoms: N_23  and  C_24
REMARK                            x       y       z     vdW  Elec       q    Type
REMARK                         _______ _______ _______ _____ _____    ______ ____
ROOT
ATOM      1  C   UNL     1      -3.349   6.097  -1.097  0.00  0.00    -0.020 C 
ENDROOT
BRANCH   1   2
ATOM      2  C   UNL     1      -2.579   4.935  -0.525  0.00  0.00    -0.059 A 
ATOM      3  C   UNL     1      -2.642   4.661   0.829  0.00  0.00    +0.004 A 
ATOM      4  C   UNL     1      -1.940   3.597   1.356  0.00  0.00    +0.023 A 
ATOM      5  C   UNL     1      -1.163   2.790   0.527  0.00  0.00    +0.033 A 
ATOM      6  C   UNL     1      -1.103   3.077  -0.831  0.00  0.00    -0.025 A 
ATOM      7  C   UNL     1      -1.807   4.141  -1.354  0.00  0.00    +0.007 A 
ATOM      8  C   UNL     1      -0.189   2.058  -1.484  0.00  0.00    +0.056 C 
ATOM      9  C   UNL     1       0.558   1.445  -0.277  0.00  0.00    +0.109 C 
ATOM     10  N   UNL     1      -0.386   1.664   0.840  0.00  0.00    -0.332 N 
ATOM     11  C   UNL     1       0.332   1.850   2.107  0.00  0.00    +0.129 C 
ENDBRANCH   1   2
BRANCH   1  12
ATOM     12  N   UNL     1      -3.079   7.303  -0.302  0.00  0.00    +0.385 N 
ATOM     13  C   UNL     1      -1.698   7.305   0.198  0.00  0.00    -0.078 C 
ATOM     14  C   UNL     1      -1.409   8.636   0.895  0.00  0.00    -0.019 C 
ATOM     15  C   UNL     1      -2.392   8.823   2.054  0.00  0.00    -0.004 C 
ATOM     16  C   UNL     1      -3.823   8.769   1.514  0.00  0.00    -0.019 C 
ATOM     17  C   UNL     1      -4.042   7.434   0.799  0.00  0.00    -0.078 C 
ATOM     18  H   UNL     1      -3.200   8.177  -0.959  0.00  0.00    -0.081 HD
ENDBRANCH   1  12
BRANCH   1  19
ATOM     19  C   UNL     1      -4.846   5.785  -1.058  0.00  0.00    +0.094 C 
BRANCH  19  22
ATOM     20  C   UNL     1      -6.929   6.816  -1.792  0.00  0.00    +0.299 C 
ATOM     21  O   UNL     1      -7.510   5.798  -1.477  0.00  0.00    -0.265 OA
ATOM     22  N   UNL     1      -5.595   6.911  -1.622  0.00  0.00    -0.309 N 
ATOM     23  H   UNL     1      -5.069   7.833  -1.908  0.00  0.00    +0.149 HD
BRANCH  20  25
ATOM     24  N   UNL     1      -9.026   7.869  -2.538  0.00  0.00    -0.308 N 
ATOM     25  C   UNL     1      -7.692   7.964  -2.368  0.00  0.00    +0.299 C 
ATOM     26  O   UNL     1      -7.112   8.982  -2.683  0.00  0.00    -0.265 OA
ATOM     27  H   UNL     1      -9.553   6.946  -2.252  0.00  0.00    +0.149 HD
BRANCH  24  28
ATOM     28  C   UNL     1      -9.775   8.995  -3.102  0.00  0.00    +0.105 C 
BRANCH  28  29
ATOM     29  C   UNL     1     -11.258   8.629  -3.188  0.00  0.00    +0.022 C 
BRANCH  29  31
ATOM     30  C   UNL     1     -11.597  10.038  -5.223  0.00  0.00    +0.007 C 
ATOM     31  C   UNL     1     -12.040   9.805  -3.777  0.00  0.00    -0.016 C 
ATOM     32  C   UNL     1     -13.536   9.488  -3.747  0.00  0.00    +0.007 C 
ENDBRANCH  29  31
ENDBRANCH  28  29
ENDBRANCH  24  28
ENDBRANCH  20  25
ENDBRANCH  19  22
ENDBRANCH   1  19
TORSDOF 8
