REMARK  Name = ZINC64846882
REMARK  14 active torsions:
REMARK  status: ('A' for Active; 'I' for Inactive)
REMARK    1  A    between atoms: C_1  and  C_2
REMARK    2  A    between atoms: C_2  and  C_4
REMARK    3  A    between atoms: C_2  and  N_31
REMARK    4  A    between atoms: C_4  and  C_5
REMARK    5  A    between atoms: C_5  and  N_6
REMARK    6  A    between atoms: C_7  and  C_9
REMARK    7  A    between atoms: C_9  and  C_10
REMARK    8  A    between atoms: N_18  and  C_19
REMARK    9  A    between atoms: C_21  and  O_29
REMARK   10  A    between atoms: C_22  and  O_27
REMARK   11  A    between atoms: C_23  and  O_25
REMARK   12  A    between atoms: O_25  and  C_26
REMARK   13  A    between atoms: O_27  and  C_28
REMARK   14  A    between atoms: O_29  and  C_30
REMARK                            x       y       z     vdW  Elec       q    Type
REMARK                         _______ _______ _______ _____ _____    ______ ____
ROOT
ATOM      1  C   UNL     1       1.483  -6.113   3.713  0.00  0.00    +0.001 C 
ATOM      2  C   UNL     1       1.789  -7.246   2.731  0.00  0.00    +0.023 C 
ATOM      3  C   UNL     1       1.656  -8.591   3.453  0.00  0.00    +0.109 C 
ATOM      4  N   UNL     1       2.517  -8.575   4.643  0.00  0.00    -0.285 N 
ATOM      5  C   UNL     1       2.368  -7.478   5.609  0.00  0.00    +0.109 C 
ATOM      6  C   UNL     1       2.493  -6.145   4.863  0.00  0.00    +0.023 C 
ATOM      7  C   UNL     1       3.425  -9.550   4.847  0.00  0.00    +0.306 C 
ATOM      8  O   UNL     1       3.477 -10.501   4.090  0.00  0.00    -0.252 OA
ATOM      9  N   UNL     1       4.277  -9.471   5.888  0.00  0.00    -0.269 N 
ATOM     10  H   UNL     1       4.172  -8.768   6.548  0.00  0.00    +0.156 HD
ENDROOT
BRANCH   9  11
ATOM     11  C   UNL     1       5.315 -10.404   6.017  0.00  0.00    +0.042 A 
ATOM     12  C   UNL     1       5.912 -10.938   4.884  0.00  0.00    +0.073 A 
ATOM     13  C   UNL     1       6.939 -11.860   5.011  0.00  0.00    +0.167 A 
ATOM     14  C   UNL     1       7.370 -12.251   6.273  0.00  0.00    +0.204 A 
ATOM     15  C   UNL     1       6.771 -11.716   7.407  0.00  0.00    +0.167 A 
ATOM     16  C   UNL     1       5.748 -10.789   7.278  0.00  0.00    +0.073 A 
BRANCH  15  17
ATOM     17  O   UNL     1       7.192 -12.097   8.643  0.00  0.00    -0.491 OA
ATOM     18  C   UNL     1       6.531 -11.507   9.764  0.00  0.00    +0.277 C 
ENDBRANCH  15  17
BRANCH  14  19
ATOM     19  O   UNL     1       8.378 -13.157   6.398  0.00  0.00    -0.488 OA
ATOM     20  C   UNL     1       9.710 -12.642   6.460  0.00  0.00    +0.277 C 
ENDBRANCH  14  19
BRANCH  13  21
ATOM     21  O   UNL     1       7.524 -12.384   3.900  0.00  0.00    -0.491 OA
ATOM     22  C   UNL     1       7.031 -11.938   2.635  0.00  0.00    +0.277 C 
ENDBRANCH  13  21
ENDBRANCH   9  11
BRANCH   1  23
ATOM     23  C   UNL     1       1.581  -4.769   2.987  0.00  0.00    +0.099 C 
BRANCH  23  25
ATOM     24  N   UNL     1       0.398  -3.587   1.165  0.00  0.00    -0.315 N 
ATOM     25  C   UNL     1       0.505  -4.688   1.935  0.00  0.00    +0.213 C 
ATOM     26  O   UNL     1      -0.264  -5.613   1.780  0.00  0.00    -0.276 OA
ATOM     27  H   UNL     1       1.012  -2.847   1.289  0.00  0.00    +0.149 HD
BRANCH  24  28
ATOM     28  C   UNL     1      -0.648  -3.507   0.142  0.00  0.00    +0.102 C 
BRANCH  28  29
ATOM     29  C   UNL     1      -0.550  -2.164  -0.584  0.00  0.00    +0.003 C 
BRANCH  29  31
ATOM     30  C   UNL     1      -3.029  -1.981  -0.837  0.00  0.00    -0.013 C 
ATOM     31  C   UNL     1      -1.698  -2.042  -1.588  0.00  0.00    -0.070 C 
BRANCH  31  32
ATOM     32  N   UNL     1      -1.526  -0.818  -2.382  0.00  0.00    +0.381 N 
ATOM     33  C   UNL     1      -0.318  -0.929  -3.239  0.00  0.00    -0.079 C 
ATOM     34  C   UNL     1      -0.584   0.106  -4.361  0.00  0.00    -0.020 C 
ATOM     35  C   UNL     1      -2.104  -0.032  -4.605  0.00  0.00    -0.020 C 
ATOM     36  C   UNL     1      -2.665  -0.649  -3.311  0.00  0.00    -0.079 C 
ATOM     37  H   UNL     1      -1.451  -0.017  -1.774  0.00  0.00    -0.081 HD
ENDBRANCH  31  32
ENDBRANCH  29  31
ENDBRANCH  28  29
ENDBRANCH  24  28
ENDBRANCH  23  25
ENDBRANCH   1  23
TORSDOF 10
