REMARK  Name = ZINC63513828
REMARK  7 active torsions:
REMARK  status: ('A' for Active; 'I' for Inactive)
REMARK    1  A    between atoms: C_1  and  C_2
REMARK    2  A    between atoms: N_11  and  C_13
REMARK    3  A    between atoms: C_13  and  C_14
REMARK    4  A    between atoms: N_16  and  C_17
REMARK    5  A    between atoms: C_17  and  C_18
REMARK    6  A    between atoms: C_18  and  C_19
REMARK    7  A    between atoms: C_27  and  C_29
REMARK                            x       y       z     vdW  Elec       q    Type
REMARK                         _______ _______ _______ _____ _____    ______ ____
ROOT
ATOM      1  C   UNL     1       3.203  -2.468  -1.476  0.00  0.00    +0.235 C 
ATOM      2  O   UNL     1       2.489  -2.125  -2.395  0.00  0.00    -0.274 OA
ATOM      3  N   UNL     1       4.326  -3.171  -1.722  0.00  0.00    -0.313 N 
ATOM      4  H   UNL     1       4.897  -3.446  -0.987  0.00  0.00    +0.149 HD
ENDROOT
BRANCH   1   5
ATOM      5  C   UNL     1       2.834  -2.108  -0.060  0.00  0.00    +0.243 C 
BRANCH   5  16
ATOM      6  C   UNL     1       0.682   2.279  -0.277  0.00  0.00    +0.068 C 
ATOM      7  C   UNL     1       0.559   0.781  -0.166  0.00  0.00    +0.066 A 
ATOM      8  C   UNL     1      -0.762   0.161  -0.066  0.00  0.00    +0.010 A 
ATOM      9  C   UNL     1      -1.934   0.919  -0.070  0.00  0.00    +0.010 A 
ATOM     10  C   UNL     1      -3.145   0.292   0.026  0.00  0.00    +0.001 A 
ATOM     11  C   UNL     1      -3.227  -1.091   0.128  0.00  0.00    +0.001 A 
ATOM     12  C   UNL     1      -2.087  -1.864   0.134  0.00  0.00    +0.014 A 
ATOM     13  C   UNL     1      -0.841  -1.247   0.037  0.00  0.00    +0.050 A 
ATOM     14  C   UNL     1       0.410  -2.015   0.037  0.00  0.00    +0.275 A 
ATOM     15  O   UNL     1       0.392  -3.230   0.123  0.00  0.00    -0.266 OA
ATOM     16  N   UNL     1       1.580  -1.350  -0.060  0.00  0.00    -0.220 N 
ATOM     17  N   UNL     1       1.627   0.040  -0.165  0.00  0.00    -0.172 NA
ENDBRANCH   5  16
ENDBRANCH   1   5
BRANCH   3  18
ATOM     18  C   UNL     1       4.685  -3.521  -3.098  0.00  0.00    +0.108 C 
BRANCH  18  19
ATOM     19  C   UNL     1       5.994  -4.313  -3.099  0.00  0.00    +0.052 C 
BRANCH  19  20
ATOM     20  C   UNL     1       6.386  -4.634  -4.518  0.00  0.00    -0.036 C 
ATOM     21  C   UNL     1       7.218  -3.923  -5.311  0.00  0.00    +0.019 A 
ATOM     22  C   UNL     1       7.978  -2.684  -5.100  0.00  0.00    +0.050 A 
ATOM     23  C   UNL     1       8.745  -2.204  -6.108  0.00  0.00    +0.022 A 
ATOM     24  C   UNL     1       8.830  -2.857  -7.344  0.00  0.00    +0.023 A 
ATOM     25  C   UNL     1       8.161  -4.000  -7.613  0.00  0.00    +0.065 A 
ATOM     26  C   UNL     1       7.326  -4.595  -6.627  0.00  0.00    +0.063 A 
ATOM     27  N   UNL     1       6.589  -5.679  -6.645  0.00  0.00    -0.377 N 
ATOM     28  C   UNL     1       5.934  -5.821  -5.340  0.00  0.00    +0.103 C 
ATOM     29  C   UNL     1       6.369  -7.124  -4.667  0.00  0.00    +0.035 C 
ATOM     30 CL   UNL     1       8.320  -4.746  -9.172  0.00  0.00    -0.081 Cl
ATOM     31 CL   UNL     1       7.895  -1.848  -3.581  0.00  0.00    -0.083 Cl
ATOM     32  H   UNL     1       6.495  -6.287  -7.394  0.00  0.00    +0.160 HD
ENDBRANCH  19  20
ENDBRANCH  18  19
ENDBRANCH   3  18
TORSDOF 5
