REMARK  Name = ZINC43630192
REMARK  7 active torsions:
REMARK  status: ('A' for Active; 'I' for Inactive)
REMARK    1  A    between atoms: C_1  and  C_2
REMARK    2  A    between atoms: C_7  and  C_8
REMARK    3  A    between atoms: C_8  and  N_9
REMARK    4  A    between atoms: C_14  and  C_23
REMARK    5  A    between atoms: C_24  and  C_25
REMARK    6  A    between atoms: C_30  and  O_31
REMARK    7  A    between atoms: O_31  and  C_32
REMARK                            x       y       z     vdW  Elec       q    Type
REMARK                         _______ _______ _______ _____ _____    ______ ____
ROOT
ATOM      1  N   UNL     1      -1.388   0.091   3.019  0.00  0.00    -0.298 N 
ATOM      2  C   UNL     1      -2.173   1.271   2.640  0.00  0.00    +0.110 C 
ATOM      3  C   UNL     1      -3.642   0.928   2.951  0.00  0.00    +0.003 C 
ATOM      4  C   UNL     1      -4.290   0.254   1.716  0.00  0.00    -0.007 C 
ATOM      5  C   UNL     1      -5.242  -0.771   2.383  0.00  0.00    -0.043 C 
ATOM      6  N   UNL     1      -4.504  -1.264   3.567  0.00  0.00    +0.394 N 
ATOM      7  C   UNL     1      -3.503  -0.234   3.964  0.00  0.00    +0.018 C 
ATOM      8  C   UNL     1      -2.103  -0.747   3.790  0.00  0.00    +0.206 C 
ATOM      9  O   UNL     1      -1.676  -1.772   4.279  0.00  0.00    -0.277 OA
ATOM     10  C   UNL     1      -3.798   0.234   5.391  0.00  0.00    -0.004 C 
ATOM     11  C   UNL     1      -4.643  -0.932   5.972  0.00  0.00    -0.019 C 
ATOM     12  C   UNL     1      -5.446  -1.414   4.699  0.00  0.00    -0.077 C 
ATOM     13  H   UNL     1      -4.059  -2.146   3.361  0.00  0.00    -0.079 HD
ENDROOT
BRANCH   5  14
ATOM     14  C   UNL     1      -5.537  -1.906   1.436  0.00  0.00    -0.041 C 
ATOM     15  C   UNL     1      -6.788  -2.169   1.086  0.00  0.00    +0.006 C 
BRANCH  15  16
ATOM     16  C   UNL     1      -7.077  -3.281   0.158  0.00  0.00    +0.016 A 
ATOM     17  C   UNL     1      -6.036  -4.061  -0.348  0.00  0.00    +0.011 A 
ATOM     18  C   UNL     1      -6.312  -5.098  -1.214  0.00  0.00    +0.001 A 
ATOM     19  C   UNL     1      -7.618  -5.370  -1.584  0.00  0.00    +0.004 A 
ATOM     20  C   UNL     1      -8.657  -4.605  -1.089  0.00  0.00    +0.046 A 
ATOM     21  C   UNL     1      -8.397  -3.563  -0.214  0.00  0.00    +0.127 A 
BRANCH  21  22
ATOM     22  O   UNL     1      -9.418  -2.813   0.276  0.00  0.00    -0.495 OA
ATOM     23  C   UNL     1     -10.738  -3.159  -0.148  0.00  0.00    +0.277 C 
ENDBRANCH  21  22
ENDBRANCH  15  16
ENDBRANCH   5  14
BRANCH   1  24
ATOM     24  C   UNL     1      -0.004  -0.147   2.604  0.00  0.00    +0.143 C 
BRANCH  24  31
ATOM     25  C   UNL     1       2.485  -0.670   1.233  0.00  0.00    +0.044 C 
ATOM     26  C   UNL     1       1.200  -1.263   0.715  0.00  0.00    -0.046 A 
ATOM     27  C   UNL     1       1.213  -2.061  -0.414  0.00  0.00    +0.003 A 
ATOM     28  C   UNL     1       0.035  -2.605  -0.889  0.00  0.00    +0.000 A 
ATOM     29  C   UNL     1      -1.157  -2.350  -0.236  0.00  0.00    +0.000 A 
ATOM     30  C   UNL     1      -1.170  -1.552   0.892  0.00  0.00    +0.005 A 
ATOM     31  C   UNL     1       0.010  -1.012   1.371  0.00  0.00    -0.027 A 
ENDBRANCH  24  31
ENDBRANCH   1  24
TORSDOF 5
