REMARK  Name = ZINC15947084
REMARK  8 active torsions:
REMARK  status: ('A' for Active; 'I' for Inactive)
REMARK    1  A    between atoms: C_1  and  C_2
REMARK    2  A    between atoms: C_2  and  C_3
REMARK    3  A    between atoms: C_2  and  N_4
REMARK    4  A    between atoms: C_12  and  O_32
REMARK    5  A    between atoms: C_14  and  C_17
REMARK    6  A    between atoms: C_19  and  C_24
REMARK    7  A    between atoms: C_22  and  O_23
REMARK    8  A    between atoms: C_24  and  C_25
REMARK                            x       y       z     vdW  Elec       q    Type
REMARK                         _______ _______ _______ _____ _____    ______ ____
ROOT
ATOM      1  N   UNL     1       0.637  -0.213  -1.306  0.00  0.00    +0.384 N 
ATOM      2  C   UNL     1       0.579  -1.639  -1.655  0.00  0.00    -0.073 C 
ATOM      3  C   UNL     1       0.945  -1.837  -3.130  0.00  0.00    +0.018 C 
ATOM      4  C   UNL     1       2.272  -1.135  -3.382  0.00  0.00    -0.027 A 
ATOM      5  C   UNL     1       2.728  -0.212  -2.500  0.00  0.00    -0.021 A 
ATOM      6  S   UNL     1       4.271   0.332  -3.176  0.00  0.00    -0.080 S 
ATOM      7  C   UNL     1       4.313  -0.600  -4.548  0.00  0.00    +0.080 A 
ATOM      8  C   UNL     1       3.139  -1.363  -4.520  0.00  0.00    +0.067 A 
ATOM      9  C   UNL     1       2.915  -2.316  -5.638  0.00  0.00    +0.220 C 
ATOM     10  N   UNL     1       3.681  -2.208  -6.689  0.00  0.00    -0.223 NA
ATOM     11  C   UNL     1       4.697  -1.178  -6.869  0.00  0.00    +0.227 C 
ATOM     12  N   UNL     1       5.223  -0.702  -5.576  0.00  0.00    -0.313 N 
ATOM     13  C   UNL     1       2.044   0.224  -1.244  0.00  0.00    -0.035 C 
ATOM     14  H   UNL     1       6.158  -0.474  -5.456  0.00  0.00    +0.149 HD
ATOM     15  H   UNL     1       0.149   0.324  -2.006  0.00  0.00    -0.081 HD
ENDROOT
BRANCH  11  16
ATOM     16  C   UNL     1       4.093  -0.014  -7.611  0.00  0.00    +0.036 A 
ATOM     17  C   UNL     1       2.998  -0.210  -8.430  0.00  0.00    +0.015 A 
ATOM     18  C   UNL     1       2.443   0.857  -9.111  0.00  0.00    -0.042 A 
ATOM     19  C   UNL     1       2.982   2.123  -8.975  0.00  0.00    +0.007 A 
ATOM     20  C   UNL     1       4.077   2.324  -8.157  0.00  0.00    +0.046 A 
ATOM     21  C   UNL     1       4.632   1.256  -7.468  0.00  0.00    +0.124 A 
BRANCH  21  22
ATOM     22  O   UNL     1       5.706   1.452  -6.659  0.00  0.00    -0.506 OA
ATOM     23  H   UNL     1       6.558   1.355  -7.105  0.00  0.00    +0.292 HD
ENDBRANCH  21  22
BRANCH  18  24
ATOM     24  C   UNL     1       1.249   0.640 -10.005  0.00  0.00    +0.071 C 
BRANCH  24  25
ATOM     25  C   UNL     1      -0.016   0.819  -9.205  0.00  0.00    -0.025 A 
ATOM     26  C   UNL     1      -0.642  -0.281  -8.647  0.00  0.00    +0.005 A 
ATOM     27  C   UNL     1      -1.802  -0.117  -7.913  0.00  0.00    +0.000 A 
ATOM     28  C   UNL     1      -2.337   1.145  -7.737  0.00  0.00    +0.001 A 
ATOM     29  C   UNL     1      -1.712   2.245  -8.294  0.00  0.00    +0.020 A 
ATOM     30  C   UNL     1      -0.548   2.083  -9.024  0.00  0.00    +0.044 A 
ATOM     31 CL   UNL     1       0.241   3.464  -9.718  0.00  0.00    -0.083 Cl
ENDBRANCH  24  25
ENDBRANCH  18  24
ENDBRANCH  11  16
BRANCH   1  33
ATOM     32  C   UNL     1       0.150   1.462   0.412  0.00  0.00    -0.014 C 
ATOM     33  C   UNL     1       0.002  -0.004   0.002  0.00  0.00    -0.074 C 
ATOM     34  C   UNL     1      -1.483  -0.360  -0.089  0.00  0.00    -0.014 C 
ENDBRANCH   1  33
BRANCH   9  35
ATOM     35  O   UNL     1       1.951  -3.262  -5.569  0.00  0.00    -0.492 OA
ATOM     36  H   UNL     1       1.896  -3.826  -6.353  0.00  0.00    +0.294 HD
ENDBRANCH   9  35
TORSDOF 6
