REMARK  Name = ZINC01580260
REMARK  8 active torsions:
REMARK  status: ('A' for Active; 'I' for Inactive)
REMARK    1  A    between atoms: C_1  and  O_2
REMARK    2  A    between atoms: O_2  and  C_3
REMARK    3  A    between atoms: C_15  and  C_22
REMARK    4  A    between atoms: C_17  and  C_20
REMARK    5  A    between atoms: C_20  and  O_21
REMARK    6  A    between atoms: C_25  and  O_30
REMARK    7  A    between atoms: C_26  and  O_28
REMARK    8  A    between atoms: O_28  and  C_29
REMARK                            x       y       z     vdW  Elec       q    Type
REMARK                         _______ _______ _______ _____ _____    ______ ____
ROOT
ATOM      1  C   UNL     1      -4.147   1.068   0.043  0.00  0.00    +0.166 A 
ATOM      2  C   UNL     1      -4.833   1.163   1.235  0.00  0.00    +0.061 A 
ATOM      3  C   UNL     1      -4.129   1.387   2.424  0.00  0.00    +0.025 A 
ATOM      4  C   UNL     1      -4.835   1.492   3.704  0.00  0.00    +0.019 A 
ATOM      5  C   UNL     1      -4.090   1.710   4.820  0.00  0.00    +0.092 A 
ATOM      6  C   UNL     1      -2.691   1.826   4.711  0.00  0.00    +0.337 A 
ATOM      7  O   UNL     1      -2.042   2.021   5.724  0.00  0.00    -0.245 OA
ATOM      8  O   UNL     1      -2.044   1.732   3.546  0.00  0.00    -0.418 OA
ATOM      9  C   UNL     1      -2.730   1.516   2.404  0.00  0.00    +0.184 A 
ATOM     10  C   UNL     1      -2.051   1.419   1.190  0.00  0.00    +0.209 A 
ATOM     11  C   UNL     1      -2.755   1.195   0.018  0.00  0.00    +0.208 A 
ATOM     12  O   UNL     1      -2.105   1.093  -1.175  0.00  0.00    -0.473 OA
ATOM     13  C   UNL     1      -0.767   1.600  -1.225  0.00  0.00    +0.247 C 
ATOM     14  C   UNL     1      -0.013   1.086   0.008  0.00  0.00    +0.244 C 
ATOM     15  O   UNL     1      -0.695   1.553   1.177  0.00  0.00    -0.475 OA
ENDROOT
BRANCH  13  16
ATOM     16  C   UNL     1      -0.086   1.113  -2.478  0.00  0.00    -0.000 A 
ATOM     17  C   UNL     1      -0.386  -0.138  -2.984  0.00  0.00    +0.011 A 
ATOM     18  C   UNL     1       0.236  -0.590  -4.133  0.00  0.00    +0.049 A 
ATOM     19  C   UNL     1       1.162   0.212  -4.781  0.00  0.00    +0.158 A 
ATOM     20  C   UNL     1       1.464   1.472  -4.271  0.00  0.00    +0.162 A 
ATOM     21  C   UNL     1       0.833   1.920  -3.122  0.00  0.00    +0.056 A 
BRANCH  20  22
ATOM     22  O   UNL     1       2.372   2.263  -4.903  0.00  0.00    -0.491 OA
ATOM     23  C   UNL     1       2.632   3.542  -4.324  0.00  0.00    +0.277 C 
ENDBRANCH  20  22
BRANCH  19  24
ATOM     24  O   UNL     1       1.774  -0.230  -5.912  0.00  0.00    -0.503 OA
ATOM     25  H   UNL     1       1.304  -0.005  -6.727  0.00  0.00    +0.292 HD
ENDBRANCH  19  24
ENDBRANCH  13  16
BRANCH   1  27
ATOM     26  C   UNL     1      -6.249   0.729  -1.018  0.00  0.00    +0.277 C 
ATOM     27  O   UNL     1      -4.828   0.849  -1.114  0.00  0.00    -0.491 OA
ENDBRANCH   1  27
BRANCH  14  28
ATOM     28  C   UNL     1       1.420   1.622  -0.003  0.00  0.00    +0.204 C 
BRANCH  28  29
ATOM     29  O   UNL     1       2.148   1.059   1.091  0.00  0.00    -0.391 OA
ATOM     30  H   UNL     1       3.067   1.355   1.146  0.00  0.00    +0.210 HD
ENDBRANCH  28  29
ENDBRANCH  14  28
TORSDOF 6
