REMARK  Name = ZINC14538881
REMARK  9 active torsions:
REMARK  status: ('A' for Active; 'I' for Inactive)
REMARK    1  A    between atoms: C_1  and  C_2
REMARK    2  A    between atoms: C_2  and  O_3
REMARK    3  A    between atoms: O_3  and  C_4
REMARK    4  A    between atoms: C_4  and  C_6
REMARK    5  A    between atoms: N_9  and  C_11
REMARK    6  A    between atoms: C_11  and  C_12
REMARK    7  A    between atoms: C_12  and  C_13
REMARK    8  A    between atoms: C_14  and  C_18
REMARK    9  A    between atoms: C_23  and  C_25
REMARK                            x       y       z     vdW  Elec       q    Type
REMARK                         _______ _______ _______ _____ _____    ______ ____
ROOT
ATOM      1  C   UNL     1       1.676   0.756  -3.188  0.00  0.00    +0.174 A 
ATOM      2  C   UNL     1       0.799  -0.300  -3.482  0.00  0.00    +0.025 A 
ATOM      3  C   UNL     1      -0.107  -0.328  -2.474  0.00  0.00    +0.046 A 
ATOM      4  N   UNL     1       0.214   0.665  -1.627  0.00  0.00    -0.267 N 
ATOM      5  N   UNL     1       1.254   1.294  -2.055  0.00  0.00    -0.164 NA
ATOM      6  C   UNL     1      -1.239  -1.318  -2.377  0.00  0.00    +0.074 C 
ATOM      7  C   UNL     1      -1.464  -1.946  -3.759  0.00  0.00    +0.114 C 
ATOM      8  N   UNL     1      -0.167  -2.320  -4.340  0.00  0.00    -0.291 N 
ATOM      9  C   UNL     1       0.796  -1.247  -4.652  0.00  0.00    +0.147 C 
ATOM     10  C   UNL     1       0.136  -3.611  -4.582  0.00  0.00    +0.267 C 
ATOM     11  O   UNL     1      -0.619  -4.491  -4.216  0.00  0.00    -0.268 OA
ENDROOT
BRANCH  10  12
ATOM     12  C   UNL     1       1.381  -3.956  -5.291  0.00  0.00    +0.145 A 
ATOM     13  C   UNL     1       1.871  -5.210  -5.485  0.00  0.00    +0.126 A 
ATOM     14  N   UNL     1       3.053  -5.094  -6.192  0.00  0.00    -0.300 N 
ATOM     15  C   UNL     1       4.026  -5.928  -6.703  0.00  0.00    +0.100 A 
ATOM     16  C   UNL     1       5.074  -5.433  -7.359  0.00  0.00    +0.067 A 
ATOM     17  S   UNL     1       4.751  -3.677  -7.302  0.00  0.00    -0.058 S 
ATOM     18  C   UNL     1       3.224  -3.747  -6.395  0.00  0.00    +0.178 A 
ATOM     19  N   UNL     1       2.240  -3.079  -5.871  0.00  0.00    -0.217 NA
ENDBRANCH  10  12
BRANCH   1  20
ATOM     20  C   UNL     1       2.839   1.186  -3.988  0.00  0.00    +0.360 C 
ATOM     21  O   UNL     1       3.116   0.605  -5.018  0.00  0.00    -0.243 OA
BRANCH  20  22
ATOM     22  O   UNL     1       3.594   2.224  -3.577  0.00  0.00    -0.460 OA
BRANCH  22  24
ATOM     23  C   UNL     1       5.454   3.781  -3.790  0.00  0.00    +0.048 C 
ATOM     24  C   UNL     1       4.722   2.591  -4.414  0.00  0.00    +0.229 C 
ENDBRANCH  22  24
ENDBRANCH  20  22
ENDBRANCH   1  20
BRANCH   4  25
ATOM     25  C   UNL     1      -0.515   0.990  -0.398  0.00  0.00    +0.149 C 
BRANCH  25  26
ATOM     26  C   UNL     1       0.075   0.197   0.770  0.00  0.00    +0.067 C 
BRANCH  26  27
ATOM     27  C   UNL     1      -0.676   0.531   2.033  0.00  0.00    +0.014 A 
ATOM     28  C   UNL     1      -1.776  -0.056   2.569  0.00  0.00    +0.049 A 
ATOM     29  N   UNL     1      -2.253   0.423   3.699  0.00  0.00    -0.252 NA
ATOM     30  C   UNL     1      -1.689   1.443   4.303  0.00  0.00    +0.156 A 
ATOM     31  S   UNL     1      -0.360   1.805   3.246  0.00  0.00    -0.080 S 
ATOM     32  C   UNL     1      -2.434  -1.228   1.888  0.00  0.00    +0.066 C 
ENDBRANCH  26  27
ENDBRANCH  25  26
ENDBRANCH   4  25
TORSDOF 7
