REMARK  Name = ZINC16038903
REMARK  8 active torsions:
REMARK  status: ('A' for Active; 'I' for Inactive)
REMARK    1  A    between atoms: C_1  and  C_2
REMARK    2  A    between atoms: C_2  and  C_3
REMARK    3  A    between atoms: C_2  and  C_4
REMARK    4  A    between atoms: C_2  and  C_5
REMARK    5  A    between atoms: C_5  and  C_7
REMARK    6  A    between atoms: C_9  and  C_32
REMARK    7  A    between atoms: C_32  and  C_34
REMARK    8  A    between atoms: C_38  and  N_40
REMARK                            x       y       z     vdW  Elec       q    Type
REMARK                         _______ _______ _______ _____ _____    ______ ____
ROOT
ATOM      1  C   UNL     1       1.409   3.138   0.419  0.00  0.00    +0.153 C 
ATOM      2  C   UNL     1       0.543   3.225   1.707  0.00  0.00    +0.109 C 
ATOM      3  C   UNL     1       0.054   1.781   1.945  0.00  0.00    +0.108 C 
ATOM      4  C   UNL     1      -1.432   1.714   2.037  0.00  0.00    -0.008 A 
ATOM      5  C   UNL     1      -2.426   2.050   1.144  0.00  0.00    +0.006 A 
ATOM      6  C   UNL     1      -3.740   1.857   1.558  0.00  0.00    +0.000 A 
ATOM      7  C   UNL     1      -4.033   1.351   2.808  0.00  0.00    +0.002 A 
ATOM      8  C   UNL     1      -3.039   1.010   3.712  0.00  0.00    +0.023 A 
ATOM      9  C   UNL     1      -1.716   1.199   3.310  0.00  0.00    +0.038 A 
ATOM     10  N   UNL     1      -0.543   0.947   4.000  0.00  0.00    -0.284 N 
ATOM     11  C   UNL     1       0.550   1.262   3.271  0.00  0.00    +0.231 C 
ATOM     12  O   UNL     1       1.708   1.150   3.616  0.00  0.00    -0.274 OA
ATOM     13  C   UNL     1       0.609   0.981   0.777  0.00  0.00    +0.117 C 
ATOM     14  N   UNL     1       1.832   1.733   0.384  0.00  0.00    -0.311 N 
ATOM     15  C   UNL     1       2.321   1.219  -0.794  0.00  0.00    +0.038 A 
ATOM     16  C   UNL     1       2.761   1.999  -1.845  0.00  0.00    +0.024 A 
ATOM     17  C   UNL     1       3.221   1.398  -3.003  0.00  0.00    +0.002 A 
ATOM     18  C   UNL     1       3.244   0.019  -3.118  0.00  0.00    +0.001 A 
ATOM     19  C   UNL     1       2.811  -0.777  -2.076  0.00  0.00    +0.010 A 
ATOM     20  C   UNL     1       2.349  -0.188  -0.906  0.00  0.00    -0.004 A 
ATOM     21  C   UNL     1       1.879  -1.002   0.240  0.00  0.00    +0.007 C 
ATOM     22  C   UNL     1       1.006  -0.429   1.090  0.00  0.00    -0.003 C 
ATOM     23  H   UNL     1      -0.509   0.588   4.901  0.00  0.00    +0.155 HD
ENDROOT
BRANCH   1  24
ATOM     24  C   UNL     1       2.605   4.050   0.521  0.00  0.00    +0.160 C 
ATOM     25  O   UNL     1       3.647   3.631   0.964  0.00  0.00    -0.295 OA
BRANCH  24  27
ATOM     26  C   UNL     1       3.881   6.138   0.125  0.00  0.00    +0.018 C 
ATOM     27  C   UNL     1       2.500   5.484   0.069  0.00  0.00    +0.022 C 
ATOM     28  C   UNL     1       1.971   5.529  -1.366  0.00  0.00    +0.018 C 
ATOM     29  C   UNL     1       1.540   6.239   0.990  0.00  0.00    +0.018 C 
ENDBRANCH  24  27
ENDBRANCH   1  24
BRANCH   2  30
ATOM     30  C   UNL     1      -0.627   4.150   1.493  0.00  0.00    +0.170 C 
ATOM     31  O   UNL     1      -1.017   4.384   0.369  0.00  0.00    -0.292 OA
BRANCH  30  32
ATOM     32  C   UNL     1      -1.297   4.769   2.648  0.00  0.00    +0.020 A 
ATOM     33  C   UNL     1      -0.778   4.599   3.936  0.00  0.00    +0.011 A 
ATOM     34  C   UNL     1      -1.411   5.183   5.012  0.00  0.00    +0.003 A 
ATOM     35  C   UNL     1      -2.558   5.935   4.822  0.00  0.00    +0.033 A 
ATOM     36  C   UNL     1      -3.077   6.107   3.551  0.00  0.00    +0.127 A 
ATOM     37  C   UNL     1      -2.452   5.535   2.463  0.00  0.00    +0.044 A 
BRANCH  36  38
ATOM     38  N   UNL     1      -4.303   6.914   3.358  0.00  0.00    +0.056 N 
ATOM     39  O   UNL     1      -4.853   7.425   4.317  0.00  0.00    -0.126 OA
ATOM     40  O   UNL     1      -4.762   7.066   2.240  0.00  0.00    -0.126 OA
ENDBRANCH  36  38
ENDBRANCH  30  32
ENDBRANCH   2  30
TORSDOF 5
