REMARK  Name = ZINC03871832
REMARK  21 active torsions:
REMARK  status: ('A' for Active; 'I' for Inactive)
REMARK    1  A    between atoms: C_1  and  C_2
REMARK    2  A    between atoms: C_2  and  C_3
REMARK    3  A    between atoms: C_2  and  C_4
REMARK    4  A    between atoms: C_4  and  C_5
REMARK    5  A    between atoms: C_4  and  C_22
REMARK    6  A    between atoms: C_4  and  C_24
REMARK    7  A    between atoms: C_5  and  C_6
REMARK    8  A    between atoms: C_6  and  C_7
REMARK    9  A    between atoms: C_7  and  N_8
REMARK   10  A    between atoms: N_8  and  C_9
REMARK   11  A    between atoms: N_8  and  C_10
REMARK   12  A    between atoms: C_10  and  C_11
REMARK   13  A    between atoms: C_11  and  C_12
REMARK   14  A    between atoms: C_15  and  O_20
REMARK   15  A    between atoms: C_16  and  O_18
REMARK   16  A    between atoms: O_18  and  C_19
REMARK   17  A    between atoms: O_20  and  C_21
REMARK   18  A    between atoms: C_27  and  O_32
REMARK   19  A    between atoms: C_28  and  O_30
REMARK   20  A    between atoms: O_30  and  C_31
REMARK   21  A    between atoms: O_32  and  C_33
REMARK                            x       y       z     vdW  Elec       q    Type
REMARK                         _______ _______ _______ _____ _____    ______ ____
ROOT
ATOM      1  C   UNL     1      -2.430   0.243   0.716  0.00  0.00    +0.025 C 
ENDROOT
BRANCH   1   2
ATOM      2  C   UNL     1      -1.441  -0.412  -0.251  0.00  0.00    +0.085 C 
BRANCH   2   3
ATOM      3  C   UNL     1      -1.744   0.033  -1.658  0.00  0.00    -0.024 A 
ATOM      4  C   UNL     1      -0.734   0.547  -2.451  0.00  0.00    +0.009 A 
ATOM      5  C   UNL     1      -1.007   0.957  -3.743  0.00  0.00    +0.050 A 
ATOM      6  C   UNL     1      -2.294   0.853  -4.246  0.00  0.00    +0.162 A 
ATOM      7  C   UNL     1      -3.310   0.336  -3.448  0.00  0.00    +0.162 A 
ATOM      8  C   UNL     1      -3.029  -0.078  -2.155  0.00  0.00    +0.054 A 
BRANCH   7   9
ATOM      9  O   UNL     1      -4.575   0.232  -3.936  0.00  0.00    -0.491 OA
ATOM     10  C   UNL     1      -5.566  -0.309  -3.061  0.00  0.00    +0.277 C 
ENDBRANCH   7   9
BRANCH   6  11
ATOM     11  O   UNL     1      -2.564   1.257  -5.516  0.00  0.00    -0.491 OA
ATOM     12  C   UNL     1      -1.473   1.778  -6.277  0.00  0.00    +0.277 C 
ENDBRANCH   6  11
ENDBRANCH   2   3
BRANCH   2  14
ATOM     13  C   UNL     1       0.980  -0.726  -0.786  0.00  0.00    +0.009 C 
ATOM     14  C   UNL     1      -0.015   0.003   0.120  0.00  0.00    +0.007 C 
ATOM     15  C   UNL     1       0.140   1.514  -0.064  0.00  0.00    +0.009 C 
ENDBRANCH   2  14
BRANCH   2  16
ATOM     16  C   UNL     1      -1.564  -1.876  -0.162  0.00  0.00    +0.074 C 
ATOM     17  N   UNL     1      -1.660  -3.006  -0.094  0.00  0.00    -0.196 NA
ENDBRANCH   2  16
ENDBRANCH   1   2
BRANCH   1  18
ATOM     18  C   UNL     1      -2.150  -0.243   2.139  0.00  0.00    -0.017 C 
BRANCH  18  19
ATOM     19  C   UNL     1      -3.217   0.309   3.086  0.00  0.00    -0.079 C 
BRANCH  19  20
ATOM     20  N   UNL     1      -2.949  -0.158   4.452  0.00  0.00    +0.378 N 
ATOM     21  C   UNL     1      -1.679   0.412   4.923  0.00  0.00    -0.096 C 
ATOM     22  H   UNL     1      -2.888  -1.165   4.458  0.00  0.00    -0.082 HD
BRANCH  20  23
ATOM     23  C   UNL     1      -4.038   0.272   5.340  0.00  0.00    -0.075 C 
BRANCH  23  24
ATOM     24  C   UNL     1      -3.822  -0.318   6.735  0.00  0.00    +0.017 C 
BRANCH  24  25
ATOM     25  C   UNL     1      -4.939   0.123   7.645  0.00  0.00    -0.045 A 
ATOM     26  C   UNL     1      -4.818   1.295   8.368  0.00  0.00    +0.007 A 
ATOM     27  C   UNL     1      -5.840   1.704   9.204  0.00  0.00    +0.049 A 
ATOM     28  C   UNL     1      -6.989   0.939   9.319  0.00  0.00    +0.161 A 
ATOM     29  C   UNL     1      -7.112  -0.241   8.590  0.00  0.00    +0.162 A 
ATOM     30  C   UNL     1      -6.086  -0.642   7.750  0.00  0.00    +0.053 A 
BRANCH  29  31
ATOM     31  O   UNL     1      -8.238  -0.995   8.699  0.00  0.00    -0.491 OA
ATOM     32  C   UNL     1      -8.294  -2.193   7.922  0.00  0.00    +0.277 C 
ENDBRANCH  29  31
BRANCH  28  33
ATOM     33  O   UNL     1      -7.995   1.339  10.141  0.00  0.00    -0.491 OA
ATOM     34  C   UNL     1      -7.800   2.560  10.858  0.00  0.00    +0.277 C 
ENDBRANCH  28  33
ENDBRANCH  24  25
ENDBRANCH  23  24
ENDBRANCH  20  23
ENDBRANCH  19  20
ENDBRANCH  18  19
ENDBRANCH   1  18
TORSDOF 14
