REMARK  Name = ZINC35955485
REMARK  7 active torsions:
REMARK  status: ('A' for Active; 'I' for Inactive)
REMARK    1  A    between atoms: C_1  and  O_2
REMARK    2  A    between atoms: O_2  and  C_3
REMARK    3  A    between atoms: C_6  and  C_9
REMARK    4  A    between atoms: C_13  and  N_28
REMARK    5  A    between atoms: N_18  and  C_21
REMARK    6  A    between atoms: C_19  and  N_20
REMARK    7  A    between atoms: C_21  and  C_22
REMARK                            x       y       z     vdW  Elec       q    Type
REMARK                         _______ _______ _______ _____ _____    ______ ____
ROOT
ATOM      1  C   UNL     1      -4.962  -2.619   0.035  0.00  0.00    +0.028 A 
ATOM      2  C   UNL     1      -5.365  -3.436   1.187  0.00  0.00    -0.002 A 
ATOM      3  C   UNL     1      -4.541  -3.592   2.302  0.00  0.00    +0.011 A 
ATOM      4  C   UNL     1      -4.958  -4.361   3.351  0.00  0.00    +0.023 A 
ATOM      5  C   UNL     1      -6.200  -4.996   3.322  0.00  0.00    +0.025 A 
ATOM      6  C   UNL     1      -7.036  -4.859   2.228  0.00  0.00    +0.036 A 
ATOM      7  C   UNL     1      -6.626  -4.075   1.147  0.00  0.00    +0.049 A 
ATOM      8  C   UNL     1      -7.470  -3.893  -0.036  0.00  0.00    +0.261 A 
ATOM      9  O   UNL     1      -8.561  -4.431  -0.098  0.00  0.00    -0.267 OA
ATOM     10  N   UNL     1      -7.035  -3.129  -1.056  0.00  0.00    -0.293 N 
ATOM     11  C   UNL     1      -5.823  -2.499  -1.034  0.00  0.00    +0.107 A 
ENDROOT
BRANCH   1  15
ATOM     12  C   UNL     1      -1.201  -0.638   0.010  0.00  0.00    +0.120 A 
ATOM     13  C   UNL     1      -2.374   0.104   0.019  0.00  0.00    +0.046 A 
ATOM     14  C   UNL     1      -3.596  -0.535   0.028  0.00  0.00    +0.012 A 
ATOM     15  C   UNL     1      -3.652  -1.929   0.026  0.00  0.00    -0.014 A 
ATOM     16  C   UNL     1      -2.471  -2.671   0.016  0.00  0.00    +0.012 A 
ATOM     17  C   UNL     1      -1.252  -2.025   0.003  0.00  0.00    +0.046 A 
BRANCH  12  19
ATOM     18  C   UNL     1      -0.017   1.425   0.010  0.00  0.00    +0.277 C 
ATOM     19  O   UNL     1       0.002  -0.004   0.002  0.00  0.00    -0.495 OA
ENDBRANCH  12  19
ENDBRANCH   1  15
BRANCH  11  20
ATOM     20  N   UNL     1      -5.448  -1.727  -2.114  0.00  0.00    -0.344 N 
ATOM     21  H   UNL     1      -4.588  -1.278  -2.114  0.00  0.00    +0.144 HD
ATOM     22  H   UNL     1      -6.044  -1.634  -2.874  0.00  0.00    +0.144 HD
ENDBRANCH  11  20
BRANCH   5  23
ATOM     23  N   UNL     1      -6.604  -5.780   4.408  0.00  0.00    -0.358 N 
ATOM     24  H   UNL     1      -6.021  -5.879   5.177  0.00  0.00    +0.142 HD
ATOM     25  H   UNL     1      -7.467  -6.223   4.392  0.00  0.00    +0.142 HD
ENDBRANCH   5  23
BRANCH  10  26
ATOM     26  C   UNL     1      -7.897  -2.962  -2.230  0.00  0.00    +0.158 C 
BRANCH  26  27
ATOM     27  C   UNL     1      -8.802  -1.745  -2.029  0.00  0.00    +0.138 C 
ATOM     28  C   UNL     1      -9.747  -1.571  -3.244  0.00  0.00    +0.035 C 
ATOM     29  C   UNL     1     -10.922  -0.789  -2.595  0.00  0.00    +0.031 C 
ATOM     30  C   UNL     1     -10.958  -1.378  -1.169  0.00  0.00    +0.160 C 
ATOM     31  O   UNL     1      -9.671  -1.951  -0.903  0.00  0.00    -0.375 OA
ENDBRANCH  26  27
ENDBRANCH  10  26
TORSDOF 6
