REMARK  Name = ZINC36145507
REMARK  14 active torsions:
REMARK  status: ('A' for Active; 'I' for Inactive)
REMARK    1  A    between atoms: C_1  and  O_2
REMARK    2  A    between atoms: O_2  and  C_3
REMARK    3  A    between atoms: C_6  and  C_9
REMARK    4  A    between atoms: C_9  and  C_10
REMARK    5  A    between atoms: C_9  and  C_18
REMARK    6  A    between atoms: C_9  and  O_39
REMARK    7  A    between atoms: C_13  and  O_16
REMARK    8  A    between atoms: O_16  and  C_17
REMARK    9  A    between atoms: C_21  and  C_23
REMARK   10  A    between atoms: C_23  and  N_24
REMARK   11  A    between atoms: N_24  and  C_25
REMARK   12  A    between atoms: N_24  and  C_32
REMARK   13  A    between atoms: C_25  and  C_26
REMARK   14  A    between atoms: C_32  and  C_33
REMARK                            x       y       z     vdW  Elec       q    Type
REMARK                         _______ _______ _______ _____ _____    ______ ____
ROOT
ATOM      1  C   UNL     1       3.459  -2.934  -5.621  0.00  0.00    +0.146 A 
ATOM      2  C   UNL     1       3.843  -2.726  -6.893  0.00  0.00    +0.048 A 
ATOM      3  C   UNL     1       2.663  -2.636  -7.667  0.00  0.00    +0.043 A 
ATOM      4  C   UNL     1       1.629  -2.794  -6.821  0.00  0.00    +0.089 A 
ATOM      5  O   UNL     1       2.118  -2.980  -5.584  0.00  0.00    -0.463 OA
ENDROOT
BRANCH   1   6
ATOM      6  C   UNL     1       4.380  -3.094  -4.438  0.00  0.00    +0.174 C 
BRANCH   6  10
ATOM      7  C   UNL     1       2.428  -1.670  -0.913  0.00  0.00    +0.120 A 
ATOM      8  C   UNL     1       3.614  -1.086  -1.335  0.00  0.00    +0.046 A 
ATOM      9  C   UNL     1       4.243  -1.549  -2.474  0.00  0.00    +0.011 A 
ATOM     10  C   UNL     1       3.692  -2.592  -3.195  0.00  0.00    -0.004 A 
ATOM     11  C   UNL     1       2.510  -3.175  -2.777  0.00  0.00    +0.011 A 
ATOM     12  C   UNL     1       1.880  -2.721  -1.634  0.00  0.00    +0.046 A 
BRANCH   7  14
ATOM     13  C   UNL     1       2.429  -0.133   0.901  0.00  0.00    +0.277 C 
ATOM     14  O   UNL     1       1.808  -1.217   0.208  0.00  0.00    -0.495 OA
ENDBRANCH   7  14
ENDBRANCH   6  10
BRANCH   6  15
ATOM     15  C   UNL     1       4.728  -4.550  -4.266  0.00  0.00    -0.004 A 
ATOM     16  C   UNL     1       3.774  -5.521  -4.509  0.00  0.00    +0.011 A 
ATOM     17  C   UNL     1       4.091  -6.857  -4.352  0.00  0.00    +0.046 A 
ATOM     18  C   UNL     1       5.367  -7.223  -3.951  0.00  0.00    +0.120 A 
ATOM     19  C   UNL     1       6.323  -6.247  -3.708  0.00  0.00    +0.046 A 
ATOM     20  C   UNL     1       6.003  -4.913  -3.872  0.00  0.00    +0.011 A 
BRANCH  18  21
ATOM     21  O   UNL     1       5.681  -8.536  -3.796  0.00  0.00    -0.495 OA
ATOM     22  C   UNL     1       7.014  -8.840  -3.380  0.00  0.00    +0.277 C 
ENDBRANCH  18  21
ENDBRANCH   6  15
BRANCH   6  23
ATOM     23  O   UNL     1       5.574  -2.341  -4.659  0.00  0.00    -0.372 OA
ATOM     24  H   UNL     1       5.425  -1.393  -4.778  0.00  0.00    +0.212 HD
ENDBRANCH   6  23
ENDBRANCH   1   6
BRANCH   4  25
ATOM     25  C   UNL     1       0.171  -2.772  -7.199  0.00  0.00    -0.003 C 
BRANCH  25  26
ATOM     26  N   UNL     1      -0.269  -4.133  -7.535  0.00  0.00    +0.389 N 
ATOM     27  H   UNL     1       0.328  -4.511  -8.256  0.00  0.00    -0.081 HD
BRANCH  26  28
ATOM     28  C   UNL     1      -1.656  -4.095  -8.017  0.00  0.00    -0.042 C 
BRANCH  28  29
ATOM     29  C   UNL     1      -1.709  -3.368  -9.336  0.00  0.00    -0.064 A 
ATOM     30  C   UNL     1      -2.040  -2.027  -9.374  0.00  0.00    +0.002 A 
ATOM     31  C   UNL     1      -2.089  -1.360 -10.584  0.00  0.00    +0.000 A 
ATOM     32  C   UNL     1      -1.806  -2.035 -11.757  0.00  0.00    +0.000 A 
ATOM     33  C   UNL     1      -1.474  -3.377 -11.719  0.00  0.00    +0.000 A 
ATOM     34  C   UNL     1      -1.421  -4.042 -10.509  0.00  0.00    +0.002 A 
ENDBRANCH  28  29
ENDBRANCH  26  28
BRANCH  26  35
ATOM     35  C   UNL     1      -0.190  -4.982  -6.339  0.00  0.00    -0.046 C 
BRANCH  35  36
ATOM     36  C   UNL     1      -0.522  -6.427  -6.717  0.00  0.00    +0.102 C 
ATOM     37  C   UNL     1      -0.403  -7.335  -5.473  0.00  0.00    +0.032 C 
ATOM     38  C   UNL     1       0.240  -8.619  -6.063  0.00  0.00    +0.030 C 
ATOM     39  C   UNL     1       1.153  -8.015  -7.159  0.00  0.00    +0.160 C 
ATOM     40  O   UNL     1       0.413  -6.902  -7.692  0.00  0.00    -0.378 OA
ENDBRANCH  35  36
ENDBRANCH  26  35
ENDBRANCH  25  26
ENDBRANCH   4  25
TORSDOF 12
