REMARK  Name = ZINC38568500
REMARK  5 active torsions:
REMARK  status: ('A' for Active; 'I' for Inactive)
REMARK    1  A    between atoms: C_4  and  C_7
REMARK    2  A    between atoms: C_7  and  C_8
REMARK    3  A    between atoms: C_7  and  N_14
REMARK    4  A    between atoms: N_23  and  S_27
REMARK    5  A    between atoms: S_27  and  C_30
REMARK                            x       y       z     vdW  Elec       q    Type
REMARK                         _______ _______ _______ _____ _____    ______ ____
ROOT
ATOM      1  N   UNL     1       6.737  -2.127  -1.500  0.00  0.00    -0.288 N 
ATOM      2  C   UNL     1       5.465  -2.567  -1.575  0.00  0.00    +0.303 C 
ATOM      3  O   UNL     1       4.617  -2.105  -0.836  0.00  0.00    -0.253 OA
ATOM      4  N   UNL     1       5.133  -3.519  -2.469  0.00  0.00    -0.285 N 
ATOM      5  C   UNL     1       3.731  -3.919  -2.651  0.00  0.00    +0.113 C 
ATOM      6  C   UNL     1       3.626  -5.438  -2.482  0.00  0.00    +0.072 C 
ATOM      7  C   UNL     1       4.609  -6.123  -3.433  0.00  0.00    +0.145 C 
ATOM      8  C   UNL     1       6.040  -5.693  -3.106  0.00  0.00    +0.072 C 
ATOM      9  C   UNL     1       6.166  -4.172  -3.285  0.00  0.00    +0.113 C 
ATOM     10  N   UNL     1       4.288  -5.759  -4.822  0.00  0.00    -0.144 NA
ATOM     11  C   UNL     1       4.003  -7.031  -5.523  0.00  0.00    +0.140 C 
ATOM     12  C   UNL     1       4.707  -8.081  -4.627  0.00  0.00    +0.179 C 
ATOM     13  O   UNL     1       4.493  -7.548  -3.299  0.00  0.00    -0.356 OA
ATOM     14  H   UNL     1       7.427  -2.545  -2.038  0.00  0.00    +0.151 HD
ENDROOT
BRANCH  10  15
ATOM     15  S   UNL     1       4.253  -4.235  -5.469  0.00  0.00    +0.063 S 
ATOM     16  O   UNL     1       3.013  -4.113  -6.152  0.00  0.00    -0.153 OA
ATOM     17  O   UNL     1       4.644  -3.345  -4.433  0.00  0.00    -0.153 OA
BRANCH  15  18
ATOM     18  C   UNL     1       5.514  -4.162  -6.698  0.00  0.00    +0.106 A 
ATOM     19  C   UNL     1       6.747  -3.619  -6.391  0.00  0.00    +0.030 A 
ATOM     20  C   UNL     1       7.737  -3.561  -7.354  0.00  0.00    +0.022 A 
ATOM     21  C   UNL     1       7.492  -4.048  -8.626  0.00  0.00    +0.041 A 
ATOM     22  C   UNL     1       6.258  -4.591  -8.933  0.00  0.00    +0.022 A 
ATOM     23  C   UNL     1       5.271  -4.654  -7.967  0.00  0.00    +0.030 A 
ATOM     24 CL   UNL     1       8.734  -3.975  -9.837  0.00  0.00    -0.084 Cl
ENDBRANCH  15  18
ENDBRANCH  10  15
BRANCH   1  25
ATOM     25  C   UNL     1       7.076  -1.017  -0.605  0.00  0.00    +0.135 C 
BRANCH  25  29
ATOM     26  C   UNL     1      11.203  -1.268   0.469  0.00  0.00    +0.000 A 
ATOM     27  C   UNL     1      10.263  -0.905   1.416  0.00  0.00    +0.000 A 
ATOM     28  C   UNL     1       8.928  -0.824   1.068  0.00  0.00    +0.006 A 
ATOM     29  C   UNL     1       8.532  -1.105  -0.226  0.00  0.00    -0.023 A 
ATOM     30  C   UNL     1       9.472  -1.468  -1.173  0.00  0.00    +0.006 A 
ATOM     31  C   UNL     1      10.807  -1.550  -0.825  0.00  0.00    +0.000 A 
ENDBRANCH  25  29
BRANCH  25  32
ATOM     32  C   UNL     1       6.818   0.291  -1.307  0.00  0.00    -0.023 A 
ATOM     33  C   UNL     1       7.134   0.431  -2.646  0.00  0.00    +0.006 A 
ATOM     34  C   UNL     1       6.897   1.631  -3.290  0.00  0.00    +0.000 A 
ATOM     35  C   UNL     1       6.344   2.691  -2.595  0.00  0.00    +0.000 A 
ATOM     36  C   UNL     1       6.027   2.550  -1.257  0.00  0.00    +0.000 A 
ATOM     37  C   UNL     1       6.260   1.349  -0.614  0.00  0.00    +0.006 A 
ENDBRANCH  25  32
ENDBRANCH   1  25
TORSDOF 5
