REMARK  Name = ZINC10689467
REMARK  6 active torsions:
REMARK  status: ('A' for Active; 'I' for Inactive)
REMARK    1  A    between atoms: C_1  and  C_2
REMARK    2  A    between atoms: C_9  and  C_14
REMARK    3  A    between atoms: N_16  and  C_17
REMARK    4  A    between atoms: C_17  and  C_18
REMARK    5  A    between atoms: C_18  and  C_20
REMARK    6  A    between atoms: C_18  and  C_26
REMARK                            x       y       z     vdW  Elec       q    Type
REMARK                         _______ _______ _______ _____ _____    ______ ____
ROOT
ATOM      1  C   UNL     1       4.301   4.598   1.234  0.00  0.00    +0.117 C 
ENDROOT
BRANCH   1   4
ATOM      2  C   UNL     1       6.490   4.725   2.297  0.00  0.00    +0.244 C 
ATOM      3  O   UNL     1       5.991   5.401   3.177  0.00  0.00    -0.270 OA
ATOM      4  N   UNL     1       5.729   4.274   1.280  0.00  0.00    -0.310 N 
ATOM      5  H   UNL     1       6.127   3.735   0.579  0.00  0.00    +0.149 HD
BRANCH   2  13
ATOM      6  C   UNL     1      13.102   6.040   2.394  0.00  0.00    +0.029 C 
ATOM      7  C   UNL     1      13.042   4.847   3.350  0.00  0.00    +0.134 C 
ATOM      8  C   UNL     1      12.156   5.181   4.519  0.00  0.00    +0.230 C 
ATOM      9  O   UNL     1      12.676   5.613   5.527  0.00  0.00    -0.274 OA
ATOM     10  N   UNL     1      10.834   5.031   4.509  0.00  0.00    -0.284 N 
ATOM     11  C   UNL     1      10.066   4.563   3.446  0.00  0.00    +0.048 A 
ATOM     12  C   UNL     1       8.715   4.867   3.398  0.00  0.00    +0.037 A 
ATOM     13  C   UNL     1       7.928   4.399   2.344  0.00  0.00    +0.039 A 
ATOM     14  C   UNL     1       8.499   3.618   1.335  0.00  0.00    +0.014 A 
ATOM     15  C   UNL     1       9.843   3.321   1.377  0.00  0.00    +0.017 A 
ATOM     16  C   UNL     1      10.626   3.787   2.425  0.00  0.00    +0.030 A 
ATOM     17  S   UNL     1      12.349   3.406   2.484  0.00  0.00    -0.111 S 
ATOM     18  H   UNL     1      10.360   5.270   5.321  0.00  0.00    +0.155 HD
ENDBRANCH   2  13
ENDBRANCH   1   4
BRANCH   1  19
ATOM     19  C   UNL     1       3.676   3.969  -0.012  0.00  0.00    +0.068 C 
BRANCH  19  20
ATOM     20  C   UNL     1       2.186   4.197   0.004  0.00  0.00    -0.013 A 
ATOM     21  C   UNL     1       1.560   5.385   0.016  0.00  0.00    +0.088 A 
ATOM     22  N   UNL     1       0.205   5.198   0.028  0.00  0.00    -0.360 N 
ATOM     23  H   UNL     1      -0.455   5.909   0.038  0.00  0.00    +0.165 HD
ATOM     24  C   UNL     1      -0.082   3.852   0.024  0.00  0.00    +0.047 A 
ATOM     25  C   UNL     1       1.147   3.166   0.008  0.00  0.00    +0.003 A 
ATOM     26  C   UNL     1       1.165   1.770   0.000  0.00  0.00    +0.010 A 
ATOM     27  C   UNL     1      -0.013   1.076   0.008  0.00  0.00    +0.001 A 
ATOM     28  C   UNL     1      -1.227   1.748   0.017  0.00  0.00    +0.002 A 
ATOM     29  C   UNL     1      -1.268   3.125   0.031  0.00  0.00    +0.026 A 
ENDBRANCH  19  20
BRANCH  19  30
ATOM     30  C   UNL     1       4.268   4.602  -1.245  0.00  0.00    -0.038 A 
ATOM     31  C   UNL     1       4.131   5.961  -1.458  0.00  0.00    +0.004 A 
ATOM     32  C   UNL     1       4.678   6.543  -2.586  0.00  0.00    +0.000 A 
ATOM     33  C   UNL     1       5.353   5.763  -3.507  0.00  0.00    +0.000 A 
ATOM     34  C   UNL     1       5.486   4.404  -3.297  0.00  0.00    +0.000 A 
ATOM     35  C   UNL     1       4.943   3.823  -2.166  0.00  0.00    +0.004 A 
ENDBRANCH  19  30
ENDBRANCH   1  19
TORSDOF 5
