REMARK  Name = ZINC08597603
REMARK  13 active torsions:
REMARK  status: ('A' for Active; 'I' for Inactive)
REMARK    1  A    between atoms: C_1  and  C_2
REMARK    2  A    between atoms: C_2  and  C_3
REMARK    3  A    between atoms: C_3  and  C_4
REMARK    4  A    between atoms: C_4  and  S_5
REMARK    5  A    between atoms: S_5  and  C_6
REMARK    6  A    between atoms: C_6  and  C_7
REMARK    7  A    between atoms: C_7  and  C_8
REMARK    8  A    between atoms: C_8  and  N_9
REMARK    9  A    between atoms: C_10  and  C_12
REMARK   10  A    between atoms: N_15  and  C_18
REMARK   11  A    between atoms: C_18  and  C_19
REMARK   12  A    between atoms: C_20  and  C_31
REMARK   13  A    between atoms: C_22  and  C_24
REMARK                            x       y       z     vdW  Elec       q    Type
REMARK                         _______ _______ _______ _____ _____    ______ ____
ROOT
ATOM      1  C   UNL     1      -6.907  -9.313   0.018  0.00  0.00    +0.071 C 
ATOM      2  C   UNL     1      -7.666  -8.900   1.282  0.00  0.00    -0.006 C 
ATOM      3  C   UNL     1      -9.010  -9.629   1.325  0.00  0.00    -0.078 C 
ATOM      4  N   UNL     1      -8.784 -11.079   1.340  0.00  0.00    +0.383 N 
ATOM      5  C   UNL     1      -8.121 -11.493   0.098  0.00  0.00    -0.078 C 
ATOM      6  C   UNL     1      -6.742 -10.836   0.008  0.00  0.00    -0.006 C 
ATOM      7  H   UNL     1      -8.201 -11.320   2.128  0.00  0.00    -0.081 HD
ENDROOT
BRANCH   1   9
ATOM      8  N   UNL     1      -5.449  -7.315   0.015  0.00  0.00    -0.315 N 
ATOM      9  C   UNL     1      -5.549  -8.659   0.009  0.00  0.00    +0.216 C 
ATOM     10  O   UNL     1      -4.547  -9.342  -0.005  0.00  0.00    -0.276 OA
ATOM     11  H   UNL     1      -6.250  -6.769   0.025  0.00  0.00    +0.149 HD
BRANCH   8  12
ATOM     12  C   UNL     1      -4.129  -6.679   0.006  0.00  0.00    +0.105 C 
BRANCH  12  13
ATOM     13  C   UNL     1      -4.295  -5.159   0.015  0.00  0.00    +0.029 C 
BRANCH  13  14
ATOM     14  C   UNL     1      -2.917  -4.495   0.006  0.00  0.00    +0.070 C 
BRANCH  14  15
ATOM     15  S   UNL     1      -3.114  -2.691   0.017  0.00  0.00    -0.161 S 
BRANCH  15  16
ATOM     16  C   UNL     1      -1.413  -2.063   0.004  0.00  0.00    +0.069 C 
BRANCH  16  17
ATOM     17  C   UNL     1      -1.433  -0.534   0.013  0.00  0.00    +0.010 C 
BRANCH  17  19
ATOM     18  C   UNL     1      -0.019   1.526   0.010  0.00  0.00    +0.004 C 
ATOM     19  C   UNL     1       0.002  -0.004   0.002  0.00  0.00    -0.003 C 
ENDBRANCH  17  19
ENDBRANCH  16  17
ENDBRANCH  15  16
ENDBRANCH  14  15
ENDBRANCH  13  14
ENDBRANCH  12  13
ENDBRANCH   8  12
ENDBRANCH   1   9
BRANCH   4  20
ATOM     20  C   UNL     1     -10.073 -11.773   1.460  0.00  0.00    -0.019 C 
BRANCH  20  21
ATOM     21  C   UNL     1      -9.835 -13.255   1.599  0.00  0.00    +0.066 A 
ATOM     22  C   UNL     1      -9.747 -14.142   0.591  0.00  0.00    +0.124 A 
ATOM     23  O   UNL     1      -9.530 -15.353   1.141  0.00  0.00    -0.440 OA
ATOM     24  C   UNL     1      -9.489 -15.194   2.475  0.00  0.00    +0.228 A 
ATOM     25  N   UNL     1      -9.668 -13.924   2.750  0.00  0.00    -0.216 NA
ATOM     26  C   UNL     1      -9.868 -13.837  -0.880  0.00  0.00    +0.088 C 
BRANCH  24  27
ATOM     27  C   UNL     1      -9.272 -16.269   3.466  0.00  0.00    +0.038 A 
ATOM     28  C   UNL     1      -9.257 -15.973   4.830  0.00  0.00    +0.013 A 
ATOM     29  C   UNL     1      -9.054 -16.981   5.750  0.00  0.00    +0.002 A 
ATOM     30  C   UNL     1      -8.865 -18.283   5.324  0.00  0.00    +0.015 A 
ATOM     31  C   UNL     1      -8.878 -18.584   3.973  0.00  0.00    +0.019 A 
ATOM     32  C   UNL     1      -9.087 -17.586   3.042  0.00  0.00    +0.028 A 
ATOM     33 BR   UNL     1      -8.619 -20.368   3.401  0.00  0.00    -0.050 Br
ENDBRANCH  24  27
ENDBRANCH  20  21
ENDBRANCH   4  20
TORSDOF 11
