REMARK  Name = ZINC32440801
REMARK  7 active torsions:
REMARK  status: ('A' for Active; 'I' for Inactive)
REMARK    1  A    between atoms: C_1  and  C_2
REMARK    2  A    between atoms: C_2  and  C_4
REMARK    3  A    between atoms: C_2  and  N_20
REMARK    4  A    between atoms: C_4  and  N_5
REMARK    5  A    between atoms: N_5  and  S_6
REMARK    6  A    between atoms: S_6  and  C_9
REMARK    7  A    between atoms: N_23  and  C_26
REMARK                            x       y       z     vdW  Elec       q    Type
REMARK                         _______ _______ _______ _____ _____    ______ ____
ROOT
ATOM      1  N   UNL     1       0.873  -1.982   1.171  0.00  0.00    -0.188 NA
ATOM      2  H   UNL     1       0.325  -2.478   0.543  0.00  0.00    +0.148 HD
ENDROOT
BRANCH   1   3
ATOM      3  S   UNL     1       1.932  -2.786   2.158  0.00  0.00    +0.058 S 
ATOM      4  O   UNL     1       1.787  -4.170   1.869  0.00  0.00    -0.153 OA
ATOM      5  O   UNL     1       3.179  -2.112   2.051  0.00  0.00    -0.153 OA
BRANCH   3   6
ATOM      6  C   UNL     1       1.377  -2.557   3.815  0.00  0.00    +0.106 A 
ATOM      7  C   UNL     1       1.829  -1.468   4.548  0.00  0.00    +0.032 A 
ATOM      8  C   UNL     1       1.406  -1.270   5.846  0.00  0.00    +0.049 A 
ATOM      9  C   UNL     1       0.519  -2.167   6.428  0.00  0.00    +0.139 A 
ATOM     10  C   UNL     1       0.064  -3.268   5.682  0.00  0.00    +0.019 A 
ATOM     11  C   UNL     1       0.500  -3.449   4.366  0.00  0.00    +0.040 A 
ATOM     12  C   UNL     1      -0.872  -4.210   6.304  0.00  0.00    +0.018 A 
ATOM     13  C   UNL     1      -1.261  -3.977   7.583  0.00  0.00    +0.092 A 
ATOM     14  C   UNL     1      -0.764  -2.850   8.273  0.00  0.00    +0.337 A 
ATOM     15  O   UNL     1      -1.121  -2.651   9.420  0.00  0.00    -0.245 OA
ATOM     16  O   UNL     1       0.093  -1.992   7.697  0.00  0.00    -0.422 OA
ENDBRANCH   3   6
ENDBRANCH   1   3
BRANCH   1  17
ATOM     17  C   UNL     1       0.764  -0.524   1.247  0.00  0.00    +0.124 C 
BRANCH  17  19
ATOM     18  C   UNL     1       0.018   1.527   0.030  0.00  0.00    +0.025 C 
ATOM     19  C   UNL     1       0.023  -0.003   0.013  0.00  0.00    +0.069 C 
BRANCH  19  20
ATOM     20  N   UNL     1       0.700  -0.477  -1.201  0.00  0.00    -0.295 NA
ATOM     21  C   UNL     1       2.084   0.013  -1.257  0.00  0.00    +0.103 C 
ATOM     22  C   UNL     1       2.808  -0.646  -2.436  0.00  0.00    +0.120 C 
ATOM     23  N   UNL     1       2.018  -0.420  -3.656  0.00  0.00    -0.327 N 
ATOM     24  C   UNL     1       0.587  -0.760  -3.631  0.00  0.00    +0.120 C 
ATOM     25  C   UNL     1      -0.050  -0.096  -2.405  0.00  0.00    +0.103 C 
BRANCH  23  26
ATOM     26  C   UNL     1       2.610   0.104  -4.807  0.00  0.00    +0.030 A 
ATOM     27  C   UNL     1       3.934   0.525  -4.779  0.00  0.00    +0.023 A 
ATOM     28  C   UNL     1       4.517   1.042  -5.919  0.00  0.00    +0.002 A 
ATOM     29  C   UNL     1       3.784   1.142  -7.087  0.00  0.00    +0.000 A 
ATOM     30  C   UNL     1       2.466   0.725  -7.119  0.00  0.00    +0.002 A 
ATOM     31  C   UNL     1       1.879   0.201  -5.984  0.00  0.00    +0.023 A 
ENDBRANCH  23  26
ENDBRANCH  19  20
ENDBRANCH  17  19
ENDBRANCH   1  17
TORSDOF 6
