REMARK  Name = ZINC44784051
REMARK  4 active torsions:
REMARK  status: ('A' for Active; 'I' for Inactive)
REMARK    1  A    between atoms: C_2  and  N_9
REMARK    2  A    between atoms: C_10  and  C_12
REMARK    3  A    between atoms: C_12  and  C_18
REMARK    4  A    between atoms: N_19  and  O_20
REMARK                            x       y       z     vdW  Elec       q    Type
REMARK                         _______ _______ _______ _____ _____    ______ ____
ROOT
ATOM      1  C   UNL     1       2.305   5.691   0.227  0.00  0.00    +0.105 C 
ATOM      2  C   UNL     1       1.489   6.250  -0.941  0.00  0.00    +0.024 C 
ATOM      3  C   UNL     1       2.163   5.872  -2.261  0.00  0.00    +0.001 C 
ATOM      4  C   UNL     1       3.575   6.457  -2.300  0.00  0.00    +0.000 C 
ATOM      5  C   UNL     1       4.391   5.898  -1.133  0.00  0.00    +0.001 C 
ATOM      6  C   UNL     1       3.718   6.276   0.188  0.00  0.00    +0.024 C 
ENDROOT
BRANCH   1   7
ATOM      7  C   UNL     1       1.642   6.064   1.528  0.00  0.00    +0.147 C 
ATOM      8  N   UNL     1       2.088   5.584   2.641  0.00  0.00    -0.076 NA
ATOM      9  N   UNL     1       0.560   6.916   1.530  0.00  0.00    -0.343 N 
ATOM     10  H   UNL     1       0.176   7.215   0.690  0.00  0.00    +0.144 HD
ATOM     11  H   UNL     1       0.182   7.218   2.370  0.00  0.00    +0.144 HD
BRANCH   8  12
ATOM     12  O   UNL     1       3.257   4.785   2.649  0.00  0.00    -0.408 OA
ATOM     13  H   UNL     1       3.514   4.472   3.528  0.00  0.00    +0.328 HD
ENDBRANCH   8  12
ENDBRANCH   1   7
BRANCH   1  15
ATOM     14  N   UNL     1       1.271   3.480  -0.172  0.00  0.00    -0.285 N 
ATOM     15  C   UNL     1       2.380   4.190   0.113  0.00  0.00    +0.231 C 
ATOM     16  O   UNL     1       3.438   3.621   0.279  0.00  0.00    -0.274 OA
ATOM     17  H   UNL     1       0.452   3.937  -0.421  0.00  0.00    +0.155 HD
BRANCH  14  19
ATOM     18  C   UNL     1       0.153   1.377   0.231  0.00  0.00    +0.043 A 
ATOM     19  C   UNL     1       1.300   2.082  -0.110  0.00  0.00    +0.036 A 
ATOM     20  C   UNL     1       2.475   1.398  -0.391  0.00  0.00    +0.043 A 
ATOM     21  C   UNL     1       2.501   0.017  -0.329  0.00  0.00    +0.044 A 
ATOM     22  C   UNL     1       1.357  -0.683   0.011  0.00  0.00    +0.040 A 
ATOM     23  C   UNL     1       0.184  -0.004   0.292  0.00  0.00    +0.044 A 
ATOM     24 CL   UNL     1      -1.248  -0.885   0.719  0.00  0.00    -0.083 Cl
ATOM     25 CL   UNL     1       3.970  -0.839  -0.679  0.00  0.00    -0.083 Cl
ENDBRANCH  14  19
ENDBRANCH   1  15
TORSDOF 4
