REMARK  Name = ZINC58552137
REMARK  5 active torsions:
REMARK  status: ('A' for Active; 'I' for Inactive)
REMARK    1  A    between atoms: C_1  and  C_2
REMARK    2  A    between atoms: C_4  and  N_25
REMARK    3  A    between atoms: C_7  and  N_8
REMARK    4  A    between atoms: N_25  and  C_26
REMARK    5  A    between atoms: N_25  and  C_27
REMARK                            x       y       z     vdW  Elec       q    Type
REMARK                         _______ _______ _______ _____ _____    ______ ____
ROOT
ATOM      1  N   UNL     1       0.024   0.096   2.349  0.00  0.00    -0.269 N 
ATOM      2  C   UNL     1       0.140  -0.608   3.492  0.00  0.00    +0.307 C 
ATOM      3  O   UNL     1       0.323  -1.809   3.451  0.00  0.00    -0.252 OA
ATOM      4  N   UNL     1       0.053   0.021   4.682  0.00  0.00    -0.281 N 
ATOM      5  C   UNL     1      -0.064   1.485   4.756  0.00  0.00    +0.116 C 
ATOM      6  C   UNL     1      -1.422   1.848   5.366  0.00  0.00    +0.072 C 
ATOM      7  C   UNL     1      -1.665   0.983   6.580  0.00  0.00    +0.023 A 
ATOM      8  C   UNL     1      -1.005  -0.168   6.833  0.00  0.00    -0.002 A 
ATOM      9  C   UNL     1      -1.524  -0.695   8.077  0.00  0.00    +0.005 A 
ATOM     10  C   UNL     1      -1.228  -1.842   8.820  0.00  0.00    +0.010 A 
ATOM     11  C   UNL     1      -1.935  -2.030   9.982  0.00  0.00    +0.001 A 
ATOM     12  C   UNL     1      -2.900  -1.132  10.409  0.00  0.00    +0.002 A 
ATOM     13  C   UNL     1      -3.213   0.011   9.694  0.00  0.00    +0.026 A 
ATOM     14  C   UNL     1      -2.511   0.227   8.510  0.00  0.00    +0.047 A 
ATOM     15  N   UNL     1      -2.568   1.227   7.582  0.00  0.00    -0.358 N 
ATOM     16  H   UNL     1      -3.158   1.995   7.625  0.00  0.00    +0.166 HD
ATOM     17  C   UNL     1       0.066  -0.741   5.943  0.00  0.00    +0.146 C 
ATOM     18  H   UNL     1      -0.055   1.062   2.380  0.00  0.00    +0.156 HD
ENDROOT
BRANCH   1  25
ATOM     19  C   UNL     1       0.556   1.615   0.004  0.00  0.00    +0.046 C 
ATOM     20  C   UNL     1       0.274   0.136  -0.054  0.00  0.00    -0.027 A 
ATOM     21  C   UNL     1       0.274  -0.520  -1.270  0.00  0.00    +0.028 A 
ATOM     22  C   UNL     1       0.013  -1.883  -1.323  0.00  0.00    +0.030 A 
ATOM     23  C   UNL     1      -0.247  -2.587  -0.154  0.00  0.00    +0.025 A 
ATOM     24  C   UNL     1      -0.247  -1.931   1.060  0.00  0.00    +0.025 A 
ATOM     25  C   UNL     1       0.018  -0.569   1.114  0.00  0.00    +0.038 A 
BRANCH  22  26
ATOM     26  N   UNL     1       0.013  -2.547  -2.555  0.00  0.00    -0.336 N 
ATOM     27  C   UNL     1       0.163  -1.786  -3.798  0.00  0.00    +0.129 C 
ATOM     28  C   UNL     1      -0.137  -4.004  -2.601  0.00  0.00    +0.129 C 
ENDBRANCH  22  26
ENDBRANCH   1  25
TORSDOF 2
