REMARK  Name = ZINC04092947
REMARK  12 active torsions:
REMARK  status: ('A' for Active; 'I' for Inactive)
REMARK    1  A    between atoms: C_1  and  C_2
REMARK    2  A    between atoms: C_2  and  O_3
REMARK    3  A    between atoms: O_3  and  C_4
REMARK    4  A    between atoms: C_4  and  C_6
REMARK    5  A    between atoms: C_6  and  C_36
REMARK    6  A    between atoms: C_11  and  C_14
REMARK    7  A    between atoms: C_17  and  N_20
REMARK    8  A    between atoms: N_20  and  C_21
REMARK    9  A    between atoms: N_20  and  C_22
REMARK   10  A    between atoms: N_25  and  C_28
REMARK   11  A    between atoms: C_31  and  O_34
REMARK   12  A    between atoms: O_34  and  C_35
REMARK                            x       y       z     vdW  Elec       q    Type
REMARK                         _______ _______ _______ _____ _____    ______ ____
ROOT
ATOM      1  C   UNL     1       1.445  -2.447   2.393  0.00  0.00    +0.041 C 
ATOM      2  C   UNL     1       2.035  -3.822   2.015  0.00  0.00    +0.086 C 
ATOM      3  C   UNL     1       3.547  -3.557   1.786  0.00  0.00    +0.077 C 
ATOM      4  C   UNL     1       3.725  -2.044   2.031  0.00  0.00    -0.027 C 
ATOM      5  N   UNL     1       2.595  -1.679   2.933  0.00  0.00    +0.395 N 
ATOM      6  C   UNL     1       4.211  -4.337   2.898  0.00  0.00    +0.229 C 
ATOM      7  O   UNL     1       5.406  -4.403   3.091  0.00  0.00    -0.275 OA
ATOM      8  N   UNL     1       3.274  -4.942   3.637  0.00  0.00    -0.210 N 
ATOM      9  C   UNL     1       2.003  -4.727   3.226  0.00  0.00    +0.229 C 
ATOM     10  O   UNL     1       1.000  -5.177   3.738  0.00  0.00    -0.275 OA
ATOM     11  C   UNL     1       0.360  -2.605   3.460  0.00  0.00    +0.002 C 
ATOM     12  H   UNL     1       2.413  -0.688   2.881  0.00  0.00    -0.083 HD
ATOM     13  H   UNL     1       2.787  -1.954   3.885  0.00  0.00    -0.083 HD
ENDROOT
BRANCH   4  14
ATOM     14  C   UNL     1       5.038  -1.774   2.720  0.00  0.00    -0.060 A 
ATOM     15  C   UNL     1       5.153  -1.968   4.085  0.00  0.00    +0.004 A 
ATOM     16  C   UNL     1       6.355  -1.722   4.719  0.00  0.00    +0.023 A 
ATOM     17  C   UNL     1       7.448  -1.280   3.986  0.00  0.00    +0.029 A 
ATOM     18  C   UNL     1       7.329  -1.086   2.615  0.00  0.00    +0.023 A 
ATOM     19  C   UNL     1       6.126  -1.339   1.986  0.00  0.00    +0.004 A 
BRANCH  17  20
ATOM     20  N   UNL     1       8.665  -1.030   4.625  0.00  0.00    -0.336 N 
ATOM     21  C   UNL     1       8.755  -1.104   6.085  0.00  0.00    +0.129 C 
ATOM     22  C   UNL     1       9.852  -0.692   3.834  0.00  0.00    +0.129 C 
ENDBRANCH  17  20
ENDBRANCH   4  14
BRANCH   8  23
ATOM     23  C   UNL     1       3.583  -5.744   4.747  0.00  0.00    +0.044 A 
ATOM     24  C   UNL     1       3.032  -5.453   5.988  0.00  0.00    +0.027 A 
ATOM     25  C   UNL     1       3.335  -6.242   7.079  0.00  0.00    +0.047 A 
ATOM     26  C   UNL     1       4.191  -7.325   6.936  0.00  0.00    +0.120 A 
ATOM     27  C   UNL     1       4.742  -7.615   5.697  0.00  0.00    +0.047 A 
ATOM     28  C   UNL     1       4.434  -6.830   4.603  0.00  0.00    +0.027 A 
BRANCH  26  29
ATOM     29  O   UNL     1       4.489  -8.102   8.011  0.00  0.00    -0.495 OA
ATOM     30  C   UNL     1       5.377  -9.200   7.792  0.00  0.00    +0.277 C 
ENDBRANCH  26  29
ENDBRANCH   8  23
BRANCH   1  31
ATOM     31  C   UNL     1       0.884  -1.764   1.172  0.00  0.00    +0.297 C 
ATOM     32  O   UNL     1       0.467  -2.422   0.249  0.00  0.00    -0.252 OA
BRANCH  31  33
ATOM     33  O   UNL     1       0.846  -0.423   1.111  0.00  0.00    -0.466 OA
BRANCH  33  35
ATOM     34  C   UNL     1       0.342   1.683   0.038  0.00  0.00    +0.048 C 
ATOM     35  C   UNL     1       0.301   0.157  -0.075  0.00  0.00    +0.228 C 
ENDBRANCH  33  35
ENDBRANCH  31  33
ENDBRANCH   1  31
TORSDOF 7
