REMARK  Name = ZINC33439068
REMARK  11 active torsions:
REMARK  status: ('A' for Active; 'I' for Inactive)
REMARK    1  A    between atoms: C_1  and  C_2
REMARK    2  A    between atoms: C_2  and  C_3
REMARK    3  A    between atoms: C_3  and  C_4
REMARK    4  A    between atoms: C_4  and  C_5
REMARK    5  A    between atoms: C_5  and  C_7
REMARK    6  A    between atoms: C_5  and  C_9
REMARK    7  A    between atoms: C_7  and  C_8
REMARK    8  A    between atoms: C_9  and  N_10
REMARK    9  A    between atoms: C_14  and  C_15
REMARK   10  A    between atoms: C_16  and  N_26
REMARK   11  A    between atoms: C_29  and  C_32
REMARK                            x       y       z     vdW  Elec       q    Type
REMARK                         _______ _______ _______ _____ _____    ______ ____
ROOT
ATOM      1  C   UNL     1      -1.745   1.500   1.890  0.00  0.00    +0.081 A 
ATOM      2  C   UNL     1      -2.902   0.710   2.087  0.00  0.00    +0.136 A 
ATOM      3  N   UNL     1      -4.063   1.301   2.329  0.00  0.00    -0.214 NA
ATOM      4  C   UNL     1      -4.174   2.628   2.385  0.00  0.00    +0.142 A 
ATOM      5  C   UNL     1      -5.433   3.200   2.641  0.00  0.00    +0.047 A 
ATOM      6  C   UNL     1      -5.556   4.556   2.700  0.00  0.00    +0.005 A 
ATOM      7  C   UNL     1      -4.427   5.362   2.505  0.00  0.00    +0.018 A 
ATOM      8  C   UNL     1      -3.224   4.796   2.258  0.00  0.00    +0.096 A 
ATOM      9  N   UNL     1      -3.090   3.441   2.198  0.00  0.00    -0.268 N 
ATOM     10  C   UNL     1      -1.874   2.908   1.951  0.00  0.00    +0.267 A 
ATOM     11  O   UNL     1      -0.904   3.627   1.783  0.00  0.00    -0.267 OA
ENDROOT
BRANCH   1  16
ATOM     12  N   UNL     1       1.631   1.593   4.538  0.00  0.00    -0.255 N 
ATOM     13  C   UNL     1       0.520   1.637   3.823  0.00  0.00    +0.258 C 
ATOM     14  O   UNL     1      -0.471   2.210   4.240  0.00  0.00    -0.269 OA
ATOM     15  C   UNL     1       0.514   0.995   2.552  0.00  0.00    +0.077 C 
ATOM     16  C   UNL     1      -0.491   0.897   1.633  0.00  0.00    +0.037 C 
ATOM     17  S   UNL     1       2.179   0.346   2.490  0.00  0.00    -0.061 S 
ATOM     18  C   UNL     1       2.730   0.957   4.075  0.00  0.00    +0.121 C 
ATOM     19  S   UNL     1       4.260   0.776   4.822  0.00  0.00    -0.027 S 
BRANCH  12  20
ATOM     20  C   UNL     1       1.671   2.242   5.851  0.00  0.00    +0.118 C 
BRANCH  20  21
ATOM     21  C   UNL     1       1.078   1.303   6.902  0.00  0.00    +0.007 C 
BRANCH  21  22
ATOM     22  C   UNL     1       1.024   2.019   8.253  0.00  0.00    +0.002 C 
ATOM     23  C   UNL     1       0.042   3.190   8.171  0.00  0.00    +0.004 C 
ENDBRANCH  21  22
BRANCH  21  24
ATOM     24  C   UNL     1       1.953   0.054   7.022  0.00  0.00    +0.005 C 
BRANCH  24  25
ATOM     25  C   UNL     1       1.295  -0.940   7.982  0.00  0.00    +0.000 C 
BRANCH  25  27
ATOM     26  C   UNL     1       1.512  -3.183   9.061  0.00  0.00    +0.004 C 
ATOM     27  C   UNL     1       2.170  -2.189   8.101  0.00  0.00    -0.003 C 
ENDBRANCH  25  27
ENDBRANCH  24  25
ENDBRANCH  21  24
ENDBRANCH  20  21
ENDBRANCH  12  20
ENDBRANCH   1  16
BRANCH   2  28
ATOM     28  N   UNL     1      -2.822  -0.664   2.030  0.00  0.00    -0.314 N 
ATOM     29  C   UNL     1      -2.500  -1.118   0.671  0.00  0.00    +0.107 C 
ATOM     30  C   UNL     1      -2.276  -2.632   0.677  0.00  0.00    +0.031 C 
ATOM     31  C   UNL     1      -3.543  -3.329   1.181  0.00  0.00    +0.078 C 
ATOM     32  C   UNL     1      -3.883  -2.803   2.579  0.00  0.00    +0.031 C 
ATOM     33  C   UNL     1      -4.060  -1.284   2.518  0.00  0.00    +0.107 C 
BRANCH  31  34
ATOM     34  C   UNL     1      -3.309  -4.816   1.245  0.00  0.00    +0.214 C 
ATOM     35  O   UNL     1      -3.405  -5.400   2.304  0.00  0.00    -0.276 OA
ATOM     36  N   UNL     1      -2.994  -5.498   0.126  0.00  0.00    -0.329 N 
ATOM     37  H   UNL     1      -2.824  -6.583   0.173  0.00  0.00    +0.145 HD
ATOM     38  H   UNL     1      -2.907  -4.968  -0.834  0.00  0.00    +0.145 HD
ENDBRANCH  31  34
ENDBRANCH   2  28
TORSDOF 9
