REMARK  Name = ZINC67438745
REMARK  11 active torsions:
REMARK  status: ('A' for Active; 'I' for Inactive)
REMARK    1  A    between atoms: C_1  and  C_2
REMARK    2  A    between atoms: C_5  and  C_31
REMARK    3  A    between atoms: N_8  and  C_10
REMARK    4  A    between atoms: C_10  and  C_11
REMARK    5  A    between atoms: C_11  and  C_13
REMARK    6  A    between atoms: C_11  and  N_14
REMARK    7  A    between atoms: C_15  and  C_17
REMARK    8  A    between atoms: N_19  and  C_20
REMARK    9  A    between atoms: C_25  and  C_26
REMARK   10  A    between atoms: C_26  and  C_27
REMARK   11  A    between atoms: N_29  and  C_30
REMARK                            x       y       z     vdW  Elec       q    Type
REMARK                         _______ _______ _______ _____ _____    ______ ____
ROOT
ATOM      1  N   UNL     1       3.522  -2.505   0.960  0.00  0.00    -0.307 N 
ATOM      2  C   UNL     1       4.550  -1.860   0.372  0.00  0.00    +0.299 C 
ATOM      3  O   UNL     1       5.053  -0.899   0.915  0.00  0.00    -0.265 OA
ATOM      4  H   UNL     1       3.120  -3.273   0.525  0.00  0.00    +0.149 HD
ENDROOT
BRANCH   2   5
ATOM      5  C   UNL     1       5.069  -2.329  -0.947  0.00  0.00    +0.303 C 
ATOM      6  O   UNL     1       4.566  -3.291  -1.491  0.00  0.00    -0.265 OA
ATOM      7  N   UNL     1       6.097  -1.685  -1.535  0.00  0.00    -0.277 N 
ATOM      8  H   UNL     1       6.447  -0.870  -1.141  0.00  0.00    +0.155 HD
BRANCH   7   9
ATOM      9  C   UNL     1       6.658  -2.190  -2.710  0.00  0.00    +0.037 A 
ATOM     10  C   UNL     1       6.557  -3.544  -3.004  0.00  0.00    +0.023 A 
ATOM     11  C   UNL     1       7.113  -4.040  -4.166  0.00  0.00    +0.002 A 
ATOM     12  C   UNL     1       7.770  -3.191  -5.038  0.00  0.00    +0.000 A 
ATOM     13  C   UNL     1       7.873  -1.842  -4.749  0.00  0.00    +0.006 A 
ATOM     14  C   UNL     1       7.314  -1.338  -3.591  0.00  0.00    -0.017 A 
BRANCH  14  15
ATOM     15  C   UNL     1       7.420   0.132  -3.280  0.00  0.00    +0.132 C 
BRANCH  15  16
ATOM     16  C   UNL     1       8.611   0.372  -2.388  0.00  0.00    +0.217 C 
ATOM     17  O   UNL     1       9.305  -0.559  -2.040  0.00  0.00    -0.275 OA
ATOM     18  N   UNL     1       8.905   1.622  -1.978  0.00  0.00    -0.318 N 
ATOM     19  C   UNL     1      10.063   1.856  -1.112  0.00  0.00    +0.128 C 
ATOM     20  H   UNL     1       8.349   2.367  -2.257  0.00  0.00    +0.148 HD
ENDBRANCH  15  16
ENDBRANCH  14  15
ENDBRANCH   7   9
ENDBRANCH   2   5
BRANCH   1  21
ATOM     21  C   UNL     1       3.013  -2.045   2.254  0.00  0.00    +0.054 C 
ATOM     22  C   UNL     1       3.849  -2.659   3.378  0.00  0.00    +0.026 C 
BRANCH  21  23
ATOM     23  C   UNL     1       1.553  -2.476   2.410  0.00  0.00    -0.057 C 
BRANCH  23  29
ATOM     24  C   UNL     1      -0.005   1.527   0.062  0.00  0.00    +0.005 C 
ATOM     25  C   UNL     1       0.013  -0.003   0.044  0.00  0.00    -0.031 C 
ATOM     26  C   UNL     1      -1.424  -0.531   0.062  0.00  0.00    +0.003 C 
ATOM     27  C   UNL     1      -1.394  -2.061   0.123  0.00  0.00    -0.031 C 
ATOM     28  C   UNL     1      -0.599  -2.502   1.355  0.00  0.00    -0.076 C 
ATOM     29  N   UNL     1       0.773  -1.987   1.266  0.00  0.00    +0.381 N 
ATOM     30  C   UNL     1       0.757  -0.519   1.278  0.00  0.00    -0.076 C 
ATOM     31  C   UNL     1      -0.727  -2.610  -1.139  0.00  0.00    +0.005 C 
ATOM     32  H   UNL     1       1.197  -2.310   0.409  0.00  0.00    -0.082 HD
ENDBRANCH  23  29
ENDBRANCH  21  23
ENDBRANCH   1  21
TORSDOF 7
