REMARK  Name = ZINC34747065
REMARK  6 active torsions:
REMARK  status: ('A' for Active; 'I' for Inactive)
REMARK    1  A    between atoms: C_1  and  C_2
REMARK    2  A    between atoms: C_2  and  C_33
REMARK    3  A    between atoms: N_11  and  C_30
REMARK    4  A    between atoms: N_17  and  C_20
REMARK    5  A    between atoms: C_20  and  C_21
REMARK    6  A    between atoms: N_23  and  C_24
REMARK                            x       y       z     vdW  Elec       q    Type
REMARK                         _______ _______ _______ _____ _____    ______ ____
ROOT
ATOM      1  C   UNL     1       0.627   0.455   2.410  0.00  0.00    +0.041 C 
ATOM      2  C   UNL     1       0.280   0.305   0.927  0.00  0.00    +0.068 C 
ATOM      3  C   UNL     1      -1.182   0.701   0.705  0.00  0.00    +0.071 C 
ATOM      4  C   UNL     1      -2.066  -0.365   1.350  0.00  0.00    -0.018 A 
ATOM      5  C   UNL     1      -1.536  -1.576   1.647  0.00  0.00    +0.021 A 
ATOM      6  S   UNL     1      -2.867  -2.500   2.367  0.00  0.00    -0.071 S 
ATOM      7  C   UNL     1      -4.126  -1.267   2.269  0.00  0.00    +0.118 A 
ATOM      8  C   UNL     1      -3.466  -0.166   1.674  0.00  0.00    +0.076 A 
ATOM      9  C   UNL     1      -4.239   1.020   1.456  0.00  0.00    +0.264 A 
ATOM     10  O   UNL     1      -3.761   2.021   0.950  0.00  0.00    -0.267 OA
ATOM     11  N   UNL     1      -5.534   0.962   1.846  0.00  0.00    -0.283 N 
ATOM     12  C   UNL     1      -6.089  -0.144   2.412  0.00  0.00    +0.202 A 
ATOM     13  N   UNL     1      -5.404  -1.257   2.629  0.00  0.00    -0.208 NA
ATOM     14  N   UNL     1      -7.412  -0.104   2.775  0.00  0.00    -0.304 N 
ATOM     15  C   UNL     1      -8.468  -0.484   1.823  0.00  0.00    +0.089 C 
ATOM     16  C   UNL     1      -9.395  -1.497   2.505  0.00  0.00    -0.059 C 
ATOM     17  N   UNL     1      -9.890  -0.934   3.767  0.00  0.00    +0.387 N 
ATOM     18  C   UNL     1      -8.772  -0.733   4.697  0.00  0.00    -0.059 C 
ATOM     19  C   UNL     1      -7.814   0.313   4.127  0.00  0.00    +0.089 C 
ATOM     20  C   UNL     1      -6.377   2.144   1.650  0.00  0.00    +0.155 C 
ATOM     21  C   UNL     1      -0.124  -2.008   1.405  0.00  0.00    +0.203 C 
ATOM     22  O   UNL     1       0.488  -1.052   0.526  0.00  0.00    -0.368 OA
ATOM     23  C   UNL     1       1.182   1.223   0.100  0.00  0.00    +0.041 C 
ATOM     24  H   UNL     1     -10.338  -0.048   3.586  0.00  0.00    -0.081 HD
ENDROOT
BRANCH  17  25
ATOM     25  C   UNL     1     -10.862  -1.858   4.365  0.00  0.00    +0.019 C 
BRANCH  25  26
ATOM     26  C   UNL     1     -11.463  -1.228   5.596  0.00  0.00    +0.197 C 
ATOM     27  O   UNL     1     -11.114  -0.119   5.941  0.00  0.00    -0.278 OA
ATOM     28  N   UNL     1     -12.386  -1.898   6.313  0.00  0.00    -0.314 N 
ATOM     29  H   UNL     1     -12.664  -2.786   6.038  0.00  0.00    +0.149 HD
BRANCH  28  30
ATOM     30  C   UNL     1     -12.970  -1.286   7.510  0.00  0.00    +0.073 C 
ATOM     31  C   UNL     1     -12.060  -1.548   8.712  0.00  0.00    +0.022 C 
ATOM     32  C   UNL     1     -12.669  -0.908   9.961  0.00  0.00    +0.002 C 
ATOM     33  C   UNL     1     -14.048  -1.516  10.224  0.00  0.00    +0.000 C 
ATOM     34  C   UNL     1     -14.958  -1.255   9.022  0.00  0.00    +0.002 C 
ATOM     35  C   UNL     1     -14.349  -1.894   7.772  0.00  0.00    +0.022 C 
ENDBRANCH  28  30
ENDBRANCH  25  26
ENDBRANCH  17  25
TORSDOF 3
