REMARK  Name = ZINC66674376
REMARK  10 active torsions:
REMARK  status: ('A' for Active; 'I' for Inactive)
REMARK    1  A    between atoms: C_1  and  C_2
REMARK    2  A    between atoms: C_2  and  C_3
REMARK    3  A    between atoms: C_2  and  C_4
REMARK    4  A    between atoms: C_2  and  O_5
REMARK    5  A    between atoms: O_5  and  C_6
REMARK    6  A    between atoms: N_8  and  C_9
REMARK    7  A    between atoms: N_8  and  C_23
REMARK    8  A    between atoms: C_9  and  C_10
REMARK    9  A    between atoms: C_10  and  N_11
REMARK   10  A    between atoms: C_12  and  C_14
REMARK                            x       y       z     vdW  Elec       q    Type
REMARK                         _______ _______ _______ _____ _____    ______ ____
ROOT
ATOM      1  C   UNL     1       5.008  -0.919  -1.988  0.00  0.00    +0.123 C 
ENDROOT
BRANCH   1   2
ATOM      2  N   UNL     1       6.365  -0.419  -2.220  0.00  0.00    -0.309 N 
ATOM      3  C   UNL     1       7.424  -1.086  -1.721  0.00  0.00    +0.264 C 
ATOM      4  O   UNL     1       7.253  -2.103  -1.077  0.00  0.00    -0.268 OA
ATOM      5  H   UNL     1       6.501   0.392  -2.734  0.00  0.00    +0.149 HD
BRANCH   3   6
ATOM      6  C   UNL     1       8.791  -0.583  -1.955  0.00  0.00    +0.146 A 
ATOM      7  C   UNL     1       9.945  -1.162  -1.512  0.00  0.00    +0.127 A 
ATOM      8  N   UNL     1      10.974  -0.382  -1.945  0.00  0.00    -0.290 N 
ATOM      9  C   UNL     1      12.329  -0.478  -1.798  0.00  0.00    +0.095 A 
ATOM     10  C   UNL     1      13.121   0.471  -2.353  0.00  0.00    +0.038 A 
ATOM     11  C   UNL     1      12.533   1.528  -3.064  0.00  0.00    +0.116 A 
ATOM     12  N   UNL     1      11.230   1.598  -3.192  0.00  0.00    -0.220 NA
ATOM     13  C   UNL     1      10.431   0.666  -2.648  0.00  0.00    +0.235 A 
ATOM     14  N   UNL     1       9.117   0.526  -2.648  0.00  0.00    -0.206 NA
ENDBRANCH   3   6
ENDBRANCH   1   2
BRANCH   1  15
ATOM     15  C   UNL     1       3.998   0.015  -2.657  0.00  0.00    +0.130 C 
BRANCH  15  18
ATOM     16  C   UNL     1       1.952  -0.084  -1.337  0.00  0.00    +0.404 C 
ATOM     17  O   UNL     1       2.488   0.619  -0.503  0.00  0.00    -0.226 OA
ATOM     18  N   UNL     1       2.641  -0.485  -2.424  0.00  0.00    -0.263 N 
BRANCH  18  19
ATOM     19  C   UNL     1       2.033  -1.421  -3.373  0.00  0.00    +0.079 C 
ATOM     20  C   UNL     1       2.953  -2.084  -4.400  0.00  0.00    +0.024 C 
ATOM     21  C   UNL     1       1.970  -0.998  -4.841  0.00  0.00    +0.024 C 
ENDBRANCH  18  19
BRANCH  16  22
ATOM     22  O   UNL     1       0.670  -0.462  -1.176  0.00  0.00    -0.445 OA
BRANCH  22  24
ATOM     23  C   UNL     1      -0.018   1.530   0.008  0.00  0.00    +0.055 C 
ATOM     24  C   UNL     1       0.000   0.000  -0.001  0.00  0.00    +0.107 C 
ATOM     25  C   UNL     1       0.738  -0.508   1.240  0.00  0.00    +0.055 C 
ATOM     26  C   UNL     1      -1.436  -0.527   0.009  0.00  0.00    +0.055 C 
ENDBRANCH  22  24
ENDBRANCH  16  22
ENDBRANCH  15  18
ENDBRANCH   1  15
TORSDOF 7
