REMARK  Name = ZINC00799275
REMARK  4 active torsions:
REMARK  status: ('A' for Active; 'I' for Inactive)
REMARK    1  A    between atoms: C_1  and  C_2
REMARK    2  A    between atoms: C_9  and  N_14
REMARK    3  A    between atoms: C_10  and  C_11
REMARK    4  A    between atoms: C_15  and  C_17
REMARK                            x       y       z     vdW  Elec       q    Type
REMARK                         _______ _______ _______ _____ _____    ______ ____
ROOT
ATOM      1  C   UNL     1      -1.434   3.622   2.530  0.00  0.00    +0.008 C 
ATOM      2  C   UNL     1      -0.937   3.098   1.181  0.00  0.00    -0.009 C 
ATOM      3  C   UNL     1      -0.735   1.582   1.262  0.00  0.00    +0.008 C 
ATOM      4  C   UNL     1      -0.013   1.086   0.008  0.00  0.00    +0.037 C 
ATOM      5  C   UNL     1      -0.755   1.593  -1.222  0.00  0.00    -0.023 A 
ATOM      6  C   UNL     1      -1.621   2.627  -1.135  0.00  0.00    -0.004 A 
ATOM      7  S   UNL     1      -2.225   2.851  -2.784  0.00  0.00    -0.077 S 
ATOM      8  C   UNL     1      -1.341   1.592  -3.579  0.00  0.00    +0.085 A 
ATOM      9  C   UNL     1      -0.600   1.027  -2.551  0.00  0.00    +0.068 A 
ATOM     10  C   UNL     1      -1.979   3.403   0.095  0.00  0.00    +0.046 C 
ENDROOT
BRANCH   9  11
ATOM     11  C   UNL     1       0.306  -0.099  -2.796  0.00  0.00    +0.244 C 
ATOM     12  O   UNL     1      -0.104  -1.242  -2.702  0.00  0.00    -0.270 OA
ATOM     13  N   UNL     1       1.593   0.130  -3.125  0.00  0.00    -0.325 N 
ATOM     14  H   UNL     1       1.919   1.040  -3.200  0.00  0.00    +0.145 HD
ATOM     15  H   UNL     1       2.192  -0.615  -3.288  0.00  0.00    +0.145 HD
ENDBRANCH   9  11
BRANCH   8  16
ATOM     16  N   UNL     1      -1.367   1.235  -4.918  0.00  0.00    -0.275 N 
ATOM     17  C   UNL     1      -2.158   1.906  -5.779  0.00  0.00    +0.250 C 
ATOM     18  O   UNL     1      -2.848   2.824  -5.381  0.00  0.00    -0.270 OA
ATOM     19  H   UNL     1      -0.817   0.502  -5.236  0.00  0.00    +0.156 HD
BRANCH  17  20
ATOM     20  C   UNL     1      -2.186   1.526  -7.206  0.00  0.00    +0.051 A 
ATOM     21  C   UNL     1      -1.395   0.472  -7.667  0.00  0.00    +0.014 A 
ATOM     22  C   UNL     1      -1.426   0.121  -9.000  0.00  0.00    +0.001 A 
ATOM     23  C   UNL     1      -2.239   0.812  -9.882  0.00  0.00    +0.001 A 
ATOM     24  C   UNL     1      -3.026   1.857  -9.434  0.00  0.00    +0.016 A 
ATOM     25  C   UNL     1      -3.009   2.215  -8.100  0.00  0.00    +0.030 A 
ATOM     26 BR   UNL     1      -4.091   3.640  -7.487  0.00  0.00    -0.050 Br
ENDBRANCH  17  20
ENDBRANCH   8  16
TORSDOF 3
