REMARK  Name = ZINC18084730
REMARK  7 active torsions:
REMARK  status: ('A' for Active; 'I' for Inactive)
REMARK    1  A    between atoms: C_1  and  C_2
REMARK    2  A    between atoms: C_2  and  O_3
REMARK    3  A    between atoms: O_3  and  C_4
REMARK    4  A    between atoms: C_4  and  C_6
REMARK    5  A    between atoms: C_11  and  N_12
REMARK    6  A    between atoms: C_17  and  C_30
REMARK    7  A    between atoms: C_31  and  C_32
REMARK                            x       y       z     vdW  Elec       q    Type
REMARK                         _______ _______ _______ _____ _____    ______ ____
ROOT
ATOM      1  N   UNL     1      -1.908  -4.654  -0.004  0.00  0.00    -0.208 N 
ATOM      2  C   UNL     1      -1.307  -5.113   1.125  0.00  0.00    +0.232 C 
ATOM      3  O   UNL     1      -1.737  -5.048   2.257  0.00  0.00    -0.274 OA
ATOM      4  C   UNL     1      -0.009  -5.715   0.689  0.00  0.00    +0.110 C 
ATOM      5  C   UNL     1       0.547  -6.895   1.445  0.00  0.00    +0.064 C 
ATOM      6  C   UNL     1       1.789  -7.369   0.744  0.00  0.00    +0.032 A 
ATOM      7  C   UNL     1       2.190  -7.158  -0.529  0.00  0.00    +0.088 A 
ATOM      8  N   UNL     1       3.399  -7.719  -0.858  0.00  0.00    -0.311 N 
ATOM      9  C   UNL     1       4.082  -8.430   0.059  0.00  0.00    +0.289 A 
ATOM     10  S   UNL     1       3.096  -8.357   1.421  0.00  0.00    -0.030 S 
ATOM     11  O   UNL     1       5.155  -8.993  -0.067  0.00  0.00    -0.260 OA
ATOM     12  S   UNL     1       1.182  -6.224  -1.671  0.00  0.00    -0.093 S 
ATOM     13  C   UNL     1      -0.386  -6.198  -0.744  0.00  0.00    +0.152 C 
ATOM     14  C   UNL     1      -1.325  -5.096  -1.148  0.00  0.00    +0.240 C 
ATOM     15  O   UNL     1      -1.522  -4.685  -2.271  0.00  0.00    -0.274 OA
ATOM     16  H   UNL     1       3.762  -7.603  -1.750  0.00  0.00    +0.170 HD
ENDROOT
BRANCH   1  22
ATOM     17  C   UNL     1      -2.852  -2.419   0.016  0.00  0.00    +0.081 A 
ATOM     18  C   UNL     1      -3.974  -1.587   0.026  0.00  0.00    +0.017 A 
ATOM     19  C   UNL     1      -5.237  -2.137   0.034  0.00  0.00    +0.001 A 
ATOM     20  C   UNL     1      -5.401  -3.513   0.034  0.00  0.00    +0.002 A 
ATOM     21  C   UNL     1      -4.301  -4.347   0.025  0.00  0.00    +0.025 A 
ATOM     22  C   UNL     1      -3.021  -3.811   0.010  0.00  0.00    +0.058 A 
BRANCH  17  23
ATOM     23  C   UNL     1      -1.497  -1.837   0.006  0.00  0.00    +0.341 C 
ATOM     24  O   UNL     1      -0.523  -2.564  -0.007  0.00  0.00    -0.245 OA
BRANCH  23  25
ATOM     25  O   UNL     1      -1.339  -0.499   0.012  0.00  0.00    -0.461 OA
BRANCH  25  27
ATOM     26  C   UNL     1      -0.019   1.526   0.010  0.00  0.00    +0.048 C 
ATOM     27  C   UNL     1       0.002  -0.004   0.002  0.00  0.00    +0.229 C 
ENDBRANCH  25  27
ENDBRANCH  23  25
ENDBRANCH  17  23
ENDBRANCH   1  22
BRANCH   5  28
ATOM     28  C   UNL     1      -0.475  -8.003   1.476  0.00  0.00    -0.017 C 
ATOM     29  C   UNL     1      -0.932  -8.449   2.638  0.00  0.00    +0.004 C 
BRANCH  29  30
ATOM     30  C   UNL     1      -1.935  -9.536   2.669  0.00  0.00    -0.025 A 
ATOM     31  C   UNL     1      -2.397 -10.097   1.478  0.00  0.00    +0.008 A 
ATOM     32  C   UNL     1      -3.333 -11.110   1.514  0.00  0.00    +0.001 A 
ATOM     33  C   UNL     1      -3.813 -11.570   2.727  0.00  0.00    +0.000 A 
ATOM     34  C   UNL     1      -3.359 -11.017   3.911  0.00  0.00    +0.001 A 
ATOM     35  C   UNL     1      -2.418 -10.008   3.889  0.00  0.00    +0.008 A 
ENDBRANCH  29  30
ENDBRANCH   5  28
TORSDOF 6
