REMARK  Name = ZINC45794826
REMARK  14 active torsions:
REMARK  status: ('A' for Active; 'I' for Inactive)
REMARK    1  A    between atoms: C_1  and  C_2
REMARK    2  A    between atoms: C_3  and  C_16
REMARK    3  A    between atoms: C_4  and  C_15
REMARK    4  A    between atoms: N_5  and  C_7
REMARK    5  A    between atoms: C_7  and  C_8
REMARK    6  A    between atoms: C_16  and  N_17
REMARK    7  A    between atoms: N_17  and  C_18
REMARK    8  A    between atoms: N_17  and  C_19
REMARK    9  A    between atoms: C_19  and  C_20
REMARK   10  A    between atoms: C_20  and  O_22
REMARK   11  A    between atoms: O_22  and  C_23
REMARK   12  A    between atoms: C_23  and  C_24
REMARK   13  A    between atoms: C_23  and  C_25
REMARK   14  A    between atoms: C_23  and  C_26
REMARK                            x       y       z     vdW  Elec       q    Type
REMARK                         _______ _______ _______ _____ _____    ______ ____
ROOT
ATOM      1  C   UNL     1      -0.018   1.503   0.010  0.00  0.00    +0.068 C 
ATOM      2  C   UNL     1       0.002  -0.004   0.002  0.00  0.00    +0.062 A 
ATOM      3  C   UNL     1       0.008  -0.818  -1.135  0.00  0.00    -0.021 A 
ATOM      4  C   UNL     1       0.028  -2.107  -0.725  0.00  0.00    +0.038 A 
ATOM      5  N   UNL     1       0.034  -2.109   0.625  0.00  0.00    -0.264 N 
ATOM      6  N   UNL     1       0.023  -0.777   1.058  0.00  0.00    -0.176 NA
ATOM      7  C   UNL     1       0.040  -3.323  -1.615  0.00  0.00    +0.065 C 
ENDROOT
BRANCH   5   8
ATOM      8  C   UNL     1       0.055  -3.295   1.485  0.00  0.00    +0.180 C 
BRANCH   8   9
ATOM      9  C   UNL     1       1.482  -3.682   1.773  0.00  0.00    -0.008 A 
ATOM     10  C   UNL     1       2.111  -4.635   0.994  0.00  0.00    +0.007 A 
ATOM     11  C   UNL     1       3.421  -4.990   1.258  0.00  0.00    +0.000 A 
ATOM     12  C   UNL     1       4.103  -4.392   2.302  0.00  0.00    +0.001 A 
ATOM     13  C   UNL     1       3.475  -3.438   3.081  0.00  0.00    +0.020 A 
ATOM     14  C   UNL     1       2.166  -3.078   2.813  0.00  0.00    +0.046 A 
ATOM     15 CL   UNL     1       1.380  -1.876   3.788  0.00  0.00    -0.083 Cl
ENDBRANCH   8   9
ENDBRANCH   5   8
BRANCH   3  16
ATOM     16  C   UNL     1      -0.006  -0.343  -2.566  0.00  0.00    -0.039 C 
BRANCH  16  17
ATOM     17  N   UNL     1       1.374  -0.169  -3.038  0.00  0.00    +0.388 N 
ATOM     18  C   UNL     1       2.049  -1.474  -3.068  0.00  0.00    -0.095 C 
ATOM     19  H   UNL     1       1.868   0.450  -2.413  0.00  0.00    -0.081 HD
BRANCH  17  20
ATOM     20  C   UNL     1       1.361   0.407  -4.389  0.00  0.00    +0.044 C 
BRANCH  20  21
ATOM     21  C   UNL     1       2.774   0.699  -4.824  0.00  0.00    +0.291 C 
ATOM     22  O   UNL     1       3.697   0.453  -4.085  0.00  0.00    -0.253 OA
BRANCH  21  23
ATOM     23  O   UNL     1       3.006   1.233  -6.034  0.00  0.00    -0.460 OA
BRANCH  23  24
ATOM     24  C   UNL     1       4.370   1.484  -6.381  0.00  0.00    +0.105 C 
ATOM     25  C   UNL     1       5.153   0.169  -6.354  0.00  0.00    +0.055 C 
ATOM     26  C   UNL     1       4.436   2.088  -7.785  0.00  0.00    +0.055 C 
ATOM     27  C   UNL     1       4.980   2.462  -5.375  0.00  0.00    +0.055 C 
ENDBRANCH  23  24
ENDBRANCH  21  23
ENDBRANCH  20  21
ENDBRANCH  17  20
ENDBRANCH  16  17
ENDBRANCH   3  16
TORSDOF 8
