REMARK  Name = ZINC49126409
REMARK  5 active torsions:
REMARK  status: ('A' for Active; 'I' for Inactive)
REMARK    1  A    between atoms: C_1  and  C_2
REMARK    2  A    between atoms: C_2  and  C_4
REMARK    3  A    between atoms: C_2  and  N_10
REMARK    4  A    between atoms: C_11  and  C_13
REMARK    5  A    between atoms: C_17  and  N_19
REMARK                            x       y       z     vdW  Elec       q    Type
REMARK                         _______ _______ _______ _____ _____    ______ ____
ROOT
ATOM      1  N   UNL     1       0.688  -0.476  -1.203  0.00  0.00    -0.304 N 
ATOM      2  C   UNL     1       2.031  -0.587  -1.215  0.00  0.00    +0.245 C 
ATOM      3  O   UNL     1       2.673  -0.295  -0.225  0.00  0.00    -0.270 OA
ATOM      4  H   UNL     1       0.175  -0.710  -1.993  0.00  0.00    +0.150 HD
ENDROOT
BRANCH   2   5
ATOM      5  C   UNL     1       2.723  -1.064  -2.431  0.00  0.00    +0.039 A 
ATOM      6  C   UNL     1       1.987  -1.395  -3.571  0.00  0.00    +0.014 A 
ATOM      7  C   UNL     1       2.635  -1.839  -4.705  0.00  0.00    +0.018 A 
ATOM      8  C   UNL     1       4.013  -1.959  -4.718  0.00  0.00    +0.039 A 
ATOM      9  C   UNL     1       4.755  -1.631  -3.588  0.00  0.00    +0.039 A 
ATOM     10  C   UNL     1       4.113  -1.179  -2.446  0.00  0.00    +0.037 A 
ATOM     11 BR   UNL     1       4.892  -2.569  -6.277  0.00  0.00    -0.048 Br
BRANCH   9  12
ATOM     12  N   UNL     1       6.147  -1.754  -3.605  0.00  0.00    -0.357 N 
ATOM     13  H   UNL     1       6.596  -2.068  -4.406  0.00  0.00    +0.142 HD
ATOM     14  H   UNL     1       6.664  -1.526  -2.817  0.00  0.00    +0.142 HD
ENDBRANCH   9  12
ENDBRANCH   2   5
BRANCH   1  16
ATOM     15  C   UNL     1      -0.019   1.526   0.010  0.00  0.00    +0.033 C 
ATOM     16  C   UNL     1       0.002  -0.004   0.002  0.00  0.00    +0.107 C 
BRANCH  16  17
ATOM     17  C   UNL     1      -1.412  -0.526   0.013  0.00  0.00    +0.011 A 
ATOM     18  C   UNL     1      -2.141  -0.993   1.055  0.00  0.00    +0.014 A 
ATOM     19  C   UNL     1      -3.435  -1.425   0.828  0.00  0.00    +0.028 A 
ATOM     20  C   UNL     1      -3.935  -1.368  -0.431  0.00  0.00    +0.078 A 
ATOM     21  S   UNL     1      -2.563  -0.681  -1.343  0.00  0.00    -0.080 S 
ATOM     22 CL   UNL     1      -5.505  -1.836  -1.006  0.00  0.00    -0.076 Cl
ENDBRANCH  16  17
ENDBRANCH   1  16
TORSDOF 4
