REMARK  Name = ZINC10221032
REMARK  10 active torsions:
REMARK  status: ('A' for Active; 'I' for Inactive)
REMARK    1  A    between atoms: C_1  and  C_2
REMARK    2  A    between atoms: C_2  and  C_3
REMARK    3  A    between atoms: C_2  and  C_4
REMARK    4  A    between atoms: C_13  and  N_16
REMARK    5  A    between atoms: C_17  and  C_19
REMARK    6  A    between atoms: N_21  and  C_22
REMARK    7  A    between atoms: C_22  and  C_23
REMARK    8  A    between atoms: C_23  and  C_24
REMARK    9  A    between atoms: C_27  and  S_30
REMARK   10  A    between atoms: S_30  and  N_33
REMARK                            x       y       z     vdW  Elec       q    Type
REMARK                         _______ _______ _______ _____ _____    ______ ____
ROOT
ATOM      1  N   UNL     1       0.005   0.904   0.280  0.00  0.00    -0.278 N 
ATOM      2  C   UNL     1       0.991   1.472  -0.441  0.00  0.00    +0.303 C 
ATOM      3  O   UNL     1       0.756   2.440  -1.134  0.00  0.00    -0.265 OA
ATOM      4  H   UNL     1       0.173   0.085   0.772  0.00  0.00    +0.155 HD
ENDROOT
BRANCH   1  14
ATOM      5  C   UNL     1      -4.689  -0.867   0.317  0.00  0.00    +0.222 C 
ATOM      6  O   UNL     1      -3.611  -1.364   0.072  0.00  0.00    -0.275 OA
ATOM      7  N   UNL     1      -4.787   0.460   0.531  0.00  0.00    -0.271 N 
ATOM      8  C   UNL     1      -6.082   1.070   0.863  0.00  0.00    +0.114 C 
ATOM      9  C   UNL     1      -6.228   2.345   0.022  0.00  0.00    +0.024 C 
ATOM     10  C   UNL     1      -5.130   3.330   0.423  0.00  0.00    +0.038 C 
ATOM     11  C   UNL     1      -3.781   2.662   0.383  0.00  0.00    -0.026 A 
ATOM     12  C   UNL     1      -3.655   1.282   0.442  0.00  0.00    +0.041 A 
ATOM     13  C   UNL     1      -2.396   0.695   0.409  0.00  0.00    +0.047 A 
ATOM     14  C   UNL     1      -1.263   1.490   0.314  0.00  0.00    +0.036 A 
ATOM     15  C   UNL     1      -1.393   2.873   0.258  0.00  0.00    +0.024 A 
ATOM     16  C   UNL     1      -2.646   3.451   0.286  0.00  0.00    +0.007 A 
BRANCH   5  18
ATOM     17  C   UNL     1      -5.537  -3.187   0.102  0.00  0.00    +0.017 C 
ATOM     18  C   UNL     1      -5.921  -1.733   0.381  0.00  0.00    +0.069 C 
ATOM     19  C   UNL     1      -6.546  -1.629   1.774  0.00  0.00    +0.017 C 
ENDBRANCH   5  18
ENDBRANCH   1  14
BRANCH   2  20
ATOM     20  C   UNL     1       2.374   0.910  -0.388  0.00  0.00    +0.299 C 
ATOM     21  O   UNL     1       2.609  -0.058   0.305  0.00  0.00    -0.265 OA
ATOM     22  N   UNL     1       3.361   1.478  -1.109  0.00  0.00    -0.307 N 
ATOM     23  H   UNL     1       3.173   2.252  -1.663  0.00  0.00    +0.149 HD
BRANCH  22  24
ATOM     24  C   UNL     1       4.717   0.927  -1.056  0.00  0.00    +0.109 C 
BRANCH  24  25
ATOM     25  C   UNL     1       5.638   1.750  -1.959  0.00  0.00    +0.054 C 
BRANCH  25  26
ATOM     26  C   UNL     1       7.033   1.183  -1.905  0.00  0.00    -0.046 A 
ATOM     27  C   UNL     1       7.932   1.649  -0.963  0.00  0.00    +0.005 A 
ATOM     28  C   UNL     1       9.210   1.125  -0.911  0.00  0.00    +0.029 A 
ATOM     29  C   UNL     1       9.593   0.144  -1.806  0.00  0.00    +0.105 A 
ATOM     30  C   UNL     1       8.695  -0.318  -2.750  0.00  0.00    +0.029 A 
ATOM     31  C   UNL     1       7.416   0.202  -2.800  0.00  0.00    +0.005 A 
BRANCH  29  32
ATOM     32  S   UNL     1      11.224  -0.520  -1.741  0.00  0.00    +0.056 S 
ATOM     33  O   UNL     1      11.696  -0.310  -0.418  0.00  0.00    -0.153 OA
ATOM     34  O   UNL     1      11.160  -1.811  -2.331  0.00  0.00    -0.153 OA
BRANCH  32  35
ATOM     35  N   UNL     1      12.169   0.408  -2.735  0.00  0.00    -0.204 NA
ATOM     36  H   UNL     1      13.113   0.520  -2.540  0.00  0.00    +0.144 HD
ATOM     37  H   UNL     1      11.780   0.840  -3.511  0.00  0.00    +0.144 HD
ENDBRANCH  32  35
ENDBRANCH  29  32
ENDBRANCH  25  26
ENDBRANCH  24  25
ENDBRANCH  22  24
ENDBRANCH   2  20
TORSDOF 8
