REMARK  Name = ZINC47147029
REMARK  5 active torsions:
REMARK  status: ('A' for Active; 'I' for Inactive)
REMARK    1  A    between atoms: C_1  and  O_2
REMARK    2  A    between atoms: O_2  and  C_3
REMARK    3  A    between atoms: C_6  and  C_9
REMARK    4  A    between atoms: N_25  and  C_28
REMARK    5  A    between atoms: C_33  and  C_34
REMARK                            x       y       z     vdW  Elec       q    Type
REMARK                         _______ _______ _______ _____ _____    ______ ____
ROOT
ATOM      1  C   UNL     1       2.505  -2.503  -4.381  0.00  0.00    +0.072 C 
ATOM      2  C   UNL     1       3.734  -3.179  -3.892  0.00  0.00    +0.033 A 
ATOM      3  C   UNL     1       4.167  -4.427  -4.146  0.00  0.00    +0.088 A 
ATOM      4  N   UNL     1       5.373  -4.752  -3.566  0.00  0.00    -0.311 N 
ATOM      5  H   UNL     1       5.763  -5.627  -3.717  0.00  0.00    +0.170 HD
ATOM      6  C   UNL     1       6.011  -3.856  -2.791  0.00  0.00    +0.289 A 
ATOM      7  O   UNL     1       7.071  -3.983  -2.205  0.00  0.00    -0.260 OA
ATOM      8  S   UNL     1       4.992  -2.518  -2.828  0.00  0.00    -0.030 S 
ATOM      9  S   UNL     1       3.214  -5.549  -5.136  0.00  0.00    -0.093 S 
ATOM     10  C   UNL     1       2.026  -4.469  -5.996  0.00  0.00    +0.152 C 
ATOM     11  C   UNL     1       1.513  -3.384  -5.041  0.00  0.00    +0.110 C 
ATOM     12  C   UNL     1       0.502  -4.103  -4.205  0.00  0.00    +0.232 C 
ATOM     13  O   UNL     1       0.164  -3.831  -3.073  0.00  0.00    -0.274 OA
ATOM     14  N   UNL     1       0.041  -5.120  -4.971  0.00  0.00    -0.209 N 
ATOM     15  C   UNL     1       0.735  -5.298  -6.116  0.00  0.00    +0.240 C 
ATOM     16  O   UNL     1       0.407  -5.987  -7.058  0.00  0.00    -0.274 OA
ENDROOT
BRANCH   1  20
ATOM     17  C   UNL     1       0.606  -0.607  -1.056  0.00  0.00    +0.120 A 
ATOM     18  C   UNL     1       0.526  -0.038  -2.318  0.00  0.00    +0.046 A 
ATOM     19  C   UNL     1       1.141  -0.653  -3.392  0.00  0.00    +0.008 A 
ATOM     20  C   UNL     1       1.835  -1.835  -3.209  0.00  0.00    -0.038 A 
ATOM     21  C   UNL     1       1.916  -2.404  -1.951  0.00  0.00    +0.008 A 
ATOM     22  C   UNL     1       1.308  -1.790  -0.873  0.00  0.00    +0.046 A 
BRANCH  17  24
ATOM     23  C   UNL     1      -0.703   1.211  -0.260  0.00  0.00    +0.277 C 
ATOM     24  O   UNL     1       0.002  -0.004   0.002  0.00  0.00    -0.495 OA
ENDBRANCH  17  24
ENDBRANCH   1  20
BRANCH  14  25
ATOM     25  C   UNL     1      -1.062  -5.908  -4.614  0.00  0.00    +0.056 A 
ATOM     26  C   UNL     1      -2.340  -5.540  -5.014  0.00  0.00    +0.024 A 
ATOM     27  C   UNL     1      -3.424  -6.318  -4.660  0.00  0.00    +0.002 A 
ATOM     28  C   UNL     1      -3.238  -7.465  -3.909  0.00  0.00    +0.001 A 
ATOM     29  C   UNL     1      -1.968  -7.834  -3.509  0.00  0.00    +0.014 A 
ATOM     30  C   UNL     1      -0.878  -7.062  -3.865  0.00  0.00    +0.077 A 
BRANCH  30  31
ATOM     31  C   UNL     1       0.507  -7.469  -3.434  0.00  0.00    +0.419 C 
ATOM     32  F   UNL     1       0.437  -8.656  -2.696  0.00  0.00    -0.166 F 
ATOM     33  F   UNL     1       1.307  -7.670  -4.565  0.00  0.00    -0.166 F 
ATOM     34  F   UNL     1       1.065  -6.460  -2.642  0.00  0.00    -0.166 F 
ENDBRANCH  30  31
ENDBRANCH  14  25
TORSDOF 4
