REMARK  Name = ZINC25245773
REMARK  6 active torsions:
REMARK  status: ('A' for Active; 'I' for Inactive)
REMARK    1  A    between atoms: C_1  and  C_2
REMARK    2  A    between atoms: C_4  and  O_5
REMARK    3  A    between atoms: C_14  and  C_16
REMARK    4  A    between atoms: C_19  and  S_22
REMARK    5  A    between atoms: S_22  and  C_23
REMARK    6  A    between atoms: C_23  and  C_24
REMARK                            x       y       z     vdW  Elec       q    Type
REMARK                         _______ _______ _______ _____ _____    ______ ____
ROOT
ATOM      1  C   UNL     1      10.926  -2.117   1.061  0.00  0.00    +0.045 C 
ATOM      2  C   UNL     1       9.753  -2.707   0.321  0.00  0.00    -0.033 A 
ATOM      3  C   UNL     1       9.848  -3.920  -0.283  0.00  0.00    +0.091 A 
ATOM      4  C   UNL     1       8.736  -4.450  -0.970  0.00  0.00    +0.285 A 
ATOM      5  O   UNL     1       7.573  -3.786  -1.047  0.00  0.00    -0.425 OA
ATOM      6  C   UNL     1       7.412  -2.576  -0.469  0.00  0.00    +0.141 A 
ATOM      7  C   UNL     1       8.481  -1.988   0.233  0.00  0.00    +0.021 A 
ATOM      8  C   UNL     1       8.319  -0.734   0.835  0.00  0.00    +0.013 A 
ATOM      9  C   UNL     1       7.125  -0.082   0.734  0.00  0.00    +0.024 A 
ATOM     10  C   UNL     1       6.060  -0.662   0.045  0.00  0.00    +0.037 A 
ATOM     11  C   UNL     1       6.203  -1.904  -0.557  0.00  0.00    +0.070 A 
ATOM     12  N   UNL     1       4.844   0.014  -0.045  0.00  0.00    -0.281 N 
ATOM     13  C   UNL     1       3.687  -0.677  -0.033  0.00  0.00    +0.248 C 
ATOM     14  O   UNL     1       3.704  -1.893  -0.029  0.00  0.00    -0.270 OA
ATOM     15  H   UNL     1       4.829   1.111  -0.125  0.00  0.00    +0.155 HD
ENDROOT
BRANCH  13  16
ATOM     16  C   UNL     1       2.399   0.042  -0.026  0.00  0.00    +0.037 A 
ATOM     17  C   UNL     1       1.197  -0.674  -0.014  0.00  0.00    +0.014 A 
ATOM     18  C   UNL     1       0.002  -0.003  -0.008  0.00  0.00    +0.015 A 
ATOM     19  C   UNL     1      -0.017   1.390  -0.014  0.00  0.00    +0.008 A 
ATOM     20  C   UNL     1       1.179   2.105  -0.026  0.00  0.00    +0.015 A 
ATOM     21  C   UNL     1       2.377   1.440  -0.032  0.00  0.00    +0.014 A 
BRANCH  19  22
ATOM     22  S   UNL     1      -1.555   2.249  -0.014  0.00  0.00    -0.119 S 
BRANCH  22  23
ATOM     23  C   UNL     1      -1.081   4.000  -0.022  0.00  0.00    +0.130 C 
BRANCH  23  24
ATOM     24  C   UNL     1      -2.321   4.856  -0.023  0.00  0.00    +0.059 A 
ATOM     25  C   UNL     1      -2.893   5.251  -1.189  0.00  0.00    +0.070 A 
ATOM     26  S   UNL     1      -4.274   6.202  -0.572  0.00  0.00    -0.084 S 
ATOM     27  C   UNL     1      -3.952   5.991   1.122  0.00  0.00    +0.156 A 
ATOM     28  N   UNL     1      -2.872   5.245   1.108  0.00  0.00    -0.252 NA
ENDBRANCH  23  24
ENDBRANCH  22  23
ENDBRANCH  19  22
ENDBRANCH  13  16
BRANCH   4  29
ATOM     29  O   UNL     1       8.835  -5.539  -1.506  0.00  0.00    -0.480 OA
ATOM     30  H   UNL     1       7.976  -5.966  -2.046  0.00  0.00    +0.295 HD
ENDBRANCH   4  29
TORSDOF 5
