REMARK  Name = ZINC64998668
REMARK  10 active torsions:
REMARK  status: ('A' for Active; 'I' for Inactive)
REMARK    1  A    between atoms: C_1  and  C_2
REMARK    2  A    between atoms: C_2  and  O_3
REMARK    3  A    between atoms: O_3  and  C_4
REMARK    4  A    between atoms: C_7  and  N_10
REMARK    5  A    between atoms: C_11  and  C_31
REMARK    6  A    between atoms: C_12  and  C_15
REMARK    7  A    between atoms: C_17  and  C_30
REMARK    8  A    between atoms: C_18  and  C_20
REMARK    9  A    between atoms: N_22  and  C_23
REMARK   10  A    between atoms: C_26  and  C_29
REMARK                            x       y       z     vdW  Elec       q    Type
REMARK                         _______ _______ _______ _____ _____    ______ ____
ROOT
ATOM      1  C   UNL     1      -3.562  -9.143   0.809  0.00  0.00    +0.131 A 
ATOM      2  N   UNL     1      -4.649  -9.107   1.562  0.00  0.00    -0.242 NA
ATOM      3  C   UNL     1      -5.278 -10.200   1.906  0.00  0.00    +0.058 A 
ATOM      4  C   UNL     1      -4.742 -11.394   1.438  0.00  0.00    +0.097 A 
ATOM      5  S   UNL     1      -3.341 -10.785   0.513  0.00  0.00    -0.061 S 
ATOM      6  C   UNL     1      -6.516 -10.168   2.764  0.00  0.00    +0.067 C 
ENDROOT
BRANCH   1   9
ATOM      7  N   UNL     1      -1.989  -5.991  -0.011  0.00  0.00    -0.217 N 
ATOM      8  C   UNL     1      -2.967  -6.692   0.609  0.00  0.00    +0.072 A 
ATOM      9  C   UNL     1      -2.740  -8.010   0.336  0.00  0.00    +0.141 A 
ATOM     10  N   UNL     1      -1.644  -8.104  -0.435  0.00  0.00    -0.127 NA
ATOM     11  N   UNL     1      -1.176  -6.927  -0.666  0.00  0.00    -0.060 NA
ATOM     12  C   UNL     1      -4.089  -6.126   1.440  0.00  0.00    +0.068 C 
BRANCH   7  16
ATOM     13  C   UNL     1      -1.498  -1.849   0.006  0.00  0.00    +0.121 A 
ATOM     14  C   UNL     1      -0.387  -2.679  -0.003  0.00  0.00    +0.048 A 
ATOM     15  C   UNL     1      -0.548  -4.050  -0.009  0.00  0.00    +0.031 A 
ATOM     16  C   UNL     1      -1.824  -4.598  -0.005  0.00  0.00    +0.068 A 
ATOM     17  C   UNL     1      -2.936  -3.767   0.005  0.00  0.00    +0.031 A 
ATOM     18  C   UNL     1      -2.773  -2.396   0.016  0.00  0.00    +0.048 A 
BRANCH  13  19
ATOM     19  O   UNL     1      -1.339  -0.499   0.012  0.00  0.00    -0.492 OA
BRANCH  19  21
ATOM     20  C   UNL     1      -0.019   1.526   0.010  0.00  0.00    +0.048 C 
ATOM     21  C   UNL     1       0.002  -0.004   0.002  0.00  0.00    +0.225 C 
ENDBRANCH  19  21
ENDBRANCH  13  19
ENDBRANCH   7  16
ENDBRANCH   1   9
BRANCH   4  22
ATOM     22  C   UNL     1      -5.201 -12.769   1.643  0.00  0.00    +0.253 C 
ATOM     23  O   UNL     1      -6.195 -12.986   2.311  0.00  0.00    -0.270 OA
ATOM     24  N   UNL     1      -4.524 -13.795   1.091  0.00  0.00    -0.308 N 
ATOM     25  H   UNL     1      -3.732 -13.623   0.558  0.00  0.00    +0.149 HD
BRANCH  24  26
ATOM     26  C   UNL     1      -4.983 -15.171   1.295  0.00  0.00    +0.073 C 
ATOM     27  C   UNL     1      -6.054 -15.511   0.256  0.00  0.00    +0.022 C 
ATOM     28  C   UNL     1      -6.534 -16.948   0.470  0.00  0.00    +0.005 C 
ATOM     29  C   UNL     1      -5.352 -17.908   0.318  0.00  0.00    -0.014 C 
ATOM     30  C   UNL     1      -4.282 -17.568   1.357  0.00  0.00    +0.005 C 
ATOM     31  C   UNL     1      -3.802 -16.131   1.143  0.00  0.00    +0.022 C 
ATOM     32  C   UNL     1      -5.832 -19.345   0.531  0.00  0.00    +0.007 C 
ENDBRANCH  24  26
ENDBRANCH   4  22
TORSDOF 6
