REMARK  Name = ZINC43737020
REMARK  9 active torsions:
REMARK  status: ('A' for Active; 'I' for Inactive)
REMARK    1  A    between atoms: C_1  and  C_2
REMARK    2  A    between atoms: C_2  and  C_4
REMARK    3  A    between atoms: C_10  and  C_38
REMARK    4  A    between atoms: C_20  and  C_37
REMARK    5  A    between atoms: C_23  and  O_26
REMARK    6  A    between atoms: O_26  and  C_27
REMARK    7  A    between atoms: C_27  and  C_29
REMARK    8  A    between atoms: C_29  and  C_30
REMARK    9  A    between atoms: C_30  and  N_31
REMARK                            x       y       z     vdW  Elec       q    Type
REMARK                         _______ _______ _______ _____ _____    ______ ____
ROOT
ATOM      1  C   UNL     1      -0.011  -0.755  -1.297  0.00  0.00    +0.061 C 
ATOM      2  C   UNL     1      -1.454  -1.094  -1.717  0.00  0.00    +0.012 C 
ATOM      3  C   UNL     1      -1.548  -2.637  -1.765  0.00  0.00    +0.005 C 
ATOM      4  C   UNL     1      -0.410  -3.095  -0.834  0.00  0.00    -0.001 C 
ATOM      5  C   UNL     1       0.731  -2.110  -1.147  0.00  0.00    -0.019 C 
ATOM      6  C   UNL     1       1.350  -2.425  -2.511  0.00  0.00    +0.008 C 
ATOM      7  C   UNL     1       1.805  -3.880  -2.569  0.00  0.00    +0.005 C 
ATOM      8  C   UNL     1       0.579  -4.788  -2.414  0.00  0.00    +0.003 C 
ATOM      9  C   UNL     1      -0.029  -4.540  -1.053  0.00  0.00    +0.000 C 
ATOM     10  C   UNL     1      -1.276  -5.426  -0.934  0.00  0.00    +0.031 C 
ATOM     11  C   UNL     1      -0.897  -6.854  -1.197  0.00  0.00    -0.027 C 
ATOM     12  C   UNL     1       0.120  -7.193  -1.933  0.00  0.00    -0.064 C 
ATOM     13  C   UNL     1       1.011  -6.238  -2.562  0.00  0.00    -0.008 C 
ATOM     14  C   UNL     1       1.133  -6.601  -4.045  0.00  0.00    +0.015 C 
ATOM     15  C   UNL     1       1.560  -8.065  -4.173  0.00  0.00    +0.046 C 
ATOM     16  C   UNL     1       0.484  -8.972  -3.573  0.00  0.00    +0.180 C 
ATOM     17  C   UNL     1       0.400  -8.672  -2.139  0.00  0.00    +0.075 C 
ATOM     18  C   UNL     1       2.399  -6.388  -1.936  0.00  0.00    +0.016 C 
ATOM     19  C   UNL     1       1.776  -2.072  -0.030  0.00  0.00    +0.012 C 
ENDROOT
BRANCH   1  21
ATOM     20  C   UNL     1       1.098   0.945   0.345  0.00  0.00    +0.086 C 
ATOM     21  C   UNL     1      -0.014  -0.018   0.018  0.00  0.00    +0.134 C 
ATOM     22  O   UNL     1      -0.908  -0.200   0.809  0.00  0.00    -0.297 OA
ENDBRANCH   1  21
BRANCH  16  23
ATOM     23  O   UNL     1      -0.766  -8.716  -4.215  0.00  0.00    -0.461 OA
BRANCH  23  24
ATOM     24  C   UNL     1      -1.628  -9.741  -4.303  0.00  0.00    +0.306 C 
ATOM     25  O   UNL     1      -1.330 -10.821  -3.850  0.00  0.00    -0.251 OA
BRANCH  24  26
ATOM     26  C   UNL     1      -2.967  -9.546  -4.966  0.00  0.00    +0.102 C 
BRANCH  26  27
ATOM     27  C   UNL     1      -3.749 -10.861  -4.933  0.00  0.00    -0.068 C 
BRANCH  27  28
ATOM     28  N   UNL     1      -5.054 -10.670  -5.579  0.00  0.00    +0.380 N 
ATOM     29  C   UNL     1      -5.850  -9.715  -4.799  0.00  0.00    -0.079 C 
ATOM     30  C   UNL     1      -7.179  -9.451  -5.511  0.00  0.00    -0.019 C 
ATOM     31  C   UNL     1      -7.949 -10.768  -5.648  0.00  0.00    -0.004 C 
ATOM     32  C   UNL     1      -7.079 -11.781  -6.399  0.00  0.00    -0.019 C 
ATOM     33  C   UNL     1      -5.754 -11.958  -5.654  0.00  0.00    -0.079 C 
ATOM     34  H   UNL     1      -4.917 -10.309  -6.511  0.00  0.00    -0.082 HD
ENDBRANCH  27  28
ENDBRANCH  26  27
ENDBRANCH  24  26
ENDBRANCH  23  24
ENDBRANCH  16  23
TORSDOF 6
