REMARK  Name = ZINC03241461
REMARK  8 active torsions:
REMARK  status: ('A' for Active; 'I' for Inactive)
REMARK    1  A    between atoms: C_1  and  C_2
REMARK    2  A    between atoms: C_2  and  O_3
REMARK    3  A    between atoms: O_3  and  C_4
REMARK    4  A    between atoms: C_9  and  C_10
REMARK    5  A    between atoms: C_13  and  C_35
REMARK    6  A    between atoms: N_15  and  C_28
REMARK    7  A    between atoms: C_20  and  C_26
REMARK    8  A    between atoms: C_20  and  C_27
REMARK                            x       y       z     vdW  Elec       q    Type
REMARK                         _______ _______ _______ _____ _____    ______ ____
ROOT
ATOM      1  C   UNL     1       0.002  -0.004   0.002  0.00  0.00    +0.073 C 
ATOM      2  C   UNL     1      -0.018   1.504   0.010  0.00  0.00    +0.024 A 
ATOM      3  C   UNL     1      -1.121   2.351   0.019  0.00  0.00    +0.066 A 
ATOM      4  N   UNL     1      -0.692   3.591   0.024  0.00  0.00    -0.170 NA
ATOM      5  N   UNL     1       0.712   3.576   0.010  0.00  0.00    -0.218 N 
ATOM      6  C   UNL     1       1.105   2.284   0.004  0.00  0.00    +0.130 A 
ATOM      7  N   UNL     1       2.395   1.745  -0.006  0.00  0.00    -0.302 N 
ATOM      8  C   UNL     1       2.451   0.351  -0.209  0.00  0.00    +0.017 C 
ATOM      9  C   UNL     1       3.405  -0.141  -0.952  0.00  0.00    -0.001 C 
ATOM     10  C   UNL     1       3.582  -1.604  -1.236  0.00  0.00    -0.008 C 
ATOM     11  C   UNL     1       2.216  -2.300  -1.201  0.00  0.00    +0.085 C 
ATOM     12  C   UNL     1       1.551  -1.935   0.107  0.00  0.00    +0.144 C 
ATOM     13  O   UNL     1       1.157  -2.797   0.856  0.00  0.00    -0.297 OA
ATOM     14  C   UNL     1       1.388  -0.481   0.461  0.00  0.00    +0.111 C 
ATOM     15  C   UNL     1       4.210  -1.783  -2.619  0.00  0.00    +0.016 C 
ATOM     16  C   UNL     1       4.497  -2.222  -0.177  0.00  0.00    +0.016 C 
ATOM     17  C   UNL     1      -2.565   1.919   0.026  0.00  0.00    +0.068 C 
ATOM     18  H   UNL     1       3.190   2.288   0.116  0.00  0.00    +0.153 HD
ENDROOT
BRANCH   5  19
ATOM     19  C   UNL     1       1.553   4.698   0.004  0.00  0.00    +0.068 A 
ATOM     20  C   UNL     1       2.762   4.664   0.687  0.00  0.00    +0.030 A 
ATOM     21  C   UNL     1       3.591   5.769   0.676  0.00  0.00    +0.040 A 
ATOM     22  C   UNL     1       3.212   6.913  -0.006  0.00  0.00    +0.124 A 
ATOM     23  C   UNL     1       2.005   6.950  -0.683  0.00  0.00    +0.040 A 
ATOM     24  C   UNL     1       1.176   5.846  -0.679  0.00  0.00    +0.030 A 
ATOM     25  F   UNL     1       4.023   7.994  -0.012  0.00  0.00    -0.205 F 
ENDBRANCH   5  19
BRANCH   1  31
ATOM     26  C   UNL     1      -2.070  -1.339   0.464  0.00  0.00    +0.124 A 
ATOM     27  C   UNL     1      -3.038  -1.821   1.334  0.00  0.00    +0.046 A 
ATOM     28  C   UNL     1      -2.984  -1.494   2.675  0.00  0.00    +0.004 A 
ATOM     29  C   UNL     1      -1.967  -0.686   3.150  0.00  0.00    +0.001 A 
ATOM     30  C   UNL     1      -0.999  -0.209   2.287  0.00  0.00    +0.008 A 
ATOM     31  C   UNL     1      -1.051  -0.529   0.944  0.00  0.00    +0.003 A 
BRANCH  26  32
ATOM     32  O   UNL     1      -2.120  -1.659  -0.856  0.00  0.00    -0.492 OA
BRANCH  32  34
ATOM     33  C   UNL     1      -3.088  -2.747  -2.785  0.00  0.00    +0.048 C 
ATOM     34  C   UNL     1      -3.198  -2.497  -1.279  0.00  0.00    +0.225 C 
ENDBRANCH  32  34
ENDBRANCH  26  32
ENDBRANCH   1  31
TORSDOF 4
