REMARK  Name = ZINC40814534
REMARK  8 active torsions:
REMARK  status: ('A' for Active; 'I' for Inactive)
REMARK    1  A    between atoms: C_1  and  C_2
REMARK    2  A    between atoms: C_6  and  C_7
REMARK    3  A    between atoms: N_9  and  N_10
REMARK    4  A    between atoms: N_13  and  C_16
REMARK    5  A    between atoms: N_21  and  N_22
REMARK    6  A    between atoms: C_23  and  C_25
REMARK    7  A    between atoms: C_25  and  C_26
REMARK    8  A    between atoms: C_29  and  N_32
REMARK                            x       y       z     vdW  Elec       q    Type
REMARK                         _______ _______ _______ _____ _____    ______ ____
ROOT
ATOM      1  C   UNL     1      -0.018   1.503   0.010  0.00  0.00    +0.048 C 
ATOM      2  C   UNL     1       0.002  -0.004   0.002  0.00  0.00    +0.009 A 
ATOM      3  C   UNL     1       0.009  -0.838  -1.123  0.00  0.00    +0.042 A 
ATOM      4  C   UNL     1       0.027  -2.137  -0.673  0.00  0.00    +0.115 A 
ATOM      5  O   UNL     1       0.035  -2.112   0.658  0.00  0.00    -0.454 OA
ATOM      6  C   UNL     1       0.024  -0.830   1.091  0.00  0.00    +0.194 A 
ATOM      7  C   UNL     1       0.034  -3.327  -1.599  0.00  0.00    +0.075 C 
ATOM      8  C   UNL     1      -0.492  -2.903  -2.974  0.00  0.00    +0.014 C 
ATOM      9  C   UNL     1       0.279  -1.685  -3.495  0.00  0.00    +0.058 C 
ATOM     10  C   UNL     1       0.000  -0.512  -2.566  0.00  0.00    +0.070 C 
ATOM     11  N   UNL     1      -0.228   0.686  -3.008  0.00  0.00    -0.184 NA
ENDROOT
BRANCH   6  12
ATOM     12  C   UNL     1       0.031  -0.400   2.493  0.00  0.00    +0.293 C 
ATOM     13  O   UNL     1       0.016   0.786   2.766  0.00  0.00    -0.265 OA
ATOM     14  N   UNL     1       0.053  -1.317   3.480  0.00  0.00    -0.242 N 
ATOM     15  H   UNL     1       0.065  -2.263   3.263  0.00  0.00    +0.170 HD
BRANCH  14  16
ATOM     16  N   UNL     1       0.060  -0.916   4.786  0.00  0.00    -0.230 NA
ATOM     17  C   UNL     1       1.302  -1.325   5.457  0.00  0.00    +0.087 C 
ATOM     18  C   UNL     1       1.296  -0.806   6.896  0.00  0.00    -0.062 C 
ATOM     19  N   UNL     1       0.132  -1.352   7.608  0.00  0.00    +0.380 N 
ATOM     20  C   UNL     1      -1.101  -0.915   6.941  0.00  0.00    -0.062 C 
ATOM     21  C   UNL     1      -1.115  -1.435   5.502  0.00  0.00    +0.087 C 
ATOM     22  C   UNL     1       0.136  -0.868   8.995  0.00  0.00    -0.096 C 
ATOM     23  H   UNL     1       0.178  -2.360   7.604  0.00  0.00    -0.082 HD
ENDBRANCH  14  16
ENDBRANCH   6  12
BRANCH  11  24
ATOM     24  N   UNL     1      -0.224   0.938  -4.386  0.00  0.00    -0.206 N 
ATOM     25  C   UNL     1      -0.461   2.183  -4.845  0.00  0.00    +0.237 C 
ATOM     26  O   UNL     1      -0.678   3.085  -4.064  0.00  0.00    -0.274 OA
ATOM     27  H   UNL     1      -0.050   0.216  -5.010  0.00  0.00    +0.177 HD
BRANCH  25  28
ATOM     28  C   UNL     1      -0.456   2.453  -6.327  0.00  0.00    +0.132 C 
BRANCH  28  29
ATOM     29  C   UNL     1      -0.746   3.911  -6.572  0.00  0.00    -0.038 A 
ATOM     30  C   UNL     1      -2.050   4.340  -6.727  0.00  0.00    +0.006 A 
ATOM     31  C   UNL     1      -2.316   5.678  -6.952  0.00  0.00    +0.033 A 
ATOM     32  C   UNL     1      -1.277   6.587  -7.022  0.00  0.00    +0.126 A 
ATOM     33  C   UNL     1       0.028   6.158  -6.867  0.00  0.00    +0.033 A 
ATOM     34  C   UNL     1       0.293   4.821  -6.638  0.00  0.00    +0.006 A 
BRANCH  32  35
ATOM     35  N   UNL     1      -1.561   8.019  -7.265  0.00  0.00    +0.056 N 
ATOM     36  O   UNL     1      -2.702   8.394  -7.401  0.00  0.00    -0.126 OA
ATOM     37  O   UNL     1      -0.652   8.814  -7.326  0.00  0.00    -0.126 OA
ENDBRANCH  32  35
ENDBRANCH  28  29
ENDBRANCH  25  28
ENDBRANCH  11  24
TORSDOF 6
