REMARK  Name = ZINC14237894
REMARK  10 active torsions:
REMARK  status: ('A' for Active; 'I' for Inactive)
REMARK    1  A    between atoms: C_1  and  C_2
REMARK    2  A    between atoms: C_2  and  C_3
REMARK    3  A    between atoms: C_2  and  C_4
REMARK    4  A    between atoms: C_4  and  C_6
REMARK    5  A    between atoms: C_4  and  N_66
REMARK    6  A    between atoms: C_17  and  C_18
REMARK    7  A    between atoms: C_17  and  N_66
REMARK    8  A    between atoms: N_20  and  C_21
REMARK    9  A    between atoms: C_25  and  S_27
REMARK   10  A    between atoms: S_27  and  N_30
REMARK                            x       y       z     vdW  Elec       q    Type
REMARK                         _______ _______ _______ _____ _____    ______ ____
ROOT
ATOM      1  C   UNL     1       0.501   1.534   0.070  0.00  0.00    +0.016 C 
ENDROOT
BRANCH   1   2
ATOM      2  C   UNL     1      -0.099   2.163   1.302  0.00  0.00    +0.200 C 
ATOM      3  O   UNL     1      -0.370   1.476   2.263  0.00  0.00    -0.278 OA
ATOM      4  N   UNL     1      -0.334   3.490   1.334  0.00  0.00    -0.287 N 
ATOM      5  H   UNL     1      -0.180   4.029   0.543  0.00  0.00    +0.155 HD
BRANCH   4   6
ATOM      6  C   UNL     1      -0.801   4.089   2.510  0.00  0.00    +0.035 A 
ATOM      7  C   UNL     1      -1.691   3.410   3.331  0.00  0.00    +0.023 A 
ATOM      8  C   UNL     1      -2.146   4.002   4.493  0.00  0.00    +0.004 A 
ATOM      9  C   UNL     1      -1.724   5.274   4.833  0.00  0.00    +0.028 A 
ATOM     10  C   UNL     1      -0.842   5.955   4.015  0.00  0.00    +0.107 A 
ATOM     11  C   UNL     1      -0.379   5.367   2.854  0.00  0.00    +0.051 A 
BRANCH  10  12
ATOM     12  S   UNL     1      -0.307   7.576   4.453  0.00  0.00    +0.061 S 
ATOM     13  O   UNL     1      -0.459   7.687   5.861  0.00  0.00    -0.153 OA
ATOM     14  O   UNL     1       0.939   7.783   3.802  0.00  0.00    -0.153 OA
BRANCH  12  15
ATOM     15  N   UNL     1      -1.377   8.644   3.776  0.00  0.00    -0.177 NA
ATOM     16  C   UNL     1      -1.257   9.247   2.441  0.00  0.00    +0.109 C 
ATOM     17  C   UNL     1      -2.465  10.190   2.254  0.00  0.00    +0.018 C 
ATOM     18  C   UNL     1      -2.888  10.503   3.713  0.00  0.00    +0.018 C 
ATOM     19  C   UNL     1      -2.605   9.152   4.416  0.00  0.00    +0.109 C 
ENDBRANCH  12  15
ENDBRANCH  10  12
ENDBRANCH   4   6
ENDBRANCH   1   2
BRANCH   1  20
ATOM     20  N   UNL     1       0.654   0.085   0.294  0.00  0.00    +0.389 N 
ATOM     21  H   UNL     1       1.339  -0.072   1.043  0.00  0.00    -0.084 HD
ATOM     22  H   UNL     1      -0.251  -0.313   0.570  0.00  0.00    -0.084 HD
BRANCH  20  23
ATOM     23  C   UNL     1       1.121  -0.577  -0.939  0.00  0.00    -0.038 C 
BRANCH  23  24
ATOM     24  C   UNL     1       1.798  -1.875  -0.578  0.00  0.00    -0.057 A 
ATOM     25  C   UNL     1       1.270  -2.673   0.420  0.00  0.00    +0.006 A 
ATOM     26  C   UNL     1       1.886  -3.865   0.757  0.00  0.00    +0.049 A 
ATOM     27  C   UNL     1       3.035  -4.256   0.091  0.00  0.00    +0.162 A 
ATOM     28  C   UNL     1       3.564  -3.455  -0.911  0.00  0.00    +0.162 A 
ATOM     29  C   UNL     1       2.942  -2.265  -1.250  0.00  0.00    +0.051 A 
ATOM     30  O   UNL     1       4.697  -3.849  -1.562  0.00  0.00    -0.488 OA
ATOM     31  C   UNL     1       4.567  -4.997  -2.403  0.00  0.00    +0.232 C 
ATOM     32  C   UNL     1       4.719  -6.277  -1.596  0.00  0.00    +0.082 C 
ATOM     33  C   UNL     1       3.603  -6.456  -0.578  0.00  0.00    +0.232 C 
ATOM     34  O   UNL     1       3.654  -5.428   0.414  0.00  0.00    -0.488 OA
ENDBRANCH  23  24
BRANCH  23  36
ATOM     35  C   UNL     1       0.407  -1.575  -3.115  0.00  0.00    +0.006 C 
ATOM     36  C   UNL     1      -0.075  -0.862  -1.850  0.00  0.00    -0.027 C 
ATOM     37  C   UNL     1      -1.077  -1.753  -1.113  0.00  0.00    +0.006 C 
ENDBRANCH  23  36
ENDBRANCH  20  23
ENDBRANCH   1  20
TORSDOF 8
