REMARK  Name = ZINC40142755
REMARK  10 active torsions:
REMARK  status: ('A' for Active; 'I' for Inactive)
REMARK    1  A    between atoms: C_1  and  C_2
REMARK    2  A    between atoms: C_2  and  C_3
REMARK    3  A    between atoms: C_2  and  C_4
REMARK    4  A    between atoms: C_2  and  C_5
REMARK    5  A    between atoms: C_5  and  C_7
REMARK    6  A    between atoms: C_5  and  N_18
REMARK    7  A    between atoms: C_7  and  N_8
REMARK    8  A    between atoms: C_19  and  C_21
REMARK    9  A    between atoms: C_21  and  C_22
REMARK   10  A    between atoms: C_22  and  N_23
REMARK                            x       y       z     vdW  Elec       q    Type
REMARK                         _______ _______ _______ _____ _____    ______ ____
ROOT
ATOM      1  C   UNL     1       0.627  -0.393  -1.296  0.00  0.00    +0.062 C 
ENDROOT
BRANCH   1   3
ATOM      2  C   UNL     1       0.496   1.828  -0.158  0.00  0.00    +0.012 C 
ATOM      3  C   UNL     1       0.128   0.346  -0.052  0.00  0.00    -0.021 C 
ATOM      4  C   UNL     1       0.781  -0.254   1.194  0.00  0.00    +0.012 C 
ATOM      5  C   UNL     1      -1.392   0.204   0.050  0.00  0.00    +0.012 C 
ENDBRANCH   1   3
BRANCH   1   6
ATOM      6  N   UNL     1       0.001   0.182  -2.489  0.00  0.00    -0.314 N 
ATOM      7  C   UNL     1      -1.146  -0.340  -2.967  0.00  0.00    +0.215 C 
ATOM      8  O   UNL     1      -1.660  -1.286  -2.409  0.00  0.00    -0.276 OA
ATOM      9  H   UNL     1       0.412   0.939  -2.936  0.00  0.00    +0.149 HD
BRANCH   7  10
ATOM     10  C   UNL     1      -1.789   0.251  -4.195  0.00  0.00    +0.119 C 
BRANCH  10  11
ATOM     11  C   UNL     1      -3.068  -0.521  -4.522  0.00  0.00    +0.158 C 
BRANCH  11  12
ATOM     12  N   UNL     1      -3.694   0.053  -5.716  0.00  0.00    -0.210 N 
ATOM     13  C   UNL     1      -3.370  -0.419  -6.943  0.00  0.00    +0.278 A 
ATOM     14  O   UNL     1      -2.564  -1.320  -7.082  0.00  0.00    -0.265 OA
ATOM     15  C   UNL     1      -4.032   0.200  -8.102  0.00  0.00    +0.068 A 
ATOM     16  C   UNL     1      -3.767  -0.217  -9.405  0.00  0.00    +0.015 A 
ATOM     17  C   UNL     1      -4.413   0.393 -10.458  0.00  0.00    +0.001 A 
ATOM     18  C   UNL     1      -5.323   1.416 -10.230  0.00  0.00    +0.002 A 
ATOM     19  C   UNL     1      -5.600   1.842  -8.951  0.00  0.00    +0.030 A 
ATOM     20  C   UNL     1      -4.958   1.240  -7.866  0.00  0.00    +0.100 A 
ATOM     21  N   UNL     1      -5.206   1.634  -6.592  0.00  0.00    -0.131 NA
ATOM     22  N   UNL     1      -4.628   1.085  -5.586  0.00  0.00    -0.062 NA
ENDBRANCH  11  12
ENDBRANCH  10  11
ENDBRANCH   7  10
ENDBRANCH   1   6
BRANCH   1  23
ATOM     23  C   UNL     1       2.147  -0.251  -1.398  0.00  0.00    -0.055 C 
BRANCH  23  24
ATOM     24  N   UNL     1       2.616  -0.893  -2.633  0.00  0.00    +0.384 N 
ATOM     25  C   UNL     1       2.378  -2.342  -2.555  0.00  0.00    -0.074 C 
ATOM     26  C   UNL     1       2.583  -2.946  -3.946  0.00  0.00    +0.017 C 
ATOM     27  C   UNL     1       3.909  -2.498  -4.505  0.00  0.00    -0.048 A 
ATOM     28  C   UNL     1       4.443  -3.189  -5.582  0.00  0.00    +0.004 A 
ATOM     29  C   UNL     1       5.654  -2.807  -6.123  0.00  0.00    +0.000 A 
ATOM     30  C   UNL     1       6.337  -1.730  -5.589  0.00  0.00    +0.000 A 
ATOM     31  C   UNL     1       5.806  -1.043  -4.516  0.00  0.00    +0.002 A 
ATOM     32  C   UNL     1       4.591  -1.427  -3.970  0.00  0.00    -0.061 A 
ATOM     33  C   UNL     1       4.053  -0.654  -2.794  0.00  0.00    -0.043 C 
ATOM     34  H   UNL     1       2.119  -0.510  -3.423  0.00  0.00    -0.081 HD
ENDBRANCH  23  24
ENDBRANCH   1  23
TORSDOF 7
