REMARK  Name = ZINC24951566
REMARK  5 active torsions:
REMARK  status: ('A' for Active; 'I' for Inactive)
REMARK    1  A    between atoms: C_1  and  C_2
REMARK    2  A    between atoms: C_3  and  C_12
REMARK    3  A    between atoms: C_18  and  C_20
REMARK    4  A    between atoms: C_20  and  S_25
REMARK    5  A    between atoms: S_25  and  C_28
REMARK                            x       y       z     vdW  Elec       q    Type
REMARK                         _______ _______ _______ _____ _____    ______ ____
ROOT
ATOM      1  C   UNL     1       3.404   0.549   0.180  0.00  0.00    +0.082 A 
ATOM      2  C   UNL     1       4.039  -0.631  -0.088  0.00  0.00    +0.077 A 
ATOM      3  S   UNL     1       5.738  -0.085  -0.166  0.00  0.00    -0.060 S 
ATOM      4  C   UNL     1       5.453   1.598   0.154  0.00  0.00    +0.165 A 
ATOM      5  N   UNL     1       4.144   1.643   0.290  0.00  0.00    -0.225 NA
ATOM      6  N   UNL     1       6.374   2.635   0.240  0.00  0.00    -0.263 N 
ATOM      7  C   UNL     1       7.673   2.408  -0.035  0.00  0.00    +0.246 C 
ATOM      8  O   UNL     1       8.056   1.280  -0.266  0.00  0.00    -0.273 OA
ATOM      9  H   UNL     1       6.042   3.642   0.533  0.00  0.00    +0.157 HD
ENDROOT
BRANCH   1  12
ATOM     10  C   UNL     1       1.509   2.635  -1.128  0.00  0.00    +0.064 C 
ATOM     11  C   UNL     1       1.090   1.506  -0.223  0.00  0.00    +0.023 A 
ATOM     12  C   UNL     1       1.930   0.604   0.339  0.00  0.00    +0.029 A 
ATOM     13  C   UNL     1       1.097  -0.309   1.138  0.00  0.00    +0.009 A 
ATOM     14  C   UNL     1       1.371  -1.420   1.935  0.00  0.00    +0.010 A 
ATOM     15  C   UNL     1       0.348  -2.073   2.564  0.00  0.00    +0.001 A 
ATOM     16  C   UNL     1      -0.962  -1.638   2.416  0.00  0.00    +0.002 A 
ATOM     17  C   UNL     1      -1.254  -0.545   1.630  0.00  0.00    +0.026 A 
ATOM     18  C   UNL     1      -0.227   0.137   0.984  0.00  0.00    +0.047 A 
ATOM     19  N   UNL     1      -0.197   1.236   0.155  0.00  0.00    -0.358 N 
ATOM     20  H   UNL     1      -1.021   1.868  -0.208  0.00  0.00    +0.166 HD
ENDBRANCH   1  12
BRANCH   7  21
ATOM     21  C   UNL     1       8.651   3.554  -0.057  0.00  0.00    +0.168 C 
ATOM     22  C   UNL     1      10.029   3.082  -0.584  0.00  0.00    +0.039 C 
ATOM     23  C   UNL     1      10.664   2.422   0.665  0.00  0.00    +0.003 C 
ATOM     24  C   UNL     1      10.222   3.323   1.836  0.00  0.00    +0.003 C 
ATOM     25  C   UNL     1       8.941   4.043   1.377  0.00  0.00    +0.039 C 
BRANCH  21  26
ATOM     26  S   UNL     1       8.010   4.913  -1.073  0.00  0.00    +0.011 S 
ATOM     27  O   UNL     1       6.749   5.343  -0.579  0.00  0.00    -0.168 OA
ATOM     28  O   UNL     1       9.042   5.853  -1.340  0.00  0.00    -0.168 OA
BRANCH  26  29
ATOM     29  C   UNL     1       7.654   4.181  -2.636  0.00  0.00    +0.089 A 
ATOM     30  C   UNL     1       8.655   4.045  -3.579  0.00  0.00    +0.027 A 
ATOM     31  C   UNL     1       8.377   3.465  -4.803  0.00  0.00    +0.002 A 
ATOM     32  C   UNL     1       7.096   3.033  -5.088  0.00  0.00    +0.000 A 
ATOM     33  C   UNL     1       6.093   3.175  -4.147  0.00  0.00    +0.002 A 
ATOM     34  C   UNL     1       6.373   3.748  -2.921  0.00  0.00    +0.027 A 
ENDBRANCH  26  29
ENDBRANCH  21  26
ENDBRANCH   7  21
TORSDOF 4
