REMARK  Name = ZINC03575123
REMARK  5 active torsions:
REMARK  status: ('A' for Active; 'I' for Inactive)
REMARK    1  A    between atoms: C_4  and  O_20
REMARK    2  A    between atoms: C_5  and  C_7
REMARK    3  A    between atoms: N_9  and  N_10
REMARK    4  A    between atoms: C_11  and  C_12
REMARK    5  A    between atoms: C_15  and  O_19
REMARK                            x       y       z     vdW  Elec       q    Type
REMARK                         _______ _______ _______ _____ _____    ______ ____
ROOT
ATOM      1  C   UNL     1       1.250  -2.159  -0.023  0.00  0.00    +0.267 C 
ATOM      2  O   UNL     1       2.314  -2.747  -0.037  0.00  0.00    -0.268 OA
ATOM      3  N   UNL     1       0.096  -2.854  -0.015  0.00  0.00    -0.203 N 
ATOM      4  H   UNL     1      -0.753  -2.385  -0.004  0.00  0.00    +0.178 HD
ENDROOT
BRANCH   1   9
ATOM      5  C   UNL     1      -0.017   1.374   0.010  0.00  0.00    +0.001 A 
ATOM      6  C   UNL     1       1.170   2.089   0.002  0.00  0.00    +0.004 A 
ATOM      7  C   UNL     1       2.383   1.430  -0.013  0.00  0.00    +0.046 A 
ATOM      8  C   UNL     1       2.421   0.043  -0.022  0.00  0.00    +0.129 A 
ATOM      9  C   UNL     1       1.223  -0.684  -0.014  0.00  0.00    +0.080 A 
ATOM     10  C   UNL     1       0.002  -0.004   0.002  0.00  0.00    +0.017 A 
BRANCH   8  11
ATOM     11  O   UNL     1       3.612  -0.606  -0.038  0.00  0.00    -0.506 OA
ATOM     12  H   UNL     1       3.966  -0.799   0.841  0.00  0.00    +0.292 HD
ENDBRANCH   8  11
ENDBRANCH   1   9
BRANCH   3  13
ATOM     13  N   UNL     1       0.122  -4.255  -0.024  0.00  0.00    -0.187 NA
ATOM     14  C   UNL     1      -0.990  -4.925  -0.017  0.00  0.00    +0.138 C 
BRANCH  14  15
ATOM     15  C   UNL     1      -0.963  -6.399  -0.026  0.00  0.00    -0.004 A 
ATOM     16  C   UNL     1       0.259  -7.077  -0.036  0.00  0.00    +0.013 A 
ATOM     17  C   UNL     1       0.280  -8.455  -0.045  0.00  0.00    +0.047 A 
ATOM     18  C   UNL     1      -0.910  -9.170  -0.042  0.00  0.00    +0.131 A 
ATOM     19  C   UNL     1      -2.128  -8.500  -0.032  0.00  0.00    +0.060 A 
ATOM     20  C   UNL     1      -2.158  -7.122  -0.018  0.00  0.00    +0.028 A 
ATOM     21 BR   UNL     1      -3.745  -9.481  -0.029  0.00  0.00    -0.047 Br
BRANCH  18  22
ATOM     22  O   UNL     1      -0.884 -10.528  -0.051  0.00  0.00    -0.506 OA
ATOM     23  H   UNL     1      -0.872 -10.927   0.830  0.00  0.00    +0.292 HD
ENDBRANCH  18  22
ENDBRANCH  14  15
ENDBRANCH   3  13
TORSDOF 5
