REMARK  Name = ZINC19770447
REMARK  10 active torsions:
REMARK  status: ('A' for Active; 'I' for Inactive)
REMARK    1  A    between atoms: C_1  and  C_2
REMARK    2  A    between atoms: C_2  and  O_3
REMARK    3  A    between atoms: O_3  and  C_4
REMARK    4  A    between atoms: C_4  and  C_6
REMARK    5  A    between atoms: C_7  and  C_35
REMARK    6  A    between atoms: C_11  and  C_13
REMARK    7  A    between atoms: C_15  and  O_21
REMARK    8  A    between atoms: C_16  and  O_20
REMARK    9  A    between atoms: O_21  and  C_22
REMARK   10  A    between atoms: C_26  and  C_29
REMARK                            x       y       z     vdW  Elec       q    Type
REMARK                         _______ _______ _______ _____ _____    ______ ____
ROOT
ATOM      1  C   UNL     1       1.436   1.470  -0.175  0.00  0.00    +0.065 C 
ATOM      2  C   UNL     1       1.748   2.657  -0.722  0.00  0.00    +0.016 C 
ATOM      3  N   UNL     1       0.790   3.407  -1.345  0.00  0.00    -0.321 N 
ATOM      4  C   UNL     1      -0.374   2.830  -1.778  0.00  0.00    +0.016 C 
ATOM      5  C   UNL     1      -0.782   1.647  -1.272  0.00  0.00    +0.024 C 
ATOM      6  C   UNL     1       0.034   0.936  -0.222  0.00  0.00    +0.092 C 
ATOM      7  C   UNL     1      -1.976   1.046  -1.706  0.00  0.00    +0.162 C 
ATOM      8  O   UNL     1      -2.308  -0.027  -1.241  0.00  0.00    -0.292 OA
ATOM      9  C   UNL     1      -2.851   1.706  -2.737  0.00  0.00    +0.088 C 
ATOM     10  C   UNL     1      -2.667   3.224  -2.648  0.00  0.00    +0.032 C 
ATOM     11  C   UNL     1      -1.182   3.545  -2.833  0.00  0.00    +0.059 C 
ATOM     12  C   UNL     1       3.165   3.165  -0.648  0.00  0.00    +0.061 C 
ATOM     13  H   UNL     1       0.950   4.484  -1.502  0.00  0.00    +0.152 HD
ENDROOT
BRANCH   6  14
ATOM     14  C   UNL     1      -0.615   1.132   1.124  0.00  0.00    -0.030 A 
ATOM     15  C   UNL     1      -1.061   0.037   1.840  0.00  0.00    +0.054 A 
ATOM     16  C   UNL     1      -1.653   0.214   3.080  0.00  0.00    +0.163 A 
ATOM     17  C   UNL     1      -1.808   1.497   3.597  0.00  0.00    +0.177 A 
ATOM     18  C   UNL     1      -1.363   2.591   2.872  0.00  0.00    +0.086 A 
ATOM     19  C   UNL     1      -0.768   2.406   1.636  0.00  0.00    +0.028 A 
ATOM     20 CL   UNL     1      -1.553   4.193   3.513  0.00  0.00    -0.080 Cl
BRANCH  17  21
ATOM     21  O   UNL     1      -2.393   1.676   4.812  0.00  0.00    -0.502 OA
ATOM     22  H   UNL     1      -2.514   2.691   5.220  0.00  0.00    +0.292 HD
ENDBRANCH  17  21
BRANCH  16  23
ATOM     23  O   UNL     1      -2.088  -0.863   3.788  0.00  0.00    -0.491 OA
ATOM     24  C   UNL     1      -1.896  -2.149   3.196  0.00  0.00    +0.277 C 
ENDBRANCH  16  23
ENDBRANCH   6  14
BRANCH  10  25
ATOM     25  C   UNL     1      -3.469   3.896  -3.732  0.00  0.00    -0.044 A 
ATOM     26  C   UNL     1      -3.209   3.613  -5.060  0.00  0.00    +0.004 A 
ATOM     27  C   UNL     1      -3.948   4.226  -6.055  0.00  0.00    +0.000 A 
ATOM     28  C   UNL     1      -4.940   5.129  -5.722  0.00  0.00    +0.000 A 
ATOM     29  C   UNL     1      -5.196   5.416  -4.395  0.00  0.00    +0.000 A 
ATOM     30  C   UNL     1      -4.460   4.800  -3.400  0.00  0.00    +0.004 A 
ENDBRANCH  10  25
BRANCH   1  31
ATOM     31  C   UNL     1       2.447   0.709   0.456  0.00  0.00    +0.338 C 
ATOM     32  O   UNL     1       3.608   1.069   0.394  0.00  0.00    -0.245 OA
BRANCH  31  33
ATOM     33  O   UNL     1       2.125  -0.418   1.125  0.00  0.00    -0.462 OA
BRANCH  33  35
ATOM     34  C   UNL     1       2.642  -2.375   2.446  0.00  0.00    +0.048 C 
ATOM     35  C   UNL     1       3.197  -1.137   1.738  0.00  0.00    +0.229 C 
ENDBRANCH  33  35
ENDBRANCH  31  33
ENDBRANCH   1  31
TORSDOF 7
