REMARK  Name = ZINC11872242
REMARK  12 active torsions:
REMARK  status: ('A' for Active; 'I' for Inactive)
REMARK    1  A    between atoms: C_1  and  C_2
REMARK    2  A    between atoms: C_6  and  C_7
REMARK    3  A    between atoms: N_9  and  C_10
REMARK    4  A    between atoms: N_9  and  C_14
REMARK    5  A    between atoms: C_10  and  C_11
REMARK    6  A    between atoms: C_11  and  N_66
REMARK    7  A    between atoms: C_12  and  N_66
REMARK    8  A    between atoms: C_13  and  N_66
REMARK    9  A    between atoms: C_14  and  C_15
REMARK   10  A    between atoms: C_23  and  N_24
REMARK   11  A    between atoms: C_28  and  C_31
REMARK   12  A    between atoms: C_31  and  O_32
REMARK                            x       y       z     vdW  Elec       q    Type
REMARK                         _______ _______ _______ _____ _____    ______ ____
ROOT
ATOM      1  C   UNL     1      -3.492   3.425   0.351  0.00  0.00    +0.008 A 
ATOM      2  C   UNL     1      -2.528   4.368   0.545  0.00  0.00    +0.018 A 
ATOM      3  C   UNL     1      -1.189   3.943   0.651  0.00  0.00    -0.001 A 
ATOM      4  C   UNL     1      -0.144   4.864   0.832  0.00  0.00    +0.013 A 
ATOM      5  C   UNL     1       1.138   4.418   0.930  0.00  0.00    +0.039 A 
ATOM      6  C   UNL     1       1.429   3.055   0.853  0.00  0.00    +0.125 A 
ATOM      7  C   UNL     1       0.439   2.135   0.677  0.00  0.00    +0.064 A 
ATOM      8  C   UNL     1      -0.896   2.559   0.566  0.00  0.00    +0.050 A 
ATOM      9  C   UNL     1      -3.139   2.070   0.282  0.00  0.00    +0.104 A 
ATOM     10  F   UNL     1       2.711   2.642   0.954  0.00  0.00    -0.205 F 
ATOM     11  N   UNL     1      -1.870   1.603   0.383  0.00  0.00    -0.343 N 
ATOM     12  H   UNL     1      -1.649   0.602   0.327  0.00  0.00    +0.167 HD
ENDROOT
BRANCH   9  13
ATOM     13  N   UNL     1      -4.133   1.120   0.097  0.00  0.00    -0.316 N 
ATOM     14  C   UNL     1      -4.447   0.957  -1.328  0.00  0.00    +0.106 C 
ATOM     15  C   UNL     1      -5.642   0.013  -1.484  0.00  0.00    +0.019 C 
ATOM     16  C   UNL     1      -5.300  -1.342  -0.859  0.00  0.00    +0.009 C 
ATOM     17  C   UNL     1      -4.930  -1.138   0.613  0.00  0.00    +0.032 C 
ATOM     18  C   UNL     1      -3.756  -0.162   0.708  0.00  0.00    +0.112 C 
BRANCH  17  19
ATOM     19  C   UNL     1      -4.529  -2.480   1.230  0.00  0.00    +0.160 C 
BRANCH  19  20
ATOM     20  O   UNL     1      -5.659  -3.355   1.242  0.00  0.00    -0.395 OA
ATOM     21  H   UNL     1      -5.478  -4.226   1.621  0.00  0.00    +0.209 HD
ENDBRANCH  19  20
ENDBRANCH  17  19
ENDBRANCH   9  13
BRANCH   1  22
ATOM     22  C   UNL     1      -4.936   3.836   0.226  0.00  0.00    +0.146 C 
BRANCH  22  25
ATOM     23  C   UNL     1      -6.303   2.639   1.850  0.00  0.00    +0.254 C 
ATOM     24  O   UNL     1      -6.332   1.692   1.087  0.00  0.00    -0.269 OA
ATOM     25  N   UNL     1      -5.587   3.737   1.535  0.00  0.00    -0.294 N 
BRANCH  23  31
ATOM     26  C   UNL     1      -7.745   0.162   3.031  0.00  0.00    +0.045 C 
ATOM     27  C   UNL     1      -7.710   1.516   3.692  0.00  0.00    -0.031 A 
ATOM     28  C   UNL     1      -8.329   1.742   4.896  0.00  0.00    +0.011 A 
ATOM     29  C   UNL     1      -8.275   2.982   5.447  0.00  0.00    +0.046 A 
ATOM     30  S   UNL     1      -7.341   3.885   4.299  0.00  0.00    -0.092 S 
ATOM     31  C   UNL     1      -7.047   2.586   3.112  0.00  0.00    +0.077 A 
ENDBRANCH  23  31
BRANCH  25  32
ATOM     32  C   UNL     1      -5.460   4.830   2.501  0.00  0.00    +0.090 C 
BRANCH  32  33
ATOM     33  C   UNL     1      -6.547   5.874   2.236  0.00  0.00    -0.060 C 
BRANCH  33  36
ATOM     34  C   UNL     1      -7.286   8.100   2.839  0.00  0.00    -0.097 C 
ATOM     35  C   UNL     1      -6.707   6.506   4.568  0.00  0.00    -0.097 C 
ATOM     36  N   UNL     1      -6.392   6.980   3.204  0.00  0.00    +0.377 N 
ATOM     37  H   UNL     1      -5.419   7.309   3.182  0.00  0.00    -0.083 HD
ENDBRANCH  33  36
ENDBRANCH  32  33
ENDBRANCH  25  32
ENDBRANCH  22  25
ENDBRANCH   1  22
TORSDOF 9
