REMARK  Name = ZINC04177310
REMARK  10 active torsions:
REMARK  status: ('A' for Active; 'I' for Inactive)
REMARK    1  A    between atoms: C_1  and  C_2
REMARK    2  A    between atoms: C_2  and  O_3
REMARK    3  A    between atoms: O_3  and  C_4
REMARK    4  A    between atoms: C_4  and  C_6
REMARK    5  A    between atoms: C_6  and  C_7
REMARK    6  A    between atoms: C_6  and  N_11
REMARK    7  A    between atoms: C_6  and  N_23
REMARK    8  A    between atoms: N_11  and  C_12
REMARK    9  A    between atoms: C_13  and  C_20
REMARK   10  A    between atoms: C_24  and  C_26
REMARK                            x       y       z     vdW  Elec       q    Type
REMARK                         _______ _______ _______ _____ _____    ______ ____
ROOT
ATOM      1  C   UNL     1       1.675  -2.310  -2.563  0.00  0.00    +0.296 C 
ENDROOT
BRANCH   1   2
ATOM      2  C   UNL     1       1.096  -2.029  -3.951  0.00  0.00    +0.438 C 
ATOM      3  F   UNL     1       0.696  -0.690  -4.027  0.00  0.00    -0.166 F 
ATOM      4  F   UNL     1       2.071  -2.279  -4.923  0.00  0.00    -0.166 F 
ATOM      5  F   UNL     1      -0.008  -2.859  -4.173  0.00  0.00    -0.166 F 
ENDBRANCH   1   2
BRANCH   1   6
ATOM      6  N   UNL     1       2.919  -1.556  -2.391  0.00  0.00    -0.274 N 
ATOM      7  C   UNL     1       2.916  -0.213  -2.513  0.00  0.00    +0.248 C 
ATOM      8  O   UNL     1       1.867   0.380  -2.671  0.00  0.00    -0.270 OA
ATOM      9  H   UNL     1       3.745  -2.022  -2.190  0.00  0.00    +0.152 HD
BRANCH   7  10
ATOM     10  C   UNL     1       4.188   0.537  -2.456  0.00  0.00    +0.055 A 
ATOM     11  C   UNL     1       5.395  -0.142  -2.282  0.00  0.00    +0.014 A 
ATOM     12  C   UNL     1       6.579   0.565  -2.230  0.00  0.00    +0.001 A 
ATOM     13  C   UNL     1       6.572   1.944  -2.349  0.00  0.00    +0.001 A 
ATOM     14  C   UNL     1       5.380   2.623  -2.522  0.00  0.00    +0.021 A 
ATOM     15  C   UNL     1       4.188   1.928  -2.582  0.00  0.00    +0.053 A 
ATOM     16 CL   UNL     1       2.693   2.782  -2.807  0.00  0.00    -0.083 Cl
ENDBRANCH   7  10
ENDBRANCH   1   6
BRANCH   1  17
ATOM     17  C   UNL     1       0.683  -1.889  -1.510  0.00  0.00    +0.359 C 
ATOM     18  O   UNL     1       0.048  -2.724  -0.911  0.00  0.00    -0.246 OA
BRANCH  17  19
ATOM     19  O   UNL     1       0.505  -0.587  -1.238  0.00  0.00    -0.462 OA
BRANCH  19  21
ATOM     20  C   UNL     1      -0.516   1.259  -0.058  0.00  0.00    +0.048 C 
ATOM     21  C   UNL     1      -0.452  -0.260  -0.228  0.00  0.00    +0.229 C 
ENDBRANCH  19  21
ENDBRANCH  17  19
ENDBRANCH   1  17
BRANCH   1  22
ATOM     22  N   UNL     1       1.951  -3.743  -2.430  0.00  0.00    -0.301 N 
ATOM     23  H   UNL     1       2.862  -4.052  -2.308  0.00  0.00    +0.149 HD
BRANCH  22  24
ATOM     24  C   UNL     1       0.912  -4.653  -2.480  0.00  0.00    +0.080 A 
ATOM     25  C   UNL     1       0.992  -6.035  -2.492  0.00  0.00    +0.068 A 
ATOM     26  C   UNL     1      -0.268  -6.777  -2.547  0.00  0.00    -0.023 A 
ATOM     27  C   UNL     1      -1.362  -5.998  -2.582  0.00  0.00    -0.004 A 
ATOM     28  S   UNL     1      -0.734  -4.339  -2.533  0.00  0.00    -0.078 S 
ATOM     29  C   UNL     1      -2.628  -6.810  -2.643  0.00  0.00    +0.043 C 
ATOM     30  C   UNL     1      -2.166  -8.220  -3.075  0.00  0.00    +0.010 C 
ATOM     31  C   UNL     1      -0.707  -8.239  -2.576  0.00  0.00    +0.037 C 
BRANCH  25  32
ATOM     32  C   UNL     1       2.283  -6.725  -2.451  0.00  0.00    +0.244 C 
ATOM     33  O   UNL     1       2.780  -7.024  -1.380  0.00  0.00    -0.270 OA
ATOM     34  N   UNL     1       2.921  -7.030  -3.598  0.00  0.00    -0.325 N 
ATOM     35  H   UNL     1       2.525  -6.792  -4.451  0.00  0.00    +0.145 HD
ATOM     36  H   UNL     1       3.776  -7.487  -3.571  0.00  0.00    +0.145 HD
ENDBRANCH  25  32
ENDBRANCH  22  24
ENDBRANCH   1  22
TORSDOF 9
