REMARK  Name = ZINC17246326
REMARK  12 active torsions:
REMARK  status: ('A' for Active; 'I' for Inactive)
REMARK    1  A    between atoms: C_1  and  C_2
REMARK    2  A    between atoms: C_7  and  C_10
REMARK    3  A    between atoms: C_11  and  C_13
REMARK    4  A    between atoms: C_13  and  S_14
REMARK    5  A    between atoms: S_14  and  C_15
REMARK    6  A    between atoms: C_18  and  C_20
REMARK    7  A    between atoms: C_20  and  N_21
REMARK    8  A    between atoms: C_22  and  C_24
REMARK    9  A    between atoms: C_27  and  S_30
REMARK   10  A    between atoms: S_30  and  N_33
REMARK   11  A    between atoms: N_33  and  C_34
REMARK   12  A    between atoms: N_33  and  C_35
REMARK                            x       y       z     vdW  Elec       q    Type
REMARK                         _______ _______ _______ _____ _____    ______ ____
ROOT
ATOM      1  C   UNL     1      -2.841  -6.851  -1.310  0.00  0.00    +0.278 A 
ATOM      2  N   UNL     1      -2.135  -7.367  -0.333  0.00  0.00    -0.101 NA
ATOM      3  N   UNL     1      -2.237  -8.649  -0.365  0.00  0.00    -0.110 NA
ATOM      4  C   UNL     1      -3.005  -9.000  -1.354  0.00  0.00    +0.235 A 
ATOM      5  O   UNL     1      -3.411  -7.874  -1.974  0.00  0.00    -0.414 OA
ENDROOT
BRANCH   1   6
ATOM      6  S   UNL     1      -3.017  -5.137  -1.680  0.00  0.00    -0.056 S 
BRANCH   6   7
ATOM      7  C   UNL     1      -2.005  -4.310  -0.422  0.00  0.00    +0.174 C 
BRANCH   7  16
ATOM      8  C   UNL     1      -0.019   1.526   0.010  0.00  0.00    +0.039 C 
ATOM      9  C   UNL     1       0.002  -0.004   0.002  0.00  0.00    +0.133 C 
ATOM     10  C   UNL     1      -1.436  -0.536   0.015  0.00  0.00    +0.139 C 
ATOM     11  N   UNL     1      -1.389  -1.995   0.196  0.00  0.00    -0.296 N 
ATOM     12  C   UNL     1      -0.578  -2.530   1.302  0.00  0.00    +0.139 C 
ATOM     13  C   UNL     1       0.818  -1.901   1.226  0.00  0.00    +0.133 C 
ATOM     14  O   UNL     1       0.691  -0.479   1.161  0.00  0.00    -0.371 OA
ATOM     15  C   UNL     1       1.621  -2.288   2.469  0.00  0.00    +0.039 C 
ATOM     16  C   UNL     1      -2.068  -2.818  -0.627  0.00  0.00    +0.226 C 
ATOM     17  O   UNL     1      -2.731  -2.358  -1.533  0.00  0.00    -0.275 OA
ENDBRANCH   7  16
ENDBRANCH   6   7
ENDBRANCH   1   6
BRANCH   4  18
ATOM     18  C   UNL     1      -3.377 -10.409  -1.736  0.00  0.00    +0.202 C 
BRANCH  18  19
ATOM     19  N   UNL     1      -4.600 -10.800  -1.029  0.00  0.00    -0.303 N 
ATOM     20  C   UNL     1      -5.123 -12.027  -1.216  0.00  0.00    +0.244 C 
ATOM     21  O   UNL     1      -4.582 -12.810  -1.972  0.00  0.00    -0.270 OA
ATOM     22  H   UNL     1      -5.032 -10.175  -0.426  0.00  0.00    +0.150 HD
BRANCH  20  23
ATOM     23  C   UNL     1      -6.357 -12.422  -0.502  0.00  0.00    +0.037 A 
ATOM     24  C   UNL     1      -6.984 -11.523   0.362  0.00  0.00    +0.015 A 
ATOM     25  C   UNL     1      -8.135 -11.897   1.024  0.00  0.00    +0.029 A 
ATOM     26  C   UNL     1      -8.667 -13.160   0.834  0.00  0.00    +0.105 A 
ATOM     27  C   UNL     1      -8.050 -14.056  -0.021  0.00  0.00    +0.029 A 
ATOM     28  C   UNL     1      -6.902 -13.692  -0.694  0.00  0.00    +0.015 A 
BRANCH  26  29
ATOM     29  S   UNL     1     -10.137 -13.630   1.685  0.00  0.00    +0.060 S 
ATOM     30  O   UNL     1     -10.129 -15.049   1.757  0.00  0.00    -0.153 OA
ATOM     31  O   UNL     1     -10.217 -12.808   2.842  0.00  0.00    -0.153 OA
BRANCH  29  32
ATOM     32  N   UNL     1     -11.416 -13.213   0.719  0.00  0.00    -0.183 NA
ATOM     33  C   UNL     1     -11.937 -14.169  -0.261  0.00  0.00    +0.131 C 
ATOM     34  C   UNL     1     -12.027 -11.887   0.844  0.00  0.00    +0.131 C 
ENDBRANCH  29  32
ENDBRANCH  26  29
ENDBRANCH  20  23
ENDBRANCH  18  19
ENDBRANCH   4  18
TORSDOF 8
