REMARK  Name = ZINC36497916
REMARK  12 active torsions:
REMARK  status: ('A' for Active; 'I' for Inactive)
REMARK    1  A    between atoms: C_1  and  C_2
REMARK    2  A    between atoms: C_2  and  C_3
REMARK    3  A    between atoms: C_2  and  C_4
REMARK    4  A    between atoms: C_2  and  N_5
REMARK    5  A    between atoms: C_6  and  C_8
REMARK    6  A    between atoms: C_8  and  C_10
REMARK    7  A    between atoms: C_8  and  N_20
REMARK    8  A    between atoms: C_12  and  N_17
REMARK    9  A    between atoms: N_20  and  C_21
REMARK   10  A    between atoms: C_21  and  C_22
REMARK   11  A    between atoms: C_27  and  C_29
REMARK   12  A    between atoms: C_34  and  O_35
REMARK                            x       y       z     vdW  Elec       q    Type
REMARK                         _______ _______ _______ _____ _____    ______ ____
ROOT
ATOM      1  C   UNL     1       3.207   0.804  -3.759  0.00  0.00    +0.194 C 
ENDROOT
BRANCH   1   2
ATOM      2  C   UNL     1       2.815  -0.649  -3.688  0.00  0.00    +0.002 A 
ATOM      3  C   UNL     1       3.246  -1.431  -2.633  0.00  0.00    +0.040 A 
ATOM      4  C   UNL     1       2.887  -2.764  -2.568  0.00  0.00    +0.127 A 
ATOM      5  C   UNL     1       2.096  -3.317  -3.559  0.00  0.00    +0.034 A 
ATOM      6  C   UNL     1       1.665  -2.536  -4.614  0.00  0.00    +0.022 A 
ATOM      7  C   UNL     1       2.019  -1.200  -4.677  0.00  0.00    +0.047 A 
ATOM      8 CL   UNL     1       1.471  -0.217  -5.998  0.00  0.00    -0.083 Cl
BRANCH   4   9
ATOM      9  N   UNL     1       3.349  -3.601  -1.438  0.00  0.00    +0.056 N 
ATOM     10  O   UNL     1       3.961  -3.098  -0.524  0.00  0.00    -0.126 OA
ATOM     11  O   UNL     1       3.115  -4.787  -1.429  0.00  0.00    -0.126 OA
ENDBRANCH   4   9
ENDBRANCH   1   2
BRANCH   1  13
ATOM     12  N   UNL     1       0.875   1.519  -4.168  0.00  0.00    -0.309 N 
ATOM     13  C   UNL     1       2.008   1.663  -3.453  0.00  0.00    +0.239 C 
ATOM     14  O   UNL     1       2.062   2.485  -2.562  0.00  0.00    -0.273 OA
ATOM     15  H   UNL     1       0.806   0.813  -4.830  0.00  0.00    +0.149 HD
BRANCH  12  17
ATOM     16  C   UNL     1       0.182   3.863  -4.253  0.00  0.00    +0.031 C 
ATOM     17  C   UNL     1      -0.252   2.429  -3.947  0.00  0.00    +0.026 C 
ATOM     18  C   UNL     1      -0.705   2.333  -2.489  0.00  0.00    +0.031 C 
ATOM     19  C   UNL     1      -1.410   2.039  -4.867  0.00  0.00    +0.031 C 
ENDBRANCH  12  17
ENDBRANCH   1  13
BRANCH   1  20
ATOM     20  N   UNL     1       4.264   1.073  -2.780  0.00  0.00    -0.274 N 
ATOM     21  C   UNL     1       5.544   0.765  -3.069  0.00  0.00    +0.251 C 
ATOM     22  O   UNL     1       6.370   0.705  -2.179  0.00  0.00    -0.270 OA
BRANCH  21  23
ATOM     23  C   UNL     1       5.943   0.501  -4.464  0.00  0.00    +0.078 A 
ATOM     24  C   UNL     1       5.080  -0.183  -5.324  0.00  0.00    +0.017 A 
ATOM     25  C   UNL     1       5.458  -0.426  -6.627  0.00  0.00    +0.001 A 
ATOM     26  C   UNL     1       6.691   0.006  -7.089  0.00  0.00    +0.004 A 
ATOM     27  C   UNL     1       7.553   0.684  -6.250  0.00  0.00    +0.046 A 
ATOM     28  C   UNL     1       7.186   0.942  -4.937  0.00  0.00    +0.129 A 
BRANCH  28  29
ATOM     29  O   UNL     1       8.030   1.612  -4.113  0.00  0.00    -0.506 OA
ATOM     30  H   UNL     1       8.640   1.041  -3.625  0.00  0.00    +0.292 HD
ENDBRANCH  28  29
ENDBRANCH  21  23
BRANCH  20  31
ATOM     31  C   UNL     1       3.929   1.676  -1.488  0.00  0.00    +0.183 C 
BRANCH  31  32
ATOM     32  C   UNL     1       4.228   3.153  -1.530  0.00  0.00    +0.122 A 
ATOM     33  C   UNL     1       3.321   4.142  -1.451  0.00  0.00    +0.046 A 
ATOM     34  C   UNL     1       4.034   5.360  -1.531  0.00  0.00    +0.041 A 
ATOM     35  C   UNL     1       5.335   5.042  -1.654  0.00  0.00    +0.195 A 
ATOM     36  O   UNL     1       5.447   3.704  -1.647  0.00  0.00    -0.466 OA
ENDBRANCH  31  32
ENDBRANCH  20  31
ENDBRANCH   1  20
TORSDOF 9
