REMARK  Name = ZINC16423915
REMARK  12 active torsions:
REMARK  status: ('A' for Active; 'I' for Inactive)
REMARK    1  A    between atoms: C_1  and  C_2
REMARK    2  A    between atoms: C_2  and  C_3
REMARK    3  A    between atoms: C_3  and  C_4
REMARK    4  A    between atoms: C_4  and  N_54
REMARK    5  A    between atoms: C_5  and  C_7
REMARK    6  A    between atoms: C_5  and  C_8
REMARK    7  A    between atoms: C_5  and  N_54
REMARK    8  A    between atoms: N_18  and  C_19
REMARK    9  A    between atoms: C_21  and  O_28
REMARK   10  A    between atoms: C_23  and  O_26
REMARK   11  A    between atoms: O_26  and  C_27
REMARK   12  A    between atoms: O_28  and  C_29
REMARK                            x       y       z     vdW  Elec       q    Type
REMARK                         _______ _______ _______ _____ _____    ______ ____
ROOT
ATOM      1  C   UNL     1       1.240  -0.655  -0.216  0.00  0.00    +0.103 A 
ATOM      2  N   UNL     1       2.380  -0.037  -0.143  0.00  0.00    -0.235 NA
ATOM      3  C   UNL     1       2.451   1.300   0.076  0.00  0.00    +0.078 A 
ATOM      4  C   UNL     1       3.677   1.965   0.154  0.00  0.00    +0.028 A 
ATOM      5  C   UNL     1       3.703   3.323   0.378  0.00  0.00    +0.002 A 
ATOM      6  C   UNL     1       2.524   4.042   0.527  0.00  0.00    +0.001 A 
ATOM      7  C   UNL     1       1.303   3.409   0.454  0.00  0.00    +0.015 A 
ATOM      8  C   UNL     1       1.255   2.035   0.228  0.00  0.00    +0.065 A 
ATOM      9  C   UNL     1      -0.019   1.306   0.140  0.00  0.00    +0.266 A 
ATOM     10  O   UNL     1      -1.086   1.880   0.258  0.00  0.00    -0.267 OA
ATOM     11  N   UNL     1       0.040  -0.028  -0.082  0.00  0.00    -0.265 N 
ENDROOT
BRANCH  11  12
ATOM     12  C   UNL     1      -1.145  -0.770  -0.174  0.00  0.00    +0.072 A 
ATOM     13  C   UNL     1      -1.698  -1.042  -1.418  0.00  0.00    +0.073 A 
ATOM     14  C   UNL     1      -2.870  -1.776  -1.509  0.00  0.00    +0.126 A 
ATOM     15  C   UNL     1      -3.491  -2.238  -0.358  0.00  0.00    +0.092 A 
ATOM     16  C   UNL     1      -2.939  -1.967   0.885  0.00  0.00    +0.139 A 
ATOM     17  C   UNL     1      -1.763  -1.237   0.977  0.00  0.00    +0.084 A 
ATOM     18 BR   UNL     1      -1.006  -0.873   2.671  0.00  0.00    -0.044 Br
BRANCH  16  19
ATOM     19  O   UNL     1      -3.548  -2.420   2.012  0.00  0.00    -0.494 OA
ATOM     20  C   UNL     1      -4.753  -3.169   1.843  0.00  0.00    +0.277 C 
ENDBRANCH  16  19
BRANCH  14  21
ATOM     21  O   UNL     1      -3.412  -2.043  -2.727  0.00  0.00    -0.495 OA
ATOM     22  C   UNL     1      -4.621  -2.804  -2.746  0.00  0.00    +0.277 C 
ENDBRANCH  14  21
ENDBRANCH  11  12
BRANCH   1  23
ATOM     23  C   UNL     1       1.247  -2.141  -0.463  0.00  0.00    -0.007 C 
ATOM     24  C   UNL     1       1.421  -2.878   0.867  0.00  0.00    -0.006 C 
BRANCH  23  25
ATOM     25  N   UNL     1       2.367  -2.478  -1.363  0.00  0.00    +0.385 N 
ATOM     26  H   UNL     1       2.498  -1.717  -2.039  0.00  0.00    -0.085 HD
ATOM     27  H   UNL     1       3.223  -2.595  -0.808  0.00  0.00    -0.085 HD
BRANCH  25  28
ATOM     28  C   UNL     1       2.082  -3.730  -2.088  0.00  0.00    -0.082 C 
BRANCH  28  29
ATOM     29  C   UNL     1       3.259  -4.053  -3.012  0.00  0.00    -0.019 C 
BRANCH  29  31
ATOM     30  C   UNL     1       4.148  -5.674  -4.692  0.00  0.00    +0.004 C 
ATOM     31  C   UNL     1       2.971  -5.351  -3.768  0.00  0.00    -0.005 C 
ENDBRANCH  29  31
ENDBRANCH  28  29
ENDBRANCH  25  28
ENDBRANCH  23  25
ENDBRANCH   1  23
TORSDOF 8
