REMARK  Name = ZINC21316433
REMARK  9 active torsions:
REMARK  status: ('A' for Active; 'I' for Inactive)
REMARK    1  A    between atoms: C_1  and  C_2
REMARK    2  A    between atoms: C_2  and  C_4
REMARK    3  A    between atoms: C_2  and  N_10
REMARK    4  A    between atoms: C_11  and  C_13
REMARK    5  A    between atoms: C_13  and  S_14
REMARK    6  A    between atoms: S_14  and  C_15
REMARK    7  A    between atoms: N_19  and  N_20
REMARK    8  A    between atoms: N_21  and  N_22
REMARK    9  A    between atoms: C_23  and  C_24
REMARK                            x       y       z     vdW  Elec       q    Type
REMARK                         _______ _______ _______ _____ _____    ______ ____
ROOT
ATOM      1  C   UNL     1      -4.474   9.337   0.092  0.00  0.00    +0.210 A 
ATOM      2  N   UNL     1      -3.162   9.351   0.080  0.00  0.00    -0.119 NA
ATOM      3  N   UNL     1      -2.716   8.023   0.074  0.00  0.00    -0.109 NA
ATOM      4  C   UNL     1      -3.768   7.242   0.075  0.00  0.00    +0.254 A 
ATOM      5  N   UNL     1      -4.883   8.034   0.089  0.00  0.00    -0.211 N 
ATOM      6  N   UNL     1      -3.754   5.854   0.068  0.00  0.00    -0.204 N 
ATOM      7  H   UNL     1      -4.700   5.294   0.074  0.00  0.00    +0.177 HD
ENDROOT
BRANCH   5   8
ATOM      8  N   UNL     1      -6.177   7.598   0.099  0.00  0.00    -0.294 N 
ATOM      9  H   UNL     1      -6.395   6.520   0.095  0.00  0.00    +0.163 HD
ATOM     10  H   UNL     1      -7.002   8.325   0.110  0.00  0.00    +0.163 HD
ENDBRANCH   5   8
BRANCH   6  11
ATOM     11  N   UNL     1      -2.533   5.166   0.053  0.00  0.00    -0.187 NA
ATOM     12  C   UNL     1      -2.520   3.868   0.046  0.00  0.00    +0.139 C 
BRANCH  12  13
ATOM     13  C   UNL     1      -1.236   3.144   0.030  0.00  0.00    +0.014 A 
ATOM     14  C   UNL     1      -1.217   1.747   0.017  0.00  0.00    +0.011 A 
ATOM     15  C   UNL     1      -0.013   1.076   0.008  0.00  0.00    +0.002 A 
ATOM     16  C   UNL     1       1.178   1.782   0.000  0.00  0.00    +0.021 A 
ATOM     17  C   UNL     1       1.169   3.166   0.008  0.00  0.00    +0.060 A 
ATOM     18  C   UNL     1      -0.030   3.852   0.023  0.00  0.00    +0.068 A 
ATOM     19 CL   UNL     1      -0.041   5.588   0.032  0.00  0.00    -0.081 Cl
ATOM     20 CL   UNL     1       2.668   4.042  -0.002  0.00  0.00    -0.082 Cl
ENDBRANCH  12  13
ENDBRANCH   6  11
BRANCH   1  21
ATOM     21  S   UNL     1      -5.525  10.752   0.108  0.00  0.00    -0.075 S 
BRANCH  21  22
ATOM     22  C   UNL     1      -4.373  12.153   0.105  0.00  0.00    +0.173 C 
BRANCH  22  24
ATOM     23  N   UNL     1      -4.502  14.624   0.118  0.00  0.00    -0.308 N 
ATOM     24  C   UNL     1      -5.152  13.443   0.118  0.00  0.00    +0.224 C 
ATOM     25  O   UNL     1      -6.365  13.419   0.128  0.00  0.00    -0.275 OA
ATOM     26  H   UNL     1      -3.402  14.645   0.108  0.00  0.00    +0.149 HD
BRANCH  23  28
ATOM     27  C   UNL     1      -5.643  16.256  -1.301  0.00  0.00    +0.033 C 
ATOM     28  C   UNL     1      -5.259  15.877   0.131  0.00  0.00    +0.100 C 
BRANCH  28  29
ATOM     29  C   UNL     1      -4.411  16.970   0.729  0.00  0.00    -0.027 A 
ATOM     30  C   UNL     1      -3.064  17.042   0.429  0.00  0.00    +0.005 A 
ATOM     31  C   UNL     1      -2.287  18.047   0.975  0.00  0.00    +0.000 A 
ATOM     32  C   UNL     1      -2.856  18.975   1.827  0.00  0.00    +0.000 A 
ATOM     33  C   UNL     1      -4.202  18.900   2.131  0.00  0.00    +0.000 A 
ATOM     34  C   UNL     1      -4.980  17.898   1.582  0.00  0.00    +0.005 A 
ENDBRANCH  28  29
ENDBRANCH  23  28
ENDBRANCH  22  24
ENDBRANCH  21  22
ENDBRANCH   1  21
TORSDOF 8
