REMARK  Name = ZINC35641882
REMARK  10 active torsions:
REMARK  status: ('A' for Active; 'I' for Inactive)
REMARK    1  A    between atoms: C_1  and  C_2
REMARK    2  A    between atoms: C_2  and  O_3
REMARK    3  A    between atoms: O_3  and  C_4
REMARK    4  A    between atoms: C_4  and  C_6
REMARK    5  A    between atoms: C_7  and  C_25
REMARK    6  A    between atoms: N_8  and  C_24
REMARK    7  A    between atoms: C_12  and  C_14
REMARK    8  A    between atoms: C_19  and  C_20
REMARK    9  A    between atoms: C_25  and  N_26
REMARK   10  A    between atoms: N_29  and  C_32
REMARK                            x       y       z     vdW  Elec       q    Type
REMARK                         _______ _______ _______ _____ _____    ______ ____
ROOT
ATOM      1  C   UNL     1       0.989  -1.871  -2.329  0.00  0.00    +0.080 C 
ATOM      2  C   UNL     1       1.050  -3.218  -2.253  0.00  0.00    +0.041 C 
ATOM      3  N   UNL     1       1.829  -3.937  -3.114  0.00  0.00    -0.260 N 
ATOM      4  C   UNL     1       2.576  -3.384  -4.078  0.00  0.00    +0.307 C 
ATOM      5  O   UNL     1       3.237  -4.107  -4.797  0.00  0.00    -0.252 OA
ATOM      6  N   UNL     1       2.618  -2.052  -4.277  0.00  0.00    -0.288 N 
ATOM      7  C   UNL     1       1.808  -1.187  -3.404  0.00  0.00    +0.144 C 
ATOM      8  C   UNL     1       1.848  -5.395  -2.975  0.00  0.00    +0.139 C 
ATOM      9  H   UNL     1       3.167  -1.672  -4.982  0.00  0.00    +0.151 HD
ENDROOT
BRANCH   7  10
ATOM     10  C   UNL     1       2.739  -0.213  -2.729  0.00  0.00    -0.011 A 
ATOM     11  C   UNL     1       3.856  -0.676  -2.059  0.00  0.00    +0.006 A 
ATOM     12  C   UNL     1       4.711   0.217  -1.440  0.00  0.00    +0.000 A 
ATOM     13  C   UNL     1       4.448   1.574  -1.492  0.00  0.00    +0.001 A 
ATOM     14  C   UNL     1       3.332   2.037  -2.163  0.00  0.00    +0.013 A 
ATOM     15  C   UNL     1       2.480   1.144  -2.786  0.00  0.00    +0.060 A 
BRANCH  15  16
ATOM     16  C   UNL     1       1.266   1.649  -3.522  0.00  0.00    +0.418 C 
ATOM     17  F   UNL     1       1.209   3.043  -3.425  0.00  0.00    -0.166 F 
ATOM     18  F   UNL     1       1.349   1.278  -4.868  0.00  0.00    -0.166 F 
ATOM     19  F   UNL     1       0.113   1.095  -2.955  0.00  0.00    -0.166 F 
ENDBRANCH  15  16
ENDBRANCH   7  10
BRANCH   1  20
ATOM     20  C   UNL     1       0.182  -1.125  -1.438  0.00  0.00    +0.339 C 
ATOM     21  O   UNL     1      -0.931  -0.771  -1.776  0.00  0.00    -0.245 OA
BRANCH  20  22
ATOM     22  O   UNL     1       0.648  -0.806  -0.212  0.00  0.00    -0.462 OA
BRANCH  22  24
ATOM     23  C   UNL     1       0.471   0.219   1.970  0.00  0.00    +0.048 C 
ATOM     24  C   UNL     1      -0.259  -0.149   0.676  0.00  0.00    +0.229 C 
ENDBRANCH  22  24
ENDBRANCH  20  22
ENDBRANCH   1  20
BRANCH   2  25
ATOM     25  C   UNL     1       0.247  -3.939  -1.202  0.00  0.00    +0.136 C 
BRANCH  25  26
ATOM     26  N   UNL     1      -0.790  -4.752  -1.850  0.00  0.00    -0.294 NA
ATOM     27  C   UNL     1      -1.776  -3.902  -2.530  0.00  0.00    +0.103 C 
ATOM     28  C   UNL     1      -2.733  -4.783  -3.341  0.00  0.00    +0.120 C 
ATOM     29  N   UNL     1      -3.302  -5.801  -2.445  0.00  0.00    -0.325 N 
ATOM     30  C   UNL     1      -2.380  -6.601  -1.625  0.00  0.00    +0.120 C 
ATOM     31  C   UNL     1      -1.437  -5.649  -0.882  0.00  0.00    +0.103 C 
BRANCH  29  32
ATOM     32  C   UNL     1      -4.684  -6.003  -2.375  0.00  0.00    +0.065 A 
ATOM     33  C   UNL     1      -5.296  -6.923  -3.215  0.00  0.00    +0.026 A 
ATOM     34  C   UNL     1      -6.662  -7.121  -3.144  0.00  0.00    +0.002 A 
ATOM     35  C   UNL     1      -7.420  -6.404  -2.237  0.00  0.00    +0.003 A 
ATOM     36  C   UNL     1      -6.815  -5.486  -1.398  0.00  0.00    +0.040 A 
ATOM     37  C   UNL     1      -5.448  -5.287  -1.460  0.00  0.00    +0.144 A 
ATOM     38  F   UNL     1      -4.856  -4.395  -0.636  0.00  0.00    -0.204 F 
ENDBRANCH  29  32
ENDBRANCH  25  26
ENDBRANCH   2  25
TORSDOF 8
