REMARK  Name = ZINC39869995
REMARK  6 active torsions:
REMARK  status: ('A' for Active; 'I' for Inactive)
REMARK    1  A    between atoms: C_1  and  C_2
REMARK    2  A    between atoms: C_2  and  C_20
REMARK    3  A    between atoms: N_9  and  C_10
REMARK    4  A    between atoms: C_13  and  N_16
REMARK    5  A    between atoms: C_17  and  C_19
REMARK    6  A    between atoms: C_23  and  N_26
REMARK                            x       y       z     vdW  Elec       q    Type
REMARK                         _______ _______ _______ _____ _____    ______ ____
ROOT
ATOM      1  C   UNL     1      -0.130   1.377  -0.034  0.00  0.00    +0.045 C 
ATOM      2  C   UNL     1      -0.099  -0.129  -0.023  0.00  0.00    -0.024 C 
ATOM      3  C   UNL     1      -0.060  -0.800   1.157  0.00  0.00    +0.082 C 
ATOM      4  C   UNL     1      -0.047  -0.279   2.544  0.00  0.00    +0.276 C 
ATOM      5  O   UNL     1      -0.073   0.918   2.782  0.00  0.00    -0.267 OA
ATOM      6  N   UNL     1      -0.008  -1.177   3.503  0.00  0.00    -0.154 NA
ATOM      7  C   UNL     1       0.020  -2.478   3.258  0.00  0.00    +0.156 C 
ATOM      8  S   UNL     1      -0.018  -2.559   1.474  0.00  0.00    -0.051 S 
ATOM      9  N   UNL     1       0.062  -3.512   4.157  0.00  0.00    -0.296 N 
ATOM     10  H   UNL     1       0.011  -4.428   3.844  0.00  0.00    +0.154 HD
ENDROOT
BRANCH   9  11
ATOM     11  C   UNL     1       0.180  -3.245   5.526  0.00  0.00    +0.033 A 
ATOM     12  C   UNL     1      -0.418  -2.115   6.067  0.00  0.00    +0.025 A 
ATOM     13  C   UNL     1      -0.302  -1.852   7.417  0.00  0.00    +0.025 A 
ATOM     14  C   UNL     1       0.412  -2.719   8.234  0.00  0.00    +0.033 A 
ATOM     15  C   UNL     1       1.011  -3.849   7.693  0.00  0.00    +0.025 A 
ATOM     16  C   UNL     1       0.890  -4.115   6.344  0.00  0.00    +0.025 A 
BRANCH  14  17
ATOM     17  N   UNL     1       0.530  -2.452   9.604  0.00  0.00    -0.286 N 
ATOM     18  C   UNL     1       1.668  -2.763  10.256  0.00  0.00    +0.214 C 
ATOM     19  O   UNL     1       2.563  -3.339   9.674  0.00  0.00    -0.276 OA
ATOM     20  C   UNL     1       1.830  -2.393  11.708  0.00  0.00    +0.109 C 
ATOM     21  H   UNL     1      -0.208  -2.045  10.084  0.00  0.00    +0.155 HD
ENDBRANCH  14  17
ENDBRANCH   9  11
BRANCH   2  22
ATOM     22  C   UNL     1      -0.111  -0.872  -1.289  0.00  0.00    -0.021 A 
ATOM     23  C   UNL     1       0.994  -1.651  -1.656  0.00  0.00    +0.010 A 
ATOM     24  C   UNL     1       0.979  -2.344  -2.840  0.00  0.00    +0.023 A 
ATOM     25  C   UNL     1      -0.132  -2.272  -3.676  0.00  0.00    +0.025 A 
ATOM     26  C   UNL     1      -1.233  -1.499  -3.315  0.00  0.00    +0.023 A 
ATOM     27  C   UNL     1      -1.229  -0.809  -2.131  0.00  0.00    +0.010 A 
BRANCH  25  28
ATOM     28  N   UNL     1      -0.143  -2.976  -4.876  0.00  0.00    -0.358 N 
ATOM     29  H   UNL     1       0.623  -3.515  -5.129  0.00  0.00    +0.142 HD
ATOM     30  H   UNL     1      -0.916  -2.928  -5.460  0.00  0.00    +0.142 HD
ENDBRANCH  25  28
ENDBRANCH   2  22
TORSDOF 4
