REMARK  Name = ZINC65180809
REMARK  8 active torsions:
REMARK  status: ('A' for Active; 'I' for Inactive)
REMARK    1  A    between atoms: C_1  and  C_2
REMARK    2  A    between atoms: C_2  and  C_3
REMARK    3  A    between atoms: C_2  and  C_4
REMARK    4  A    between atoms: C_4  and  N_5
REMARK    5  A    between atoms: N_8  and  N_9
REMARK    6  A    between atoms: C_10  and  C_12
REMARK    7  A    between atoms: N_14  and  C_21
REMARK    8  A    between atoms: C_21  and  C_22
REMARK                            x       y       z     vdW  Elec       q    Type
REMARK                         _______ _______ _______ _____ _____    ______ ____
ROOT
ATOM      1  C   UNL     1      -3.212   1.722  -5.714  0.00  0.00    +0.063 A 
ATOM      2  C   UNL     1      -1.919   2.152  -5.645  0.00  0.00    +0.100 A 
ATOM      3  N   UNL     1      -1.605   2.840  -6.769  0.00  0.00    -0.342 N 
ATOM      4  C   UNL     1      -2.687   2.887  -7.624  0.00  0.00    +0.050 A 
ATOM      5  C   UNL     1      -3.739   2.187  -7.010  0.00  0.00    +0.012 A 
ATOM      6  C   UNL     1      -4.967   2.066  -7.654  0.00  0.00    +0.011 A 
ATOM      7  C   UNL     1      -5.144   2.633  -8.898  0.00  0.00    +0.001 A 
ATOM      8  C   UNL     1      -4.105   3.322  -9.507  0.00  0.00    +0.002 A 
ATOM      9  C   UNL     1      -2.886   3.456  -8.877  0.00  0.00    +0.026 A 
ENDROOT
BRANCH   1  11
ATOM     10  N   UNL     1      -3.316   0.589  -3.555  0.00  0.00    -0.229 N 
ATOM     11  C   UNL     1      -3.934   0.943  -4.699  0.00  0.00    +0.262 C 
ATOM     12  O   UNL     1      -5.091   0.619  -4.891  0.00  0.00    -0.269 OA
ATOM     13  H   UNL     1      -2.394   0.848  -3.402  0.00  0.00    +0.173 HD
BRANCH  10  17
ATOM     14  N   UNL     1      -2.105  -0.148  -1.230  0.00  0.00    -0.298 N 
ATOM     15  C   UNL     1      -3.387  -0.508  -1.443  0.00  0.00    +0.316 C 
ATOM     16  O   UNL     1      -3.985  -1.153  -0.604  0.00  0.00    -0.251 OA
ATOM     17  N   UNL     1      -4.005  -0.154  -2.587  0.00  0.00    -0.218 N 
ATOM     18  H   UNL     1      -1.628   0.366  -1.901  0.00  0.00    +0.150 HD
ATOM     19  H   UNL     1      -4.927  -0.413  -2.741  0.00  0.00    +0.174 HD
BRANCH  14  20
ATOM     20  C   UNL     1      -1.433  -0.534   0.013  0.00  0.00    +0.108 C 
BRANCH  20  22
ATOM     21  C   UNL     1      -0.019   1.526   0.010  0.00  0.00    +0.009 C 
ATOM     22  C   UNL     1       0.002  -0.004   0.002  0.00  0.00    -0.000 C 
ATOM     23  C   UNL     1       0.742  -0.511   1.242  0.00  0.00    +0.009 C 
ENDBRANCH  20  22
ENDBRANCH  14  20
ENDBRANCH  10  17
ENDBRANCH   1  11
BRANCH   3  24
ATOM     24  C   UNL     1      -0.299   3.448  -7.039  0.00  0.00    +0.157 C 
BRANCH  24  25
ATOM     25  C   UNL     1      -0.326   4.897  -6.628  0.00  0.00    -0.028 A 
ATOM     26  C   UNL     1      -0.713   5.867  -7.534  0.00  0.00    +0.005 A 
ATOM     27  C   UNL     1      -0.737   7.196  -7.156  0.00  0.00    +0.000 A 
ATOM     28  C   UNL     1      -0.375   7.556  -5.872  0.00  0.00    +0.000 A 
ATOM     29  C   UNL     1       0.011   6.587  -4.965  0.00  0.00    +0.000 A 
ATOM     30  C   UNL     1       0.031   5.257  -5.341  0.00  0.00    +0.005 A 
ENDBRANCH  24  25
ENDBRANCH   3  24
TORSDOF 6
