REMARK  Name = ZINC65398038
REMARK  5 active torsions:
REMARK  status: ('A' for Active; 'I' for Inactive)
REMARK    1  A    between atoms: C_1  and  C_2
REMARK    2  A    between atoms: C_2  and  C_27
REMARK    3  A    between atoms: C_6  and  C_15
REMARK    4  A    between atoms: C_20  and  O_25
REMARK    5  A    between atoms: O_25  and  C_26
REMARK                            x       y       z     vdW  Elec       q    Type
REMARK                         _______ _______ _______ _____ _____    ______ ____
ROOT
ATOM      1  C   UNL     1      -0.019   1.526   0.010  0.00  0.00    +0.013 C 
ATOM      2  C   UNL     1       0.002  -0.004   0.002  0.00  0.00    -0.014 C 
ATOM      3  C   UNL     1       0.716  -0.497  -1.260  0.00  0.00    +0.060 C 
ATOM      4  C   UNL     1       0.735  -2.005  -1.276  0.00  0.00    +0.042 C 
ATOM      5  N   UNL     1       0.262  -2.745  -2.203  0.00  0.00    -0.269 NA
ATOM      6  C   UNL     1       0.418  -4.166  -1.874  0.00  0.00    +0.199 C 
ATOM      7  N   UNL     1       1.433  -4.225  -0.797  0.00  0.00    -0.278 NA
ATOM      8  C   UNL     1       1.344  -2.874  -0.195  0.00  0.00    +0.187 C 
ATOM      9  C   UNL     1       0.396  -2.919   0.982  0.00  0.00    +0.236 C 
ATOM     10  O   UNL     1      -0.148  -3.955   1.298  0.00  0.00    -0.274 OA
ATOM     11  N   UNL     1       0.169  -1.786   1.672  0.00  0.00    -0.313 N 
ATOM     12  C   UNL     1       0.742  -0.510   1.242  0.00  0.00    +0.111 C 
ATOM     13  C   UNL     1      -1.433  -0.533   0.014  0.00  0.00    +0.013 C 
ATOM     14  H   UNL     1       1.202  -4.938  -0.121  0.00  0.00    +0.125 HD
ATOM     15  H   UNL     1      -0.385  -1.815   2.468  0.00  0.00    +0.149 HD
ENDROOT
BRANCH   6  16
ATOM     16  C   UNL     1       0.902  -4.941  -3.101  0.00  0.00    +0.142 C 
ATOM     17  C   UNL     1      -0.065  -4.759  -4.249  0.00  0.00    +0.010 C 
ATOM     18  C   UNL     1      -0.525  -5.994  -4.551  0.00  0.00    -0.000 A 
ATOM     19  C   UNL     1      -1.475  -6.484  -5.556  0.00  0.00    +0.055 A 
ATOM     20  C   UNL     1      -1.748  -7.809  -5.626  0.00  0.00    +0.121 A 
ATOM     21  C   UNL     1      -1.149  -8.745  -4.764  0.00  0.00    +0.047 A 
ATOM     22  C   UNL     1      -0.263  -8.391  -3.809  0.00  0.00    +0.029 A 
ATOM     23  C   UNL     1       0.105  -6.981  -3.644  0.00  0.00    +0.043 A 
ATOM     24  N   UNL     1       0.923  -6.380  -2.814  0.00  0.00    -0.375 N 
ATOM     25  H   UNL     1       1.452  -6.813  -2.126  0.00  0.00    +0.160 HD
BRANCH  20  26
ATOM     26  O   UNL     1      -2.631  -8.248  -6.561  0.00  0.00    -0.495 OA
ATOM     27  C   UNL     1      -2.889  -9.653  -6.600  0.00  0.00    +0.277 C 
ENDBRANCH  20  26
ENDBRANCH   6  16
TORSDOF 2
