REMARK  Name = ZINC62507600
REMARK  12 active torsions:
REMARK  status: ('A' for Active; 'I' for Inactive)
REMARK    1  A    between atoms: C_1  and  C_2
REMARK    2  A    between atoms: C_2  and  C_3
REMARK    3  A    between atoms: C_2  and  N_8
REMARK    4  A    between atoms: C_3  and  C_4
REMARK    5  A    between atoms: C_4  and  N_5
REMARK    6  A    between atoms: N_5  and  C_6
REMARK    7  A    between atoms: N_5  and  C_7
REMARK    8  A    between atoms: N_11  and  C_12
REMARK    9  A    between atoms: C_14  and  C_20
REMARK   10  A    between atoms: C_14  and  C_21
REMARK   11  A    between atoms: C_16  and  C_18
REMARK   12  A    between atoms: C_16  and  C_19
REMARK                            x       y       z     vdW  Elec       q    Type
REMARK                         _______ _______ _______ _____ _____    ______ ____
ROOT
ATOM      1  N   UNL     1       0.438  -0.704  -1.116  0.00  0.00    -0.297 N 
ATOM      2  C   UNL     1      -0.258  -0.868  -2.258  0.00  0.00    +0.300 C 
ATOM      3  O   UNL     1      -1.458  -0.674  -2.272  0.00  0.00    -0.253 OA
ATOM      4  N   UNL     1       0.377  -1.246  -3.385  0.00  0.00    -0.297 N 
ATOM      5  H   UNL     1       1.395  -0.858  -1.104  0.00  0.00    +0.151 HD
ATOM      6  H   UNL     1       1.334  -1.401  -3.374  0.00  0.00    +0.151 HD
ENDROOT
BRANCH   4   7
ATOM      7  C   UNL     1      -0.381  -1.425  -4.630  0.00  0.00    +0.072 C 
ATOM      8  C   UNL     1      -0.937  -2.850  -4.680  0.00  0.00    +0.009 C 
ATOM      9  C   UNL     1      -1.719  -3.055  -5.976  0.00  0.00    -0.072 C 
ATOM     10  N   UNL     1      -0.928  -2.724  -7.152  0.00  0.00    +0.386 N 
ATOM     11  C   UNL     1      -0.183  -1.475  -7.135  0.00  0.00    -0.072 C 
ATOM     12  C   UNL     1       0.555  -1.234  -5.822  0.00  0.00    +0.009 C 
ATOM     13  C   UNL     1       0.884  -1.556  -8.253  0.00  0.00    -0.010 C 
ATOM     14  C   UNL     1      -1.078  -0.276  -7.458  0.00  0.00    -0.010 C 
ATOM     15  C   UNL     1      -3.034  -2.279  -5.929  0.00  0.00    -0.010 C 
ATOM     16  C   UNL     1      -2.076  -4.557  -6.063  0.00  0.00    -0.010 C 
ATOM     17  H   UNL     1      -0.270  -3.489  -7.323  0.00  0.00    -0.084 HD
ATOM     18  H   UNL     1      -1.548  -2.717  -7.965  0.00  0.00    -0.084 HD
ENDBRANCH   4   7
BRANCH   1  20
ATOM     19  C   UNL     1      -0.375   1.233   0.138  0.00  0.00    +0.028 C 
ATOM     20  C   UNL     1      -0.252  -0.292   0.110  0.00  0.00    +0.070 C 
BRANCH  20  21
ATOM     21  C   UNL     1       0.546  -0.762   1.327  0.00  0.00    +0.003 C 
BRANCH  21  22
ATOM     22  C   UNL     1       0.564  -2.291   1.367  0.00  0.00    -0.078 C 
BRANCH  22  23
ATOM     23  N   UNL     1       1.330  -2.742   2.535  0.00  0.00    +0.376 N 
ATOM     24  C   UNL     1       0.638  -2.329   3.764  0.00  0.00    -0.097 C 
ATOM     25  C   UNL     1       1.448  -4.206   2.508  0.00  0.00    -0.097 C 
ATOM     26  H   UNL     1       2.251  -2.330   2.513  0.00  0.00    -0.083 HD
ENDBRANCH  22  23
ENDBRANCH  21  22
ENDBRANCH  20  21
ENDBRANCH   1  20
TORSDOF 5
