REMARK  Name = ZINC09358191
REMARK  5 active torsions:
REMARK  status: ('A' for Active; 'I' for Inactive)
REMARK    1  A    between atoms: C_1  and  N_49
REMARK    2  A    between atoms: C_14  and  C_16
REMARK    3  A    between atoms: C_17  and  O_31
REMARK    4  A    between atoms: C_19  and  O_30
REMARK    5  A    between atoms: N_20  and  C_23
REMARK                            x       y       z     vdW  Elec       q    Type
REMARK                         _______ _______ _______ _____ _____    ______ ____
ROOT
ATOM      1  C   UNL     1       3.555   5.929  -0.101  0.00  0.00    +0.071 A 
ATOM      2  C   UNL     1       4.733   5.207  -0.010  0.00  0.00    +0.224 A 
ATOM      3  N   UNL     1       4.689   3.874   0.082  0.00  0.00    -0.161 NA
ATOM      4  C   UNL     1       3.545   3.228   0.087  0.00  0.00    +0.306 A 
ATOM      5  N   UNL     1       2.359   3.889  -0.001  0.00  0.00    -0.231 N 
ATOM      6  C   UNL     1       2.339   5.234  -0.101  0.00  0.00    +0.267 A 
ATOM      7  O   UNL     1       1.280   5.836  -0.186  0.00  0.00    -0.267 OA
ENDROOT
BRANCH   1  21
ATOM      8  C   UNL     1       3.278   7.718   2.182  0.00  0.00    -0.095 C 
ATOM      9  C   UNL     1       2.567   9.463   0.661  0.00  0.00    -0.073 C 
ATOM     10  C   UNL     1       1.659   9.718  -0.549  0.00  0.00    +0.019 C 
ATOM     11  C   UNL     1       2.168   8.885  -1.698  0.00  0.00    -0.022 A 
ATOM     12  C   UNL     1       1.871   8.990  -3.109  0.00  0.00    +0.003 A 
ATOM     13  C   UNL     1       1.053   9.851  -3.847  0.00  0.00    +0.010 A 
ATOM     14  C   UNL     1       1.013   9.658  -5.206  0.00  0.00    +0.001 A 
ATOM     15  C   UNL     1       1.744   8.660  -5.829  0.00  0.00    +0.002 A 
ATOM     16  C   UNL     1       2.561   7.793  -5.124  0.00  0.00    +0.026 A 
ATOM     17  C   UNL     1       2.622   7.965  -3.743  0.00  0.00    +0.047 A 
ATOM     18  N   UNL     1       3.311   7.303  -2.768  0.00  0.00    -0.359 N 
ATOM     19  H   UNL     1       3.906   6.551  -2.917  0.00  0.00    +0.166 HD
ATOM     20  C   UNL     1       3.034   7.857  -1.548  0.00  0.00    +0.011 A 
ATOM     21  C   UNL     1       3.582   7.432  -0.206  0.00  0.00    +0.021 C 
ATOM     22  N   UNL     1       2.709   8.002   0.849  0.00  0.00    +0.387 N 
ATOM     23  H   UNL     1       1.781   7.567   0.783  0.00  0.00    -0.081 HD
ENDBRANCH   1  21
BRANCH   5  24
ATOM     24  C   UNL     1       1.155   3.170   0.008  0.00  0.00    +0.056 A 
ATOM     25  C   UNL     1       0.515   2.900   1.210  0.00  0.00    +0.026 A 
ATOM     26  C   UNL     1      -0.670   2.191   1.215  0.00  0.00    +0.003 A 
ATOM     27  C   UNL     1      -1.218   1.746   0.026  0.00  0.00    +0.020 A 
ATOM     28  C   UNL     1      -0.585   2.018  -1.174  0.00  0.00    +0.043 A 
ATOM     29  C   UNL     1       0.602   2.727  -1.186  0.00  0.00    +0.046 A 
ATOM     30 CL   UNL     1      -1.278   1.464  -2.666  0.00  0.00    -0.083 Cl
ENDBRANCH   5  24
BRANCH   4  31
ATOM     31  O   UNL     1       3.546   1.883   0.182  0.00  0.00    -0.479 OA
ATOM     32  H   UNL     1       4.408   1.448   0.242  0.00  0.00    +0.295 HD
ENDBRANCH   4  31
BRANCH   2  33
ATOM     33  O   UNL     1       5.924   5.849  -0.013  0.00  0.00    -0.492 OA
ATOM     34  H   UNL     1       6.688   5.260   0.055  0.00  0.00    +0.294 HD
ENDBRANCH   2  33
TORSDOF 4
