REMARK  Name = ZINC01765627
REMARK  7 active torsions:
REMARK  status: ('A' for Active; 'I' for Inactive)
REMARK    1  A    between atoms: C_1  and  O_2
REMARK    2  A    between atoms: O_2  and  C_3
REMARK    3  A    between atoms: C_6  and  C_9
REMARK    4  A    between atoms: C_12  and  C_25
REMARK    5  A    between atoms: C_15  and  C_17
REMARK    6  A    between atoms: C_18  and  C_19
REMARK    7  A    between atoms: C_34  and  O_35
REMARK                            x       y       z     vdW  Elec       q    Type
REMARK                         _______ _______ _______ _____ _____    ______ ____
ROOT
ATOM      1  C   UNL     1       2.505  -2.503  -4.381  0.00  0.00    +0.152 C 
ATOM      2  C   UNL     1       1.469  -3.029  -5.350  0.00  0.00    +0.027 C 
ATOM      3  C   UNL     1       1.626  -4.349  -5.423  0.00  0.00    +0.054 C 
ATOM      4  N   UNL     1       2.662  -4.783  -4.606  0.00  0.00    -0.260 N 
ATOM      5  N   UNL     1       3.245  -3.696  -3.938  0.00  0.00    -0.208 N 
ATOM      6  C   UNL     1       4.274  -3.733  -3.067  0.00  0.00    +0.256 C 
ATOM      7  O   UNL     1       4.679  -2.704  -2.559  0.00  0.00    -0.269 OA
ATOM      8  H   UNL     1       2.942  -5.707  -4.511  0.00  0.00    +0.170 HD
ENDROOT
BRANCH   3   9
ATOM      9  C   UNL     1       0.802  -5.241  -6.268  0.00  0.00    +0.039 A 
ATOM     10  C   UNL     1       1.047  -6.624  -6.268  0.00  0.00    +0.014 A 
ATOM     11  C   UNL     1       0.304  -7.464  -7.034  0.00  0.00    +0.009 A 
ATOM     12  C   UNL     1      -0.728  -6.955  -7.843  0.00  0.00    -0.014 A 
ATOM     13  C   UNL     1      -1.508  -7.808  -8.643  0.00  0.00    +0.008 A 
ATOM     14  C   UNL     1      -2.501  -7.286  -9.416  0.00  0.00    +0.001 A 
ATOM     15  C   UNL     1      -2.756  -5.917  -9.427  0.00  0.00    +0.001 A 
ATOM     16  C   UNL     1      -2.021  -5.061  -8.665  0.00  0.00    +0.012 A 
ATOM     17  C   UNL     1      -0.989  -5.563  -7.855  0.00  0.00    +0.024 A 
ATOM     18  C   UNL     1      -0.213  -4.706  -7.050  0.00  0.00    +0.133 A 
BRANCH  18  19
ATOM     19  O   UNL     1      -0.451  -3.370  -7.044  0.00  0.00    -0.506 OA
ATOM     20  H   UNL     1       0.050  -2.878  -7.709  0.00  0.00    +0.292 HD
ENDBRANCH  18  19
ENDBRANCH   3   9
BRANCH   1  24
ATOM     21  C   UNL     1       0.606  -0.607  -1.056  0.00  0.00    +0.120 A 
ATOM     22  C   UNL     1       1.173   0.161  -2.062  0.00  0.00    +0.046 A 
ATOM     23  C   UNL     1       1.786  -0.455  -3.136  0.00  0.00    +0.009 A 
ATOM     24  C   UNL     1       1.835  -1.835  -3.209  0.00  0.00    -0.021 A 
ATOM     25  C   UNL     1       1.270  -2.602  -2.207  0.00  0.00    +0.009 A 
ATOM     26  C   UNL     1       0.661  -1.992  -1.128  0.00  0.00    +0.046 A 
BRANCH  21  28
ATOM     27  C   UNL     1      -0.017   1.425   0.010  0.00  0.00    +0.277 C 
ATOM     28  O   UNL     1       0.002  -0.004   0.002  0.00  0.00    -0.495 OA
ENDBRANCH  21  28
ENDBRANCH   1  24
BRANCH   6  29
ATOM     29  C   UNL     1       4.903  -5.013  -2.732  0.00  0.00    +0.069 C 
ATOM     30  C   UNL     1       5.931  -5.050  -1.861  0.00  0.00    +0.013 C 
BRANCH  30  31
ATOM     31  C   UNL     1       6.564  -6.336  -1.525  0.00  0.00    -0.025 A 
ATOM     32  C   UNL     1       6.104  -7.520  -2.111  0.00  0.00    +0.008 A 
ATOM     33  C   UNL     1       6.702  -8.721  -1.790  0.00  0.00    +0.001 A 
ATOM     34  C   UNL     1       7.754  -8.756  -0.892  0.00  0.00    +0.000 A 
ATOM     35  C   UNL     1       8.214  -7.589  -0.308  0.00  0.00    +0.001 A 
ATOM     36  C   UNL     1       7.630  -6.380  -0.622  0.00  0.00    +0.008 A 
ENDBRANCH  30  31
ENDBRANCH   6  29
TORSDOF 6
