REMARK  Name = ZINC11909834
REMARK  12 active torsions:
REMARK  status: ('A' for Active; 'I' for Inactive)
REMARK    1  A    between atoms: C_2  and  C_3
REMARK    2  A    between atoms: C_3  and  C_4
REMARK    3  A    between atoms: C_4  and  C_5
REMARK    4  A    between atoms: C_4  and  C_8
REMARK    5  A    between atoms: C_4  and  O_31
REMARK    6  A    between atoms: C_5  and  C_6
REMARK    7  A    between atoms: C_8  and  N_70
REMARK    8  A    between atoms: C_9  and  N_70
REMARK    9  A    between atoms: N_12  and  C_15
REMARK   10  A    between atoms: C_18  and  C_21
REMARK   11  A    between atoms: C_21  and  C_22
REMARK   12  A    between atoms: C_27  and  O_30
REMARK                            x       y       z     vdW  Elec       q    Type
REMARK                         _______ _______ _______ _____ _____    ______ ____
ROOT
ATOM      1  C   UNL     1      -1.010   1.503  -1.161  0.00  0.00    -0.069 C 
ATOM      2  C   UNL     1      -1.550   2.909  -0.887  0.00  0.00    +0.003 C 
ATOM      3  C   UNL     1      -2.411   3.359  -2.069  0.00  0.00    +0.103 C 
ATOM      4  N   UNL     1      -3.521   2.417  -2.255  0.00  0.00    -0.330 N 
ATOM      5  C   UNL     1      -3.027   1.069  -2.567  0.00  0.00    +0.103 C 
ATOM      6  C   UNL     1      -2.185   0.550  -1.399  0.00  0.00    +0.003 C 
ENDROOT
BRANCH   4   7
ATOM      7  C   UNL     1      -4.401   2.868  -3.241  0.00  0.00    +0.030 A 
ATOM      8  C   UNL     1      -4.693   2.062  -4.335  0.00  0.00    +0.023 A 
ATOM      9  C   UNL     1      -5.567   2.510  -5.306  0.00  0.00    +0.006 A 
ATOM     10  C   UNL     1      -6.144   3.762  -5.196  0.00  0.00    -0.039 A 
ATOM     11  C   UNL     1      -5.851   4.568  -4.111  0.00  0.00    +0.006 A 
ATOM     12  C   UNL     1      -4.982   4.125  -3.134  0.00  0.00    +0.023 A 
BRANCH  10  13
ATOM     13  C   UNL     1      -7.093   4.249  -6.260  0.00  0.00    +0.131 C 
BRANCH  13  14
ATOM     14  C   UNL     1      -6.319   4.976  -7.329  0.00  0.00    +0.220 C 
ATOM     15  O   UNL     1      -5.115   5.089  -7.236  0.00  0.00    -0.275 OA
ATOM     16  N   UNL     1      -6.965   5.502  -8.389  0.00  0.00    -0.301 N 
ATOM     17  C   UNL     1      -8.422   5.369  -8.519  0.00  0.00    +0.110 C 
ATOM     18  C   UNL     1      -9.025   6.768  -8.719  0.00  0.00    +0.050 C 
ATOM     19  C   UNL     1      -8.347   7.443  -9.913  0.00  0.00    +0.118 C 
ATOM     20  C   UNL     1      -6.851   7.599  -9.632  0.00  0.00    +0.050 C 
ATOM     21  C   UNL     1      -6.224   6.215  -9.439  0.00  0.00    +0.110 C 
BRANCH  19  22
ATOM     22  O   UNL     1      -8.928   8.731 -10.126  0.00  0.00    -0.392 OA
ATOM     23  H   UNL     1      -9.877   8.709 -10.310  0.00  0.00    +0.210 HD
ENDBRANCH  19  22
ENDBRANCH  13  14
ENDBRANCH  10  13
ENDBRANCH   4   7
BRANCH   1  24
ATOM     24  N   UNL     1      -0.234   1.036   0.003  0.00  0.00    +0.383 N 
ATOM     25  H   UNL     1      -0.664   1.397   0.863  0.00  0.00    -0.085 HD
ATOM     26  H   UNL     1      -0.239   0.009   0.024  0.00  0.00    -0.085 HD
BRANCH  24  27
ATOM     27  C   UNL     1       1.158   1.514  -0.083  0.00  0.00    -0.046 C 
BRANCH  27  28
ATOM     28  C   UNL     1       1.937   1.015   1.136  0.00  0.00    +0.058 C 
BRANCH  28  29
ATOM     29  O   UNL     1       2.020  -0.411   1.097  0.00  0.00    -0.390 OA
ATOM     30  H   UNL     1       2.466  -0.758   0.312  0.00  0.00    +0.210 HD
ENDBRANCH  28  29
BRANCH  28  31
ATOM     31  C   UNL     1       3.347   1.608   1.118  0.00  0.00    +0.059 C 
BRANCH  31  33
ATOM     32  C   UNL     1       4.497   2.159  -0.964  0.00  0.00    +0.004 C 
ATOM     33  C   UNL     1       4.037   1.228  -0.166  0.00  0.00    -0.032 C 
ENDBRANCH  31  33
ENDBRANCH  28  31
BRANCH  28  34
ATOM     34  C   UNL     1       1.216   1.449   2.413  0.00  0.00    +0.059 C 
BRANCH  34  35
ATOM     35  C   UNL     1       1.971   0.939   3.614  0.00  0.00    -0.032 C 
ATOM     36  C   UNL     1       2.358   1.772   4.548  0.00  0.00    +0.004 C 
ENDBRANCH  34  35
ENDBRANCH  28  34
ENDBRANCH  27  28
ENDBRANCH  24  27
ENDBRANCH   1  24
TORSDOF 12
