REMARK  Name = ZINC06421663
REMARK  5 active torsions:
REMARK  status: ('A' for Active; 'I' for Inactive)
REMARK    1  A    between atoms: C_1  and  C_2
REMARK    2  A    between atoms: N_10  and  C_11
REMARK    3  A    between atoms: C_11  and  C_13
REMARK    4  A    between atoms: N_19  and  C_20
REMARK    5  A    between atoms: C_20  and  C_21
REMARK                            x       y       z     vdW  Elec       q    Type
REMARK                         _______ _______ _______ _____ _____    ______ ____
ROOT
ATOM      1  C   UNL     1      -0.022  -3.202  -4.715  0.00  0.00    +0.044 C 
ATOM      2  C   UNL     1      -0.016  -2.330  -3.486  0.00  0.00    -0.049 A 
ATOM      3  C   UNL     1      -0.036  -0.950  -3.605  0.00  0.00    +0.005 A 
ATOM      4  C   UNL     1      -0.031  -0.139  -2.496  0.00  0.00    +0.027 A 
ATOM      5  C   UNL     1      -0.005  -0.686  -1.201  0.00  0.00    +0.058 A 
ATOM      6  C   UNL     1       0.019  -2.086  -1.115  0.00  0.00    +0.039 A 
ATOM      7  C   UNL     1       0.020  -2.897  -2.225  0.00  0.00    +0.020 A 
ATOM      8  S   UNL     1       0.040  -2.389   0.636  0.00  0.00    -0.052 S 
ATOM      9  C   UNL     1       0.022  -0.689   1.181  0.00  0.00    +0.168 A 
ATOM     10  N   UNL     1       0.028  -0.213   2.419  0.00  0.00    -0.149 NA
ATOM     11  N   UNL     1       0.002  -0.004   0.002  0.00  0.00    -0.310 N 
ENDROOT
BRANCH  10  12
ATOM     12  C   UNL     1       0.048  -1.057   3.462  0.00  0.00    +0.307 C 
ATOM     13  O   UNL     1       0.062  -2.262   3.271  0.00  0.00    -0.265 OA
BRANCH  12  14
ATOM     14  C   UNL     1       0.054  -0.530   4.832  0.00  0.00    +0.219 C 
ATOM     15  C   UNL     1       0.044   0.794   5.023  0.00  0.00    +0.238 C 
ATOM     16  O   UNL     1       0.051   1.333   6.262  0.00  0.00    -0.492 OA
ATOM     17  C   UNL     1      -0.297   0.465   7.347  0.00  0.00    +0.269 C 
ATOM     18  C   UNL     1       0.451  -0.862   7.153  0.00  0.00    +0.270 C 
ATOM     19  O   UNL     1       0.075  -1.400   5.879  0.00  0.00    -0.481 OA
ENDBRANCH  12  14
ENDBRANCH  10  12
BRANCH  11  20
ATOM     20  C   UNL     1      -0.018   1.461   0.010  0.00  0.00    +0.212 C 
BRANCH  20  21
ATOM     21  C   UNL     1       1.363   1.970  -0.000  0.00  0.00    -0.084 C 
ATOM     22  C   UNL     1       2.465   2.377  -0.009  0.00  0.00    +0.005 C 
ENDBRANCH  20  21
ENDBRANCH  11  20
TORSDOF 4
