REMARK  Name = ZINC50806880
REMARK  5 active torsions:
REMARK  status: ('A' for Active; 'I' for Inactive)
REMARK    1  A    between atoms: C_1  and  C_2
REMARK    2  A    between atoms: C_4  and  N_24
REMARK    3  A    between atoms: C_7  and  N_8
REMARK    4  A    between atoms: C_9  and  C_11
REMARK    5  A    between atoms: C_15  and  N_21
REMARK                            x       y       z     vdW  Elec       q    Type
REMARK                         _______ _______ _______ _____ _____    ______ ____
ROOT
ATOM      1  N   UNL     1       0.024  -0.011   2.417  0.00  0.00    -0.280 N 
ATOM      2  C   UNL     1      -0.441  -0.485   3.591  0.00  0.00    +0.265 C 
ATOM      3  O   UNL     1      -0.821  -1.637   3.674  0.00  0.00    -0.268 OA
ATOM      4  H   UNL     1       0.378   0.890   2.364  0.00  0.00    +0.155 HD
ENDROOT
BRANCH   2   5
ATOM      5  C   UNL     1      -0.488   0.392   4.770  0.00  0.00    +0.103 A 
ATOM      6  C   UNL     1      -0.928   0.030   6.004  0.00  0.00    +0.041 A 
ATOM      7  C   UNL     1      -0.809   1.157   6.852  0.00  0.00    +0.003 A 
ATOM      8  C   UNL     1      -1.103   1.379   8.204  0.00  0.00    +0.042 A 
ATOM      9  C   UNL     1      -0.875   2.607   8.755  0.00  0.00    +0.127 A 
ATOM     10  C   UNL     1      -0.354   3.641   7.987  0.00  0.00    +0.035 A 
ATOM     11  C   UNL     1      -0.058   3.448   6.657  0.00  0.00    +0.028 A 
ATOM     12  C   UNL     1      -0.281   2.204   6.072  0.00  0.00    +0.047 A 
ATOM     13  N   UNL     1      -0.086   1.713   4.802  0.00  0.00    -0.351 N 
ATOM     14  H   UNL     1       0.273   2.213   4.052  0.00  0.00    +0.166 HD
BRANCH   9  15
ATOM     15  N   UNL     1      -1.185   2.838  10.183  0.00  0.00    +0.056 N 
ATOM     16  O   UNL     1      -1.639   1.942  10.856  0.00  0.00    -0.126 OA
ATOM     17  O   UNL     1      -0.985   3.923  10.677  0.00  0.00    -0.126 OA
ENDBRANCH   9  15
ENDBRANCH   2   5
BRANCH   1  24
ATOM     18  C   UNL     1      -0.079   1.260  -0.124  0.00  0.00    +0.046 C 
ATOM     19  C   UNL     1      -0.057  -0.240   0.014  0.00  0.00    -0.027 A 
ATOM     20  C   UNL     1      -0.081  -1.038  -1.113  0.00  0.00    +0.028 A 
ATOM     21  C   UNL     1      -0.060  -2.421  -0.985  0.00  0.00    +0.030 A 
ATOM     22  C   UNL     1      -0.015  -3.001   0.276  0.00  0.00    +0.025 A 
ATOM     23  C   UNL     1       0.009  -2.204   1.402  0.00  0.00    +0.025 A 
ATOM     24  C   UNL     1      -0.006  -0.821   1.274  0.00  0.00    +0.037 A 
BRANCH  21  25
ATOM     25  N   UNL     1      -0.085  -3.229  -2.127  0.00  0.00    -0.328 N 
ATOM     26  C   UNL     1       0.058  -4.679  -1.989  0.00  0.00    +0.116 C 
ATOM     27  C   UNL     1      -1.246  -5.364  -2.416  0.00  0.00    +0.088 C 
ATOM     28  S   UNL     1      -1.631  -4.869  -4.122  0.00  0.00    -0.158 S 
ATOM     29  C   UNL     1      -1.595  -3.053  -4.044  0.00  0.00    +0.088 C 
ATOM     30  C   UNL     1      -0.260  -2.615  -3.444  0.00  0.00    +0.116 C 
ENDBRANCH  21  25
ENDBRANCH   1  24
TORSDOF 4
