REMARK  Name = ZINC13370364
REMARK  7 active torsions:
REMARK  status: ('A' for Active; 'I' for Inactive)
REMARK    1  A    between atoms: C_1  and  C_2
REMARK    2  A    between atoms: C_8  and  C_12
REMARK    3  A    between atoms: C_12  and  O_13
REMARK    4  A    between atoms: O_13  and  C_14
REMARK    5  A    between atoms: C_14  and  C_16
REMARK    6  A    between atoms: C_19  and  N_22
REMARK    7  A    between atoms: C_23  and  C_25
REMARK                            x       y       z     vdW  Elec       q    Type
REMARK                         _______ _______ _______ _____ _____    ______ ____
ROOT
ATOM      1  C   UNL     1      -0.805   1.615   3.648  0.00  0.00    +0.059 A 
ATOM      2  C   UNL     1      -1.838   2.557   3.614  0.00  0.00    +0.017 A 
ATOM      3  C   UNL     1      -2.432   2.966   4.786  0.00  0.00    +0.024 A 
ATOM      4  C   UNL     1      -1.998   2.452   6.005  0.00  0.00    +0.033 A 
ATOM      5  C   UNL     1      -0.967   1.519   6.042  0.00  0.00    +0.024 A 
ATOM      6  C   UNL     1      -0.372   1.101   4.874  0.00  0.00    +0.017 A 
ENDROOT
BRANCH   4   7
ATOM      7  N   UNL     1      -2.599   2.874   7.190  0.00  0.00    -0.285 N 
ATOM      8  C   UNL     1      -1.867   2.971   8.318  0.00  0.00    +0.223 C 
ATOM      9  O   UNL     1      -0.670   2.785   8.282  0.00  0.00    -0.275 OA
ATOM     10  H   UNL     1      -3.543   3.096   7.203  0.00  0.00    +0.155 HD
BRANCH   8  11
ATOM     11  C   UNL     1      -2.538   3.311   9.624  0.00  0.00    +0.048 C 
ATOM     12  C   UNL     1      -3.585   2.244   9.953  0.00  0.00    +0.019 C 
ATOM     13  C   UNL     1      -4.266   2.589  11.278  0.00  0.00    -0.009 C 
ATOM     14  C   UNL     1      -3.218   2.637  12.393  0.00  0.00    +0.007 C 
ATOM     15  C   UNL     1      -2.172   3.704  12.064  0.00  0.00    -0.009 C 
ATOM     16  C   UNL     1      -1.491   3.359  10.738  0.00  0.00    +0.019 C 
ATOM     17  C   UNL     1      -2.855   5.068  11.947  0.00  0.00    +0.007 C 
ATOM     18  C   UNL     1      -3.902   5.020  10.833  0.00  0.00    -0.009 C 
ATOM     19  C   UNL     1      -4.948   3.953  11.161  0.00  0.00    +0.007 C 
ATOM     20  C   UNL     1      -3.221   4.675   9.507  0.00  0.00    +0.019 C 
ENDBRANCH   8  11
ENDBRANCH   4   7
BRANCH   1  21
ATOM     21  C   UNL     1      -0.169   1.170   2.394  0.00  0.00    +0.340 C 
ATOM     22  O   UNL     1       0.732   0.355   2.425  0.00  0.00    -0.245 OA
BRANCH  21  23
ATOM     23  O   UNL     1      -0.588   1.667   1.213  0.00  0.00    -0.455 OA
BRANCH  23  24
ATOM     24  C   UNL     1       0.084   1.184   0.020  0.00  0.00    +0.288 C 
BRANCH  24  32
ATOM     25  C   UNL     1      -4.536   3.683  -5.788  0.00  0.00    +0.053 C 
ATOM     26  C   UNL     1      -3.607   3.233  -4.690  0.00  0.00    +0.007 A 
ATOM     27  C   UNL     1      -2.331   3.559  -4.482  0.00  0.00    +0.107 A 
ATOM     28  N   UNL     1      -1.632   3.045  -3.417  0.00  0.00    -0.262 N 
ATOM     29  C   UNL     1      -0.329   3.299  -3.095  0.00  0.00    +0.259 A 
ATOM     30  O   UNL     1       0.336   4.053  -3.788  0.00  0.00    -0.267 OA
ATOM     31  C   UNL     1       0.240   2.700  -1.971  0.00  0.00    +0.097 A 
ATOM     32  C   UNL     1      -0.514   1.845  -1.195  0.00  0.00    +0.087 A 
ATOM     33  N   UNL     1      -1.780   1.619  -1.535  0.00  0.00    -0.224 NA
ATOM     34  C   UNL     1      -2.309   2.189  -2.589  0.00  0.00    +0.181 A 
ATOM     35  S   UNL     1      -3.927   2.122  -3.329  0.00  0.00    -0.054 S 
ENDBRANCH  24  32
ENDBRANCH  23  24
ENDBRANCH  21  23
ENDBRANCH   1  21
TORSDOF 6
