REMARK  Name = ZINC25514620
REMARK  8 active torsions:
REMARK  status: ('A' for Active; 'I' for Inactive)
REMARK    1  A    between atoms: C_1  and  C_2
REMARK    2  A    between atoms: C_2  and  O_3
REMARK    3  A    between atoms: O_3  and  C_4
REMARK    4  A    between atoms: C_4  and  C_6
REMARK    5  A    between atoms: C_6  and  C_8
REMARK    6  A    between atoms: C_6  and  N_15
REMARK    7  A    between atoms: C_21  and  C_23
REMARK    8  A    between atoms: C_29  and  C_31
REMARK                            x       y       z     vdW  Elec       q    Type
REMARK                         _______ _______ _______ _____ _____    ______ ____
ROOT
ATOM      1  N   UNL     1       6.180   3.543  -1.499  0.00  0.00    +0.393 N 
ATOM      2  C   UNL     1       6.452   2.558  -0.444  0.00  0.00    -0.058 C 
ATOM      3  C   UNL     1       5.861   1.203  -0.849  0.00  0.00    +0.089 C 
ATOM      4  N   UNL     1       4.438   1.392  -1.172  0.00  0.00    -0.303 N 
ATOM      5  C   UNL     1       4.076   2.452  -2.126  0.00  0.00    +0.089 C 
ATOM      6  C   UNL     1       4.737   3.761  -1.665  0.00  0.00    -0.058 C 
ATOM      7  C   UNL     1       3.493   0.611  -0.614  0.00  0.00    +0.236 C 
ATOM      8  O   UNL     1       3.810  -0.262   0.167  0.00  0.00    -0.274 OA
ATOM      9  H   UNL     1       6.568   3.136  -2.444  0.00  0.00    -0.080 HD
ENDROOT
BRANCH   7  10
ATOM     10  C   UNL     1       2.041   0.822  -0.959  0.00  0.00    +0.162 C 
ATOM     11  C   UNL     1       1.439   1.960  -0.098  0.00  0.00    +0.033 C 
ATOM     12  C   UNL     1      -0.070   1.602  -0.118  0.00  0.00    +0.021 C 
ATOM     13  C   UNL     1      -0.060   0.059  -0.104  0.00  0.00    +0.109 C 
ATOM     14  N   UNL     1       1.252  -0.373  -0.609  0.00  0.00    -0.283 N 
ATOM     15  C   UNL     1       1.664  -1.651  -0.732  0.00  0.00    +0.283 C 
ATOM     16  O   UNL     1       2.776  -1.892  -1.164  0.00  0.00    -0.267 OA
BRANCH  15  17
ATOM     17  C   UNL     1       0.773  -2.749  -0.345  0.00  0.00    +0.189 A 
ATOM     18  C   UNL     1       1.061  -4.082  -0.423  0.00  0.00    +0.054 A 
ATOM     19  C   UNL     1      -0.068  -4.767   0.052  0.00  0.00    +0.042 A 
ATOM     20  C   UNL     1      -0.988  -3.835   0.386  0.00  0.00    +0.196 A 
ATOM     21  O   UNL     1      -0.477  -2.621   0.145  0.00  0.00    -0.458 OA
ENDBRANCH  15  17
ENDBRANCH   7  10
BRANCH   1  22
ATOM     22  C   UNL     1       6.876   4.808  -1.230  0.00  0.00    +0.073 C 
BRANCH  22  23
ATOM     23  C   UNL     1       6.638   5.764  -2.370  0.00  0.00    -0.050 A 
ATOM     24  C   UNL     1       5.612   6.687  -2.296  0.00  0.00    +0.004 A 
ATOM     25  C   UNL     1       5.397   7.568  -3.339  0.00  0.00    +0.020 A 
ATOM     26  C   UNL     1       6.203   7.519  -4.463  0.00  0.00    +0.041 A 
ATOM     27  C   UNL     1       7.227   6.591  -4.539  0.00  0.00    +0.020 A 
ATOM     28  C   UNL     1       7.444   5.715  -3.493  0.00  0.00    +0.004 A 
ATOM     29 CL   UNL     1       5.930   8.620  -5.776  0.00  0.00    -0.084 Cl
ENDBRANCH  22  23
BRANCH  22  30
ATOM     30  C   UNL     1       6.349   5.409   0.048  0.00  0.00    +0.298 C 
ATOM     31  O   UNL     1       5.483   4.842   0.670  0.00  0.00    -0.252 OA
BRANCH  30  32
ATOM     32  O   UNL     1       6.842   6.575   0.494  0.00  0.00    -0.466 OA
BRANCH  32  34
ATOM     33  C   UNL     1       6.969   8.421   2.078  0.00  0.00    +0.048 C 
ATOM     34  C   UNL     1       6.288   7.095   1.731  0.00  0.00    +0.228 C 
ENDBRANCH  32  34
ENDBRANCH  30  32
ENDBRANCH  22  30
ENDBRANCH   1  22
TORSDOF 7
