REMARK  Name = ZINC14466532
REMARK  6 active torsions:
REMARK  status: ('A' for Active; 'I' for Inactive)
REMARK    1  A    between atoms: C_4  and  O_7
REMARK    2  A    between atoms: O_7  and  C_8
REMARK    3  A    between atoms: C_8  and  C_9
REMARK    4  A    between atoms: C_9  and  O_10
REMARK    5  A    between atoms: O_10  and  C_11
REMARK    6  A    between atoms: C_18  and  C_27
REMARK                            x       y       z     vdW  Elec       q    Type
REMARK                         _______ _______ _______ _____ _____    ______ ____
ROOT
ATOM      1  C   UNL     1       7.063  -2.349  -1.465  0.00  0.00    +0.142 A 
ATOM      2  C   UNL     1       8.020  -2.481  -0.478  0.00  0.00    +0.047 A 
ATOM      3  C   UNL     1       9.077  -3.356  -0.646  0.00  0.00    +0.004 A 
ATOM      4  C   UNL     1       9.176  -4.092  -1.812  0.00  0.00    +0.006 A 
ATOM      5  C   UNL     1       8.227  -3.965  -2.806  0.00  0.00    -0.016 A 
ATOM      6  C   UNL     1       7.143  -3.101  -2.643  0.00  0.00    +0.074 A 
ATOM      7  N   UNL     1       6.124  -2.939  -3.583  0.00  0.00    -0.334 N 
ATOM      8  C   UNL     1       6.276  -3.664  -4.855  0.00  0.00    +0.106 C 
ATOM      9  C   UNL     1       6.858  -5.022  -4.525  0.00  0.00    +0.029 C 
ATOM     10  C   UNL     1       8.321  -4.725  -4.071  0.00  0.00    +0.049 C 
ATOM     11  C   UNL     1       8.957  -6.064  -4.153  0.00  0.00    -0.023 C 
ATOM     12  C   UNL     1       8.338  -6.768  -5.095  0.00  0.00    -0.030 C 
ATOM     13  C   UNL     1       7.197  -5.944  -5.697  0.00  0.00    +0.033 C 
ATOM     14  H   UNL     1       5.222  -3.120  -3.169  0.00  0.00    +0.147 HD
ENDROOT
BRANCH   8  15
ATOM     15  C   UNL     1       7.210  -2.912  -5.767  0.00  0.00    -0.009 A 
ATOM     16  C   UNL     1       8.120  -2.016  -5.238  0.00  0.00    +0.007 A 
ATOM     17  C   UNL     1       8.980  -1.329  -6.074  0.00  0.00    +0.000 A 
ATOM     18  C   UNL     1       8.925  -1.532  -7.441  0.00  0.00    +0.001 A 
ATOM     19  C   UNL     1       8.013  -2.424  -7.971  0.00  0.00    +0.020 A 
ATOM     20  C   UNL     1       7.155  -3.115  -7.134  0.00  0.00    +0.046 A 
ATOM     21 CL   UNL     1       6.008  -4.235  -7.800  0.00  0.00    -0.083 Cl
ENDBRANCH   8  15
BRANCH   1  22
ATOM     22  O   UNL     1       6.029  -1.484  -1.288  0.00  0.00    -0.487 OA
BRANCH  22  23
ATOM     23  C   UNL     1       5.999  -0.750  -0.062  0.00  0.00    +0.270 C 
BRANCH  23  24
ATOM     24  C   UNL     1       4.772   0.164  -0.044  0.00  0.00    +0.270 C 
BRANCH  24  25
ATOM     25  O   UNL     1       3.586  -0.632  -0.037  0.00  0.00    -0.489 OA
BRANCH  25  29
ATOM     26  C   UNL     1      -0.017   1.378   0.010  0.00  0.00    +0.000 A 
ATOM     27  C   UNL     1       1.170   2.088   0.002  0.00  0.00    +0.004 A 
ATOM     28  C   UNL     1       2.377   1.417  -0.013  0.00  0.00    +0.045 A 
ATOM     29  C   UNL     1       2.399   0.030  -0.021  0.00  0.00    +0.121 A 
ATOM     30  C   UNL     1       1.207  -0.680  -0.014  0.00  0.00    +0.045 A 
ATOM     31  C   UNL     1       0.002  -0.004   0.002  0.00  0.00    +0.004 A 
ENDBRANCH  25  29
ENDBRANCH  24  25
ENDBRANCH  23  24
ENDBRANCH  22  23
ENDBRANCH   1  22
TORSDOF 6
