REMARK  Name = ZINC11661319
REMARK  8 active torsions:
REMARK  status: ('A' for Active; 'I' for Inactive)
REMARK    1  A    between atoms: C_1  and  O_2
REMARK    2  A    between atoms: O_2  and  C_3
REMARK    3  A    between atoms: C_8  and  C_9
REMARK    4  A    between atoms: C_10  and  C_11
REMARK    5  A    between atoms: C_11  and  N_66
REMARK    6  A    between atoms: C_17  and  C_19
REMARK    7  A    between atoms: C_19  and  C_20
REMARK    8  A    between atoms: C_25  and  C_28
REMARK                            x       y       z     vdW  Elec       q    Type
REMARK                         _______ _______ _______ _____ _____    ______ ____
ROOT
ATOM      1  C   UNL     1       5.580   4.977  -3.992  0.00  0.00    -0.058 C 
ATOM      2  C   UNL     1       5.643   6.393  -3.418  0.00  0.00    +0.085 C 
ATOM      3  N   UNL     1       4.313   6.819  -2.991  0.00  0.00    -0.318 N 
ATOM      4  C   UNL     1       3.311   5.962  -2.771  0.00  0.00    +0.200 C 
ATOM      5  O   UNL     1       2.246   6.399  -2.388  0.00  0.00    -0.278 OA
ATOM      6  C   UNL     1       3.448   4.481  -2.980  0.00  0.00    +0.028 C 
ATOM      7  H   UNL     1       4.150   7.767  -2.860  0.00  0.00    +0.149 HD
ATOM      8  N   UNL     1       4.877   4.119  -3.017  0.00  0.00    +0.391 N 
ATOM      9  H   UNL     1       5.285   4.266  -2.086  0.00  0.00    -0.080 HD
ENDROOT
BRANCH   8  10
ATOM     10  C   UNL     1       5.030   2.694  -3.390  0.00  0.00    -0.050 C 
BRANCH  10  12
ATOM     11  C   UNL     1       7.030   1.388  -2.825  0.00  0.00    +0.005 C 
ATOM     12  C   UNL     1       6.496   2.376  -3.530  0.00  0.00    -0.045 C 
BRANCH  11  18
ATOM     13  C   UNL     1       9.037   0.037  -2.215  0.00  0.00    +0.127 A 
ATOM     14  C   UNL     1      10.385  -0.251  -2.354  0.00  0.00    +0.046 A 
ATOM     15  C   UNL     1      11.166   0.491  -3.220  0.00  0.00    +0.004 A 
ATOM     16  C   UNL     1      10.608   1.521  -3.957  0.00  0.00    +0.001 A 
ATOM     17  C   UNL     1       9.266   1.817  -3.833  0.00  0.00    +0.011 A 
ATOM     18  C   UNL     1       8.468   1.075  -2.962  0.00  0.00    +0.016 A 
BRANCH  13  20
ATOM     19  C   UNL     1       8.919  -1.731  -0.631  0.00  0.00    +0.277 C 
ATOM     20  O   UNL     1       8.269  -0.687  -1.360  0.00  0.00    -0.495 OA
ENDBRANCH  13  20
ENDBRANCH  11  18
ENDBRANCH  10  12
ENDBRANCH   8  10
BRANCH   6  21
ATOM     21  C   UNL     1       2.777   3.740  -1.821  0.00  0.00    +0.090 C 
BRANCH  21  22
ATOM     22  C   UNL     1       3.477   4.086  -0.532  0.00  0.00    +0.214 C 
ATOM     23  O   UNL     1       4.479   4.768  -0.550  0.00  0.00    -0.276 OA
ATOM     24  N   UNL     1       2.988   3.638   0.641  0.00  0.00    -0.301 N 
ATOM     25  C   UNL     1       1.774   2.811   0.680  0.00  0.00    +0.108 C 
ATOM     26  C   UNL     1       2.078   1.525   1.454  0.00  0.00    +0.027 C 
ATOM     27  C   UNL     1       2.638   1.884   2.833  0.00  0.00    +0.022 C 
ATOM     28  C   UNL     1       3.942   2.668   2.667  0.00  0.00    +0.027 C 
ATOM     29  C   UNL     1       3.659   3.967   1.907  0.00  0.00    +0.108 C 
BRANCH  27  30
ATOM     30  C   UNL     1       2.906   0.621   3.610  0.00  0.00    -0.044 A 
ATOM     31  C   UNL     1       3.793  -0.318   3.119  0.00  0.00    +0.004 A 
ATOM     32  C   UNL     1       4.042  -1.474   3.834  0.00  0.00    +0.000 A 
ATOM     33  C   UNL     1       3.397  -1.695   5.037  0.00  0.00    +0.000 A 
ATOM     34  C   UNL     1       2.506  -0.759   5.526  0.00  0.00    +0.000 A 
ATOM     35  C   UNL     1       2.260   0.400   4.812  0.00  0.00    +0.004 A 
ENDBRANCH  27  30
ENDBRANCH  21  22
ENDBRANCH   6  21
TORSDOF 7
