REMARK  Name = ZINC13064852
REMARK  12 active torsions:
REMARK  status: ('A' for Active; 'I' for Inactive)
REMARK    1  A    between atoms: C_1  and  C_2
REMARK    2  A    between atoms: C_2  and  C_3
REMARK    3  A    between atoms: C_3  and  C_5
REMARK    4  A    between atoms: C_3  and  N_70
REMARK    5  A    between atoms: N_9  and  C_10
REMARK    6  A    between atoms: C_10  and  C_11
REMARK    7  A    between atoms: C_17  and  C_18
REMARK    8  A    between atoms: C_17  and  N_70
REMARK    9  A    between atoms: C_24  and  C_25
REMARK   10  A    between atoms: C_24  and  N_70
REMARK   11  A    between atoms: C_28  and  C_38
REMARK   12  A    between atoms: C_30  and  C_37
REMARK                            x       y       z     vdW  Elec       q    Type
REMARK                         _______ _______ _______ _____ _____    ______ ____
ROOT
ATOM      1  N   UNL     1       0.542  -0.331  -0.137  0.00  0.00    +0.392 N 
ATOM      2  H   UNL     1       0.818  -0.659  -1.070  0.00  0.00    -0.080 HD
ENDROOT
BRANCH   1   3
ATOM      3  C   UNL     1       1.303   0.894   0.185  0.00  0.00    +0.003 C 
BRANCH   3   4
ATOM      4  C   UNL     1       1.249   1.175   1.665  0.00  0.00    +0.138 A 
ATOM      5  N   UNL     1       1.553   0.342   2.631  0.00  0.00    -0.115 NA
ATOM      6  N   UNL     1       1.381   0.954   3.752  0.00  0.00    -0.023 NA
ATOM      7  N   UNL     1       0.967   2.152   3.526  0.00  0.00    -0.044 NA
ATOM      8  N   UNL     1       0.873   2.326   2.251  0.00  0.00    -0.228 N 
BRANCH   8   9
ATOM      9  C   UNL     1       0.439   3.548   1.570  0.00  0.00    +0.178 C 
BRANCH   9  10
ATOM     10  C   UNL     1      -1.090   3.605   1.550  0.00  0.00    +0.140 C 
ATOM     11  C   UNL     1      -1.557   4.872   0.801  0.00  0.00    +0.035 C 
ATOM     12  C   UNL     1      -2.772   5.329   1.654  0.00  0.00    +0.031 C 
ATOM     13  C   UNL     1      -2.308   4.915   3.073  0.00  0.00    +0.160 C 
ATOM     14  O   UNL     1      -1.591   3.684   2.889  0.00  0.00    -0.375 OA
ENDBRANCH   9  10
ENDBRANCH   8   9
ENDBRANCH   3   4
BRANCH   3  16
ATOM     15  C   UNL     1       2.821   0.496  -1.759  0.00  0.00    +0.002 C 
ATOM     16  C   UNL     1       2.758   0.695  -0.243  0.00  0.00    -0.011 C 
ENDBRANCH   3  16
ENDBRANCH   1   3
BRANCH   1  17
ATOM     17  C   UNL     1       0.844  -1.388   0.852  0.00  0.00    -0.042 C 
BRANCH  17  18
ATOM     18  C   UNL     1       0.401  -2.715   0.291  0.00  0.00    -0.064 A 
ATOM     19  C   UNL     1      -0.857  -3.206   0.587  0.00  0.00    +0.002 A 
ATOM     20  C   UNL     1      -1.265  -4.420   0.068  0.00  0.00    +0.000 A 
ATOM     21  C   UNL     1      -0.410  -5.150  -0.737  0.00  0.00    +0.000 A 
ATOM     22  C   UNL     1       0.850  -4.662  -1.028  0.00  0.00    +0.000 A 
ATOM     23  C   UNL     1       1.256  -3.445  -0.515  0.00  0.00    +0.002 A 
ENDBRANCH  17  18
ENDBRANCH   1  17
BRANCH   1  24
ATOM     24  C   UNL     1      -0.907  -0.040  -0.139  0.00  0.00    -0.036 C 
BRANCH  24  25
ATOM     25  C   UNL     1      -1.290   0.483  -1.499  0.00  0.00    +0.001 A 
ATOM     26  C   UNL     1      -1.770  -0.368  -2.440  0.00  0.00    +0.017 A 
ATOM     27  C   UNL     1      -2.138   0.173  -3.750  0.00  0.00    +0.002 A 
ATOM     28  C   UNL     1      -2.643  -0.654  -4.758  0.00  0.00    -0.041 A 
ATOM     29  C   UNL     1      -2.972  -0.119  -5.971  0.00  0.00    +0.007 A 
ATOM     30  C   UNL     1      -2.809   1.238  -6.213  0.00  0.00    -0.048 A 
ATOM     31  C   UNL     1      -2.312   2.072  -5.234  0.00  0.00    +0.029 A 
ATOM     32  C   UNL     1      -1.971   1.550  -3.991  0.00  0.00    +0.050 A 
ATOM     33  N   UNL     1      -1.472   2.361  -2.994  0.00  0.00    -0.322 N 
ATOM     34  H   UNL     1      -1.357   3.309  -3.162  0.00  0.00    +0.169 HD
ATOM     35  C   UNL     1      -1.143   1.856  -1.792  0.00  0.00    +0.251 A 
ATOM     36  O   UNL     1      -0.705   2.602  -0.934  0.00  0.00    -0.268 OA
ATOM     37  C   UNL     1      -3.179   1.806  -7.559  0.00  0.00    +0.044 C 
ATOM     38  C   UNL     1      -2.824  -2.129  -4.508  0.00  0.00    +0.044 C 
ENDBRANCH  24  25
ENDBRANCH   1  24
TORSDOF 9
