REMARK  Name = ZINC40743833
REMARK  13 active torsions:
REMARK  status: ('A' for Active; 'I' for Inactive)
REMARK    1  A    between atoms: C_1  and  C_2
REMARK    2  A    between atoms: C_2  and  C_4
REMARK    3  A    between atoms: C_2  and  O_30
REMARK    4  A    between atoms: C_4  and  N_5
REMARK    5  A    between atoms: N_5  and  C_6
REMARK    6  A    between atoms: C_6  and  C_7
REMARK    7  A    between atoms: C_10  and  O_13
REMARK    8  A    between atoms: O_13  and  C_14
REMARK    9  A    between atoms: C_14  and  C_15
REMARK   10  A    between atoms: C_15  and  C_17
REMARK   11  A    between atoms: C_15  and  O_29
REMARK   12  A    between atoms: N_23  and  C_28
REMARK   13  A    between atoms: N_26  and  C_27
REMARK                            x       y       z     vdW  Elec       q    Type
REMARK                         _______ _______ _______ _____ _____    ______ ____
ROOT
ATOM      1  O   UNL     1       2.056  -8.066   2.105  0.00  0.00    -0.489 OA
ENDROOT
BRANCH   1   5
ATOM      2  C   UNL     1       1.705  -3.960   2.294  0.00  0.00    -0.064 A 
ATOM      3  C   UNL     1       0.717  -4.762   2.833  0.00  0.00    +0.005 A 
ATOM      4  C   UNL     1       0.832  -6.138   2.771  0.00  0.00    +0.046 A 
ATOM      5  C   UNL     1       1.940  -6.713   2.167  0.00  0.00    +0.121 A 
ATOM      6  C   UNL     1       2.930  -5.905   1.626  0.00  0.00    +0.046 A 
ATOM      7  C   UNL     1       2.808  -4.531   1.686  0.00  0.00    +0.005 A 
BRANCH   2   8
ATOM      8  C   UNL     1       1.577  -2.460   2.364  0.00  0.00    -0.047 C 
BRANCH   8   9
ATOM      9  N   UNL     1       0.867  -1.973   1.174  0.00  0.00    +0.383 N 
ATOM     10  H   UNL     1      -0.052  -2.388   1.138  0.00  0.00    -0.085 HD
ATOM     11  H   UNL     1       1.384  -2.228   0.346  0.00  0.00    -0.085 HD
BRANCH   9  12
ATOM     12  C   UNL     1       0.742  -0.511   1.242  0.00  0.00    -0.051 C 
BRANCH  12  14
ATOM     13  C   UNL     1      -0.019   1.526   0.010  0.00  0.00    +0.035 C 
ATOM     14  C   UNL     1       0.002  -0.004   0.002  0.00  0.00    +0.095 C 
BRANCH  14  15
ATOM     15  O   UNL     1      -1.339  -0.499   0.012  0.00  0.00    -0.394 OA
ATOM     16  H   UNL     1      -1.868  -0.216  -0.746  0.00  0.00    +0.210 HD
ENDBRANCH  14  15
ENDBRANCH  12  14
ENDBRANCH   9  12
ENDBRANCH   8   9
ENDBRANCH   2   8
ENDBRANCH   1   5
BRANCH   1  17
ATOM     17  C   UNL     1       3.224  -8.588   1.468  0.00  0.00    +0.265 C 
BRANCH  17  18
ATOM     18  C   UNL     1       3.178 -10.117   1.494  0.00  0.00    +0.182 C 
BRANCH  18  19
ATOM     19  C   UNL     1       4.345 -10.669   0.717  0.00  0.00    -0.014 A 
ATOM     20  C   UNL     1       5.572 -10.831   1.337  0.00  0.00    +0.008 A 
ATOM     21  C   UNL     1       6.647 -11.335   0.633  0.00  0.00    +0.028 A 
ATOM     22  C   UNL     1       6.498 -11.680  -0.702  0.00  0.00    +0.070 A 
ATOM     23  C   UNL     1       5.261 -11.516  -1.328  0.00  0.00    +0.070 A 
ATOM     24  C   UNL     1       4.185 -11.014  -0.611  0.00  0.00    +0.034 A 
ATOM     25  N   UNL     1       5.416 -11.942  -2.645  0.00  0.00    -0.295 N 
ATOM     26  C   UNL     1       6.689 -12.346  -2.812  0.00  0.00    +0.330 A 
ATOM     27  O   UNL     1       7.157 -12.778  -3.849  0.00  0.00    -0.246 OA
ATOM     28  N   UNL     1       7.367 -12.201  -1.658  0.00  0.00    -0.295 N 
ATOM     29  C   UNL     1       8.777 -12.533  -1.444  0.00  0.00    +0.154 C 
ATOM     30  C   UNL     1       4.372 -11.949  -3.673  0.00  0.00    +0.154 C 
ENDBRANCH  18  19
BRANCH  18  31
ATOM     31  O   UNL     1       3.249 -10.573   2.847  0.00  0.00    -0.384 OA
ATOM     32  H   UNL     1       4.053 -10.303   3.311  0.00  0.00    +0.210 HD
ENDBRANCH  18  31
ENDBRANCH  17  18
ENDBRANCH   1  17
TORSDOF 10
