REMARK  Name = ZINC58888279
REMARK  12 active torsions:
REMARK  status: ('A' for Active; 'I' for Inactive)
REMARK    1  A    between atoms: C_1  and  C_2
REMARK    2  A    between atoms: C_5  and  N_11
REMARK    3  A    between atoms: C_7  and  N_8
REMARK    4  A    between atoms: C_12  and  C_33
REMARK    5  A    between atoms: C_14  and  C_17
REMARK    6  A    between atoms: C_15  and  C_16
REMARK    7  A    between atoms: N_18  and  N_19
REMARK    8  A    between atoms: C_20  and  C_22
REMARK    9  A    between atoms: C_22  and  C_23
REMARK   10  A    between atoms: C_23  and  C_24
REMARK   11  A    between atoms: C_24  and  C_26
REMARK   12  A    between atoms: C_24  and  O_32
REMARK                            x       y       z     vdW  Elec       q    Type
REMARK                         _______ _______ _______ _____ _____    ______ ____
ROOT
ATOM      1  N   UNL     1      -0.029  -4.456   0.197  0.00  0.00    -0.317 N 
ATOM      2  C   UNL     1      -0.662  -5.473   0.854  0.00  0.00    +0.022 A 
ATOM      3  C   UNL     1       0.042  -6.607   0.681  0.00  0.00    +0.032 A 
ATOM      4  C   UNL     1       1.200  -6.259  -0.149  0.00  0.00    +0.016 A 
ATOM      5  C   UNL     1       1.092  -4.924  -0.416  0.00  0.00    +0.030 A 
ATOM      6  C   UNL     1       2.052  -4.109  -1.243  0.00  0.00    +0.064 C 
ATOM      7  C   UNL     1      -1.939  -5.346   1.644  0.00  0.00    +0.064 C 
ENDROOT
BRANCH   1  12
ATOM      8  C   UNL     1      -1.827   0.924   0.027  0.00  0.00    +0.046 C 
ATOM      9  C   UNL     1      -1.350  -0.505   0.072  0.00  0.00    -0.020 A 
ATOM     10  C   UNL     1      -1.314  -1.257  -1.087  0.00  0.00    +0.007 A 
ATOM     11  C   UNL     1      -0.876  -2.566  -1.050  0.00  0.00    +0.026 A 
ATOM     12  C   UNL     1      -0.473  -3.127   0.155  0.00  0.00    +0.049 A 
ATOM     13  C   UNL     1      -0.511  -2.370   1.318  0.00  0.00    +0.059 A 
ATOM     14  C   UNL     1      -0.944  -1.059   1.272  0.00  0.00    +0.131 A 
BRANCH  14  15
ATOM     15  N   UNL     1      -0.980  -0.249   2.510  0.00  0.00    +0.057 N 
ATOM     16  O   UNL     1      -0.762   0.940   2.462  0.00  0.00    -0.126 OA
ATOM     17  O   UNL     1      -1.227  -0.775   3.571  0.00  0.00    -0.126 OA
ENDBRANCH  14  15
ENDBRANCH   1  12
BRANCH   4  18
ATOM     18  C   UNL     1       2.264  -7.170  -0.608  0.00  0.00    +0.140 C 
ATOM     19  N   UNL     1       2.067  -8.453  -0.605  0.00  0.00    -0.188 NA
BRANCH  19  20
ATOM     20  N   UNL     1       0.795  -8.965  -0.317  0.00  0.00    -0.207 N 
ATOM     21  C   UNL     1       0.615 -10.295  -0.198  0.00  0.00    +0.232 C 
ATOM     22  O   UNL     1       1.555 -11.049  -0.339  0.00  0.00    -0.274 OA
ATOM     23  H   UNL     1       0.043  -8.362  -0.204  0.00  0.00    +0.177 HD
BRANCH  21  24
ATOM     24  C   UNL     1      -0.753 -10.846   0.112  0.00  0.00    +0.100 C 
BRANCH  24  25
ATOM     25  C   UNL     1      -0.681 -12.373   0.194  0.00  0.00    +0.045 C 
BRANCH  25  26
ATOM     26  C   UNL     1      -2.070 -12.932   0.508  0.00  0.00    +0.145 C 
BRANCH  26  27
ATOM     27  C   UNL     1      -1.977 -14.423   0.710  0.00  0.00    -0.019 A 
ATOM     28  C   UNL     1      -1.917 -15.266  -0.384  0.00  0.00    +0.006 A 
ATOM     29  C   UNL     1      -1.832 -16.633  -0.199  0.00  0.00    +0.000 A 
ATOM     30  C   UNL     1      -1.806 -17.157   1.079  0.00  0.00    +0.000 A 
ATOM     31  C   UNL     1      -1.865 -16.314   2.173  0.00  0.00    +0.000 A 
ATOM     32  C   UNL     1      -1.946 -14.947   1.989  0.00  0.00    +0.006 A 
ENDBRANCH  26  27
BRANCH  26  33
ATOM     33  O   UNL     1      -2.954 -12.653  -0.580  0.00  0.00    -0.387 OA
ATOM     34  H   UNL     1      -2.675 -13.038  -1.422  0.00  0.00    +0.210 HD
ENDBRANCH  26  33
ENDBRANCH  25  26
ENDBRANCH  24  25
ENDBRANCH  21  24
ENDBRANCH  19  20
ENDBRANCH   4  18
TORSDOF 9
