REMARK  Name = ZINC20597810
REMARK  7 active torsions:
REMARK  status: ('A' for Active; 'I' for Inactive)
REMARK    1  A    between atoms: C_1  and  C_2
REMARK    2  A    between atoms: C_7  and  C_8
REMARK    3  A    between atoms: C_13  and  C_16
REMARK    4  A    between atoms: C_17  and  C_29
REMARK    5  A    between atoms: N_18  and  C_21
REMARK    6  A    between atoms: C_25  and  S_27
REMARK    7  A    between atoms: S_27  and  C_28
REMARK                            x       y       z     vdW  Elec       q    Type
REMARK                         _______ _______ _______ _____ _____    ______ ____
ROOT
ATOM      1  C   UNL     1       4.283   0.510  -0.871  0.00  0.00    +0.250 C 
ATOM      2  O   UNL     1       4.101   1.644  -0.473  0.00  0.00    -0.270 OA
ATOM      3  N   UNL     1       3.244  -0.342  -0.975  0.00  0.00    -0.259 N 
ATOM      4  C   UNL     1       1.968   0.075  -0.629  0.00  0.00    +0.185 A 
ATOM      5  N   UNL     1       0.830  -0.602  -0.661  0.00  0.00    -0.202 NA
ATOM      6  C   UNL     1      -0.277   0.005  -0.280  0.00  0.00    +0.192 A 
ATOM      7  N   UNL     1      -0.224   1.261   0.119  0.00  0.00    -0.186 NA
ATOM      8  S   UNL     1       1.442   1.619  -0.040  0.00  0.00    +0.050 S 
ATOM      9  H   UNL     1       3.409  -1.369  -1.335  0.00  0.00    +0.157 HD
ENDROOT
BRANCH   1  16
ATOM     10  C   UNL     1       6.454   2.422  -0.898  0.00  0.00    +0.044 C 
ATOM     11  C   UNL     1       6.699   0.979  -1.256  0.00  0.00    -0.038 A 
ATOM     12  C   UNL     1       7.966   0.557  -1.602  0.00  0.00    +0.004 A 
ATOM     13  C   UNL     1       8.193  -0.767  -1.931  0.00  0.00    +0.000 A 
ATOM     14  C   UNL     1       7.151  -1.678  -1.915  0.00  0.00    +0.001 A 
ATOM     15  C   UNL     1       5.880  -1.271  -1.567  0.00  0.00    +0.013 A 
ATOM     16  C   UNL     1       5.644   0.066  -1.239  0.00  0.00    +0.040 A 
ENDBRANCH   1  16
BRANCH   6  17
ATOM     17  C   UNL     1      -1.573  -0.719  -0.302  0.00  0.00    +0.153 A 
ATOM     18  C   UNL     1      -2.776  -0.204   0.071  0.00  0.00    +0.073 A 
ATOM     19  N   UNL     1      -3.696  -1.192  -0.104  0.00  0.00    -0.216 N 
ATOM     20  N   UNL     1      -2.994  -2.309  -0.583  0.00  0.00    -0.060 NA
ATOM     21  N   UNL     1      -1.751  -1.992  -0.686  0.00  0.00    -0.126 NA
ATOM     22  C   UNL     1      -3.041   1.191   0.576  0.00  0.00    +0.068 C 
BRANCH  19  23
ATOM     23  C   UNL     1      -5.072  -1.113   0.150  0.00  0.00    +0.068 A 
ATOM     24  C   UNL     1      -5.791   0.004  -0.258  0.00  0.00    +0.028 A 
ATOM     25  C   UNL     1      -7.147   0.084  -0.007  0.00  0.00    +0.003 A 
ATOM     26  C   UNL     1      -7.794  -0.946   0.648  0.00  0.00    +0.015 A 
ATOM     27  C   UNL     1      -7.081  -2.066   1.059  0.00  0.00    +0.010 A 
ATOM     28  C   UNL     1      -5.718  -2.151   0.805  0.00  0.00    +0.042 A 
BRANCH  27  29
ATOM     29  S   UNL     1      -7.906  -3.379   1.895  0.00  0.00    -0.129 S 
ATOM     30  C   UNL     1      -9.631  -2.827   1.985  0.00  0.00    +0.090 C 
ENDBRANCH  27  29
ENDBRANCH  19  23
ENDBRANCH   6  17
TORSDOF 4
