REMARK  Name = ZINC14130759
REMARK  10 active torsions:
REMARK  status: ('A' for Active; 'I' for Inactive)
REMARK    1  A    between atoms: C_1  and  C_2
REMARK    2  A    between atoms: C_2  and  C_4
REMARK    3  A    between atoms: C_2  and  S_14
REMARK    4  A    between atoms: N_9  and  C_10
REMARK    5  A    between atoms: C_10  and  C_11
REMARK    6  A    between atoms: C_11  and  C_12
REMARK    7  A    between atoms: C_11  and  C_13
REMARK    8  A    between atoms: S_14  and  C_15
REMARK    9  A    between atoms: C_18  and  C_26
REMARK   10  A    between atoms: N_19  and  C_20
REMARK                            x       y       z     vdW  Elec       q    Type
REMARK                         _______ _______ _______ _____ _____    ______ ____
ROOT
ATOM      1  C   UNL     1      -2.335  -0.110   1.573  0.00  0.00    +0.197 A 
ATOM      2  N   UNL     1      -1.690   0.582   2.486  0.00  0.00    -0.122 NA
ATOM      3  N   UNL     1      -2.450   0.790   3.502  0.00  0.00    -0.128 NA
ATOM      4  C   UNL     1      -3.627   0.246   3.301  0.00  0.00    +0.169 A 
ATOM      5  N   UNL     1      -3.593  -0.344   2.057  0.00  0.00    -0.270 N 
ENDROOT
BRANCH   4   6
ATOM      6  C   UNL     1      -4.774   0.266   4.233  0.00  0.00    +0.020 A 
ATOM      7  C   UNL     1      -5.847  -0.608   4.044  0.00  0.00    +0.013 A 
ATOM      8  C   UNL     1      -6.914  -0.584   4.917  0.00  0.00    +0.021 A 
ATOM      9  C   UNL     1      -6.924   0.305   5.979  0.00  0.00    +0.041 A 
ATOM     10  C   UNL     1      -5.864   1.174   6.172  0.00  0.00    +0.021 A 
ATOM     11  C   UNL     1      -4.788   1.156   5.309  0.00  0.00    +0.013 A 
ATOM     12 CL   UNL     1      -8.272   0.329   7.073  0.00  0.00    -0.084 Cl
ENDBRANCH   4   6
BRANCH   5  13
ATOM     13  C   UNL     1      -4.630  -1.040   1.420  0.00  0.00    +0.051 A 
ATOM     14  C   UNL     1      -5.789  -0.373   1.047  0.00  0.00    +0.026 A 
ATOM     15  C   UNL     1      -6.809  -1.062   0.420  0.00  0.00    +0.002 A 
ATOM     16  C   UNL     1      -6.677  -2.414   0.164  0.00  0.00    +0.000 A 
ATOM     17  C   UNL     1      -5.524  -3.081   0.535  0.00  0.00    +0.002 A 
ATOM     18  C   UNL     1      -4.498  -2.397   1.156  0.00  0.00    +0.026 A 
ENDBRANCH   5  13
BRANCH   1  19
ATOM     19  S   UNL     1      -1.700  -0.632   0.015  0.00  0.00    -0.073 S 
BRANCH  19  21
ATOM     20  C   UNL     1      -0.019   1.526   0.010  0.00  0.00    +0.029 C 
ATOM     21  C   UNL     1       0.002  -0.004   0.002  0.00  0.00    +0.137 C 
BRANCH  21  22
ATOM     22  C   UNL     1       0.707  -0.490  -1.238  0.00  0.00    +0.233 C 
ATOM     23  O   UNL     1       0.067  -0.782  -2.225  0.00  0.00    -0.274 OA
ATOM     24  N   UNL     1       2.051  -0.601  -1.250  0.00  0.00    -0.239 N 
ATOM     25  C   UNL     1       2.682  -1.035  -2.358  0.00  0.00    +0.306 C 
ATOM     26  O   UNL     1       2.039  -1.327  -3.348  0.00  0.00    -0.252 OA
ATOM     27  N   UNL     1       4.025  -1.146  -2.370  0.00  0.00    -0.299 N 
ATOM     28  H   UNL     1       2.563  -0.367  -0.460  0.00  0.00    +0.159 HD
ATOM     29  H   UNL     1       4.537  -0.912  -1.580  0.00  0.00    +0.150 HD
BRANCH  27  30
ATOM     30  C   UNL     1       4.710  -1.618  -3.575  0.00  0.00    +0.108 C 
BRANCH  30  31
ATOM     31  C   UNL     1       6.219  -1.651  -3.324  0.00  0.00    -0.000 C 
ATOM     32  C   UNL     1       6.925  -2.260  -4.537  0.00  0.00    +0.009 C 
ATOM     33  C   UNL     1       6.730  -0.226  -3.100  0.00  0.00    +0.009 C 
ENDBRANCH  30  31
ENDBRANCH  27  30
ENDBRANCH  21  22
ENDBRANCH  19  21
ENDBRANCH   1  19
TORSDOF 7
