REMARK  Name = ZINC52094607
REMARK  5 active torsions:
REMARK  status: ('A' for Active; 'I' for Inactive)
REMARK    1  A    between atoms: C_1  and  C_2
REMARK    2  A    between atoms: C_2  and  N_3
REMARK    3  A    between atoms: N_3  and  C_4
REMARK    4  A    between atoms: C_4  and  C_6
REMARK    5  A    between atoms: C_4  and  C_19
REMARK                            x       y       z     vdW  Elec       q    Type
REMARK                         _______ _______ _______ _____ _____    ______ ____
ROOT
ATOM      1  C   UNL     1       1.371  -2.664   2.351  0.00  0.00    -0.045 A 
ATOM      2  C   UNL     1       1.472  -2.078   3.598  0.00  0.00    +0.031 A 
ATOM      3  C   UNL     1       2.155  -2.729   4.614  0.00  0.00    +0.067 A 
ATOM      4  C   UNL     1       2.737  -3.976   4.373  0.00  0.00    +0.068 A 
ATOM      5  C   UNL     1       2.631  -4.557   3.119  0.00  0.00    +0.043 A 
ATOM      6  C   UNL     1       1.944  -3.903   2.113  0.00  0.00    +0.022 A 
ATOM      7 BR   UNL     1       1.791  -4.699   0.405  0.00  0.00    -0.050 Br
ATOM      8  N   UNL     1       3.343  -4.374   5.562  0.00  0.00    -0.306 N 
ATOM      9  H   UNL     1       3.829  -5.201   5.702  0.00  0.00    +0.170 HD
ATOM     10  C   UNL     1       3.138  -3.414   6.484  0.00  0.00    +0.325 A 
ATOM     11  O   UNL     1       3.538  -3.450   7.633  0.00  0.00    -0.247 OA
ATOM     12  N   UNL     1       2.425  -2.409   5.942  0.00  0.00    -0.306 N 
ATOM     13  H   UNL     1       2.146  -1.600   6.399  0.00  0.00    +0.170 HD
ENDROOT
BRANCH   1  14
ATOM     14  C   UNL     1       0.629  -1.956   1.247  0.00  0.00    -0.034 C 
BRANCH  14  15
ATOM     15  C   UNL     1      -0.872  -2.214   1.394  0.00  0.00    +0.007 C 
ATOM     16  C   UNL     1      -1.379  -1.697   2.762  0.00  0.00    +0.032 C 
ATOM     17  C   UNL     1      -2.362  -2.817   3.188  0.00  0.00    +0.160 C 
ATOM     18  O   UNL     1      -1.720  -4.024   2.721  0.00  0.00    -0.380 OA
ATOM     19  C   UNL     1      -1.158  -3.728   1.429  0.00  0.00    +0.162 C 
ENDBRANCH  14  15
BRANCH  14  20
ATOM     20  N   UNL     1       0.889  -0.513   1.330  0.00  0.00    +0.384 N 
ATOM     21  H   UNL     1       1.884  -0.350   1.338  0.00  0.00    -0.085 HD
ATOM     22  H   UNL     1       0.481  -0.146   2.177  0.00  0.00    -0.085 HD
BRANCH  20  24
ATOM     23  C   UNL     1       0.671   1.642   0.186  0.00  0.00    -0.017 C 
ATOM     24  C   UNL     1       0.291   0.160   0.169  0.00  0.00    -0.085 C 
ENDBRANCH  20  24
ENDBRANCH  14  20
ENDBRANCH   1  14
TORSDOF 4
