REMARK  Name = ZINC12498126
REMARK  10 active torsions:
REMARK  status: ('A' for Active; 'I' for Inactive)
REMARK    1  A    between atoms: C_1  and  C_2
REMARK    2  A    between atoms: C_2  and  C_3
REMARK    3  A    between atoms: C_3  and  C_4
REMARK    4  A    between atoms: C_4  and  C_30
REMARK    5  A    between atoms: C_9  and  C_11
REMARK    6  A    between atoms: N_18  and  C_21
REMARK    7  A    between atoms: C_25  and  C_27
REMARK    8  A    between atoms: C_27  and  C_29
REMARK    9  A    between atoms: C_30  and  O_32
REMARK   10  A    between atoms: O_32  and  C_33
REMARK                            x       y       z     vdW  Elec       q    Type
REMARK                         _______ _______ _______ _____ _____    ______ ____
ROOT
ATOM      1  C   UNL     1      -1.379   8.657  -0.106  0.00  0.00    +0.044 C 
ATOM      2  C   UNL     1      -0.733   7.391   0.404  0.00  0.00    +0.086 C 
ATOM      3  C   UNL     1       0.644   7.529  -0.358  0.00  0.00    +0.078 C 
ATOM      4  C   UNL     1       1.020   8.925  -0.019  0.00  0.00    -0.020 C 
ATOM      5  C   UNL     1       1.224   6.225  -0.046  0.00  0.00    +0.229 C 
ATOM      6  O   UNL     1       2.389   5.965   0.168  0.00  0.00    -0.275 OA
ATOM      7  N   UNL     1       0.161   5.357  -0.047  0.00  0.00    -0.210 N 
ATOM      8  C   UNL     1      -1.046   6.005  -0.015  0.00  0.00    +0.229 C 
ATOM      9  O   UNL     1      -2.137   5.542  -0.272  0.00  0.00    -0.275 OA
ATOM     10  N   UNL     1      -0.274   9.651   0.043  0.00  0.00    +0.396 N 
ATOM     11  H   UNL     1      -0.359  10.132   0.947  0.00  0.00    -0.083 HD
ATOM     12  H   UNL     1      -0.322  10.340  -0.717  0.00  0.00    -0.083 HD
ENDROOT
BRANCH   7  13
ATOM     13  C   UNL     1       0.294   3.962  -0.084  0.00  0.00    +0.045 A 
ATOM     14  C   UNL     1      -0.838   3.155  -0.084  0.00  0.00    +0.024 A 
ATOM     15  C   UNL     1      -0.713   1.779  -0.126  0.00  0.00    +0.003 A 
ATOM     16  C   UNL     1       0.536   1.195  -0.157  0.00  0.00    +0.011 A 
ATOM     17  C   UNL     1       1.682   1.996  -0.158  0.00  0.00    +0.019 A 
ATOM     18  C   UNL     1       1.554   3.388  -0.121  0.00  0.00    +0.035 A 
BRANCH  17  19
ATOM     19  C   UNL     1       3.017   1.378  -0.197  0.00  0.00    +0.160 C 
ATOM     20  O   UNL     1       4.008   2.075  -0.198  0.00  0.00    -0.292 OA
ATOM     21  C   UNL     1       3.151  -0.123  -0.236  0.00  0.00    +0.091 C 
ENDBRANCH  17  19
ENDBRANCH   7  13
BRANCH   4  22
ATOM     22  C   UNL     1       1.703   8.975   1.323  0.00  0.00    -0.023 A 
ATOM     23  C   UNL     1       3.027   9.049   1.605  0.00  0.00    +0.009 A 
ATOM     24  C   UNL     1       3.430   9.084   2.926  0.00  0.00    +0.008 A 
ATOM     25  C   UNL     1       2.490   9.042   3.902  0.00  0.00    +0.045 A 
ATOM     26  S   UNL     1       0.979   8.958   2.955  0.00  0.00    -0.103 S 
ENDBRANCH   4  22
BRANCH   1  27
ATOM     27  C   UNL     1      -2.567   9.031   0.742  0.00  0.00    +0.297 C 
ATOM     28  O   UNL     1      -3.156   8.181   1.366  0.00  0.00    -0.252 OA
BRANCH  27  29
ATOM     29  O   UNL     1      -2.970  10.310   0.805  0.00  0.00    -0.469 OA
ATOM     30  C   UNL     1      -4.121  10.598   1.642  0.00  0.00    +0.280 C 
ENDBRANCH  27  29
ENDBRANCH   1  27
BRANCH   1  31
ATOM     31  C   UNL     1      -1.787   8.507  -1.573  0.00  0.00    -0.001 C 
BRANCH  31  33
ATOM     32  C   UNL     1      -2.745   9.688  -3.555  0.00  0.00    +0.004 C 
ATOM     33  C   UNL     1      -2.337   9.838  -2.088  0.00  0.00    -0.004 C 
ENDBRANCH  31  33
ENDBRANCH   1  31
TORSDOF 7
