REMARK  Name = ZINC27533149
REMARK  8 active torsions:
REMARK  status: ('A' for Active; 'I' for Inactive)
REMARK    1  A    between atoms: C_1  and  C_2
REMARK    2  A    between atoms: C_2  and  O_3
REMARK    3  A    between atoms: O_3  and  C_4
REMARK    4  A    between atoms: C_4  and  C_6
REMARK    5  A    between atoms: C_7  and  N_34
REMARK    6  A    between atoms: C_11  and  C_13
REMARK    7  A    between atoms: C_16  and  N_19
REMARK    8  A    between atoms: C_25  and  C_28
REMARK                            x       y       z     vdW  Elec       q    Type
REMARK                         _______ _______ _______ _____ _____    ______ ____
ROOT
ATOM      1  C   UNL     1      -3.193   3.576  -1.102  0.00  0.00    +0.105 C 
ATOM      2  C   UNL     1      -4.352   2.869  -1.155  0.00  0.00    +0.195 C 
ATOM      3  O   UNL     1      -4.826   2.223  -0.080  0.00  0.00    -0.446 OA
ATOM      4  C   UNL     1      -4.432   2.594   1.153  0.00  0.00    +0.115 C 
ATOM      5  C   UNL     1      -3.291   3.279   1.348  0.00  0.00    +0.045 C 
ATOM      6  C   UNL     1      -2.411   3.655   0.180  0.00  0.00    +0.097 C 
ATOM      7  C   UNL     1      -2.881   3.668   2.638  0.00  0.00    +0.164 C 
ATOM      8  O   UNL     1      -1.834   4.267   2.776  0.00  0.00    -0.292 OA
ATOM      9  C   UNL     1      -3.718   3.354   3.848  0.00  0.00    +0.088 C 
ATOM     10  C   UNL     1      -5.188   3.266   3.424  0.00  0.00    +0.034 C 
ATOM     11  C   UNL     1      -5.311   2.213   2.321  0.00  0.00    +0.083 C 
ENDROOT
BRANCH   6  12
ATOM     12  C   UNL     1      -1.241   2.707   0.110  0.00  0.00    -0.035 A 
ATOM     13  C   UNL     1      -1.458   1.353  -0.061  0.00  0.00    +0.007 A 
ATOM     14  C   UNL     1      -0.385   0.483  -0.120  0.00  0.00    +0.033 A 
ATOM     15  C   UNL     1       0.905   0.969  -0.018  0.00  0.00    +0.126 A 
ATOM     16  C   UNL     1       1.122   2.324   0.148  0.00  0.00    +0.033 A 
ATOM     17  C   UNL     1       0.049   3.193   0.212  0.00  0.00    +0.007 A 
BRANCH  15  18
ATOM     18  N   UNL     1       2.055   0.039  -0.087  0.00  0.00    +0.056 N 
ATOM     19  O   UNL     1       1.863  -1.155  -0.234  0.00  0.00    -0.126 OA
ATOM     20  O   UNL     1       3.191   0.467   0.003  0.00  0.00    -0.126 OA
ENDBRANCH  15  18
ENDBRANCH   6  12
BRANCH  10  21
ATOM     21  C   UNL     1      -6.033   2.863   4.605  0.00  0.00    -0.043 A 
ATOM     22  C   UNL     1      -5.803   1.657   5.240  0.00  0.00    +0.004 A 
ATOM     23  C   UNL     1      -6.575   1.290   6.326  0.00  0.00    +0.000 A 
ATOM     24  C   UNL     1      -7.583   2.125   6.771  0.00  0.00    +0.000 A 
ATOM     25  C   UNL     1      -7.816   3.329   6.133  0.00  0.00    +0.000 A 
ATOM     26  C   UNL     1      -7.041   3.698   5.050  0.00  0.00    +0.004 A 
ENDBRANCH  10  21
BRANCH   2  27
ATOM     27  N   UNL     1      -5.051   2.817  -2.332  0.00  0.00    -0.329 N 
ATOM     28  H   UNL     1      -5.991   2.248  -2.388  0.00  0.00    +0.145 HD
ATOM     29  H   UNL     1      -4.672   3.343  -3.220  0.00  0.00    +0.145 HD
ENDBRANCH   2  27
BRANCH   1  30
ATOM     30  C   UNL     1      -2.723   4.236  -2.248  0.00  0.00    +0.341 C 
ATOM     31  O   UNL     1      -3.292   4.083  -3.314  0.00  0.00    -0.245 OA
BRANCH  30  32
ATOM     32  O   UNL     1      -1.641   5.040  -2.168  0.00  0.00    -0.462 OA
BRANCH  32  34
ATOM     33  C   UNL     1       0.013   6.542  -3.089  0.00  0.00    +0.048 C 
ATOM     34  C   UNL     1      -1.218   5.679  -3.374  0.00  0.00    +0.229 C 
ENDBRANCH  32  34
ENDBRANCH  30  32
ENDBRANCH   1  30
TORSDOF 7
