REMARK  Name = ZINC38679462
REMARK  7 active torsions:
REMARK  status: ('A' for Active; 'I' for Inactive)
REMARK    1  A    between atoms: C_1  and  C_2
REMARK    2  A    between atoms: C_6  and  C_8
REMARK    3  A    between atoms: C_8  and  O_10
REMARK    4  A    between atoms: O_10  and  C_11
REMARK    5  A    between atoms: C_18  and  N_32
REMARK    6  A    between atoms: C_19  and  C_30
REMARK    7  A    between atoms: C_20  and  C_22
REMARK                            x       y       z     vdW  Elec       q    Type
REMARK                         _______ _______ _______ _____ _____    ______ ____
ROOT
ATOM      1  C   UNL     1       0.117  -4.926   3.586  0.00  0.00    +0.135 A 
ATOM      2  C   UNL     1       0.071  -4.294   4.821  0.00  0.00    +0.047 A 
ATOM      3  C   UNL     1       0.120  -5.041   5.981  0.00  0.00    +0.012 A 
ATOM      4  C   UNL     1       0.215  -6.420   5.919  0.00  0.00    +0.008 A 
ATOM      5  C   UNL     1       0.261  -7.057   4.689  0.00  0.00    +0.138 A 
ATOM      6  C   UNL     1       0.206  -6.307   3.521  0.00  0.00    +0.093 A 
ATOM      7  O   UNL     1       0.353  -8.407   4.608  0.00  0.00    -0.441 OA
ATOM      8  C   UNL     1       0.783  -9.114   5.666  0.00  0.00    +0.199 C 
ATOM      9  C   UNL     1       0.768  -8.606   6.921  0.00  0.00    +0.098 C 
ATOM     10  C   UNL     1       0.267  -7.217   7.196  0.00  0.00    +0.101 C 
ENDROOT
BRANCH  10  11
ATOM     11  C   UNL     1      -1.115  -7.294   7.793  0.00  0.00    +0.002 A 
ATOM     12  C   UNL     1      -2.146  -7.879   7.079  0.00  0.00    +0.046 A 
ATOM     13  C   UNL     1      -3.414  -7.949   7.627  0.00  0.00    +0.020 A 
ATOM     14  C   UNL     1      -3.652  -7.435   8.888  0.00  0.00    +0.003 A 
ATOM     15  C   UNL     1      -2.623  -6.850   9.601  0.00  0.00    +0.020 A 
ATOM     16  C   UNL     1      -1.352  -6.785   9.057  0.00  0.00    +0.046 A 
ATOM     17 CL   UNL     1      -0.058  -6.057   9.957  0.00  0.00    -0.083 Cl
ATOM     18 CL   UNL     1      -1.847  -8.524   5.495  0.00  0.00    -0.083 Cl
ENDBRANCH  10  11
BRANCH   8  19
ATOM     19  N   UNL     1       1.250 -10.390   5.469  0.00  0.00    -0.328 N 
ATOM     20  H   UNL     1       1.266 -10.768   4.576  0.00  0.00    +0.145 HD
ATOM     21  H   UNL     1       1.563 -10.913   6.223  0.00  0.00    +0.145 HD
ENDBRANCH   8  19
BRANCH   9  22
ATOM     22  C   UNL     1       1.240  -9.410   8.009  0.00  0.00    +0.101 C 
ATOM     23  N   UNL     1       1.614 -10.047   8.871  0.00  0.00    -0.191 NA
ENDBRANCH   9  22
BRANCH   1  24
ATOM     24  O   UNL     1       0.068  -4.192   2.443  0.00  0.00    -0.422 OA
BRANCH  24  25
ATOM     25  C   UNL     1       1.188  -3.550   2.057  0.00  0.00    +0.344 C 
ATOM     26  O   UNL     1       2.172  -3.563   2.768  0.00  0.00    -0.245 OA
BRANCH  25  32
ATOM     27  C   UNL     1       3.646  -0.770  -1.279  0.00  0.00    +0.044 C 
ATOM     28  C   UNL     1       2.397  -1.491  -0.841  0.00  0.00    -0.050 A 
ATOM     29  C   UNL     1       1.273  -1.478  -1.649  0.00  0.00    +0.003 A 
ATOM     30  C   UNL     1       0.122  -2.138  -1.256  0.00  0.00    +0.001 A 
ATOM     31  C   UNL     1       0.088  -2.813  -0.053  0.00  0.00    +0.015 A 
ATOM     32  C   UNL     1       1.218  -2.830   0.767  0.00  0.00    +0.060 A 
ATOM     33  C   UNL     1       2.378  -2.167   0.361  0.00  0.00    +0.018 A 
ENDBRANCH  25  32
ENDBRANCH  24  25
ENDBRANCH   1  24
TORSDOF 6
