REMARK  Name = ZINC39344771
REMARK  18 active torsions:
REMARK  status: ('A' for Active; 'I' for Inactive)
REMARK    1  A    between atoms: C_1  and  C_2
REMARK    2  A    between atoms: C_2  and  C_4
REMARK    3  A    between atoms: C_2  and  N_8
REMARK    4  A    between atoms: C_4  and  C_5
REMARK    5  A    between atoms: C_4  and  C_6
REMARK    6  A    between atoms: C_4  and  O_7
REMARK    7  A    between atoms: N_8  and  C_9
REMARK    8  A    between atoms: N_15  and  C_31
REMARK    9  A    between atoms: C_16  and  C_27
REMARK   10  A    between atoms: C_18  and  N_20
REMARK   11  A    between atoms: C_21  and  C_23
REMARK   12  A    between atoms: C_23  and  C_24
REMARK   13  A    between atoms: C_24  and  O_25
REMARK   14  A    between atoms: O_25  and  C_26
REMARK   15  A    between atoms: C_27  and  O_29
REMARK   16  A    between atoms: O_29  and  C_30
REMARK   17  A    between atoms: C_31  and  C_32
REMARK   18  A    between atoms: C_32  and  C_33
REMARK                            x       y       z     vdW  Elec       q    Type
REMARK                         _______ _______ _______ _____ _____    ______ ____
ROOT
ATOM      1  C   UNL     1       2.106  -0.604   1.173  0.00  0.00    +0.044 A 
ATOM      2  C   UNL     1       2.793  -1.070   2.293  0.00  0.00    +0.033 A 
ATOM      3  C   UNL     1       4.170  -1.165   2.229  0.00  0.00    +0.015 A 
ATOM      4  C   UNL     1       4.839  -0.802   1.068  0.00  0.00    +0.105 A 
ATOM      5  N   UNL     1       4.143  -0.361   0.020  0.00  0.00    -0.348 N 
ATOM      6  C   UNL     1       2.830  -0.262   0.041  0.00  0.00    +0.107 A 
ATOM      7  N   UNL     1       6.216  -0.968   1.199  0.00  0.00    -0.301 N 
ATOM      8  C   UNL     1       6.540  -1.480   2.533  0.00  0.00    +0.208 C 
ATOM      9  C   UNL     1       5.186  -1.623   3.249  0.00  0.00    +0.138 C 
ATOM     10  H   UNL     1       4.619  -0.110  -0.787  0.00  0.00    +0.167 HD
ENDROOT
BRANCH   9  11
ATOM     11  N   UNL     1       4.948  -3.021   3.617  0.00  0.00    -0.306 N 
ATOM     12  C   UNL     1       4.076  -3.319   4.601  0.00  0.00    +0.216 C 
ATOM     13  O   UNL     1       3.488  -2.430   5.180  0.00  0.00    -0.276 OA
ATOM     14  H   UNL     1       5.417  -3.732   3.153  0.00  0.00    +0.149 HD
BRANCH  12  15
ATOM     15  C   UNL     1       3.830  -4.757   4.979  0.00  0.00    +0.124 C 
BRANCH  15  16
ATOM     16  C   UNL     1       2.805  -4.818   6.113  0.00  0.00    +0.168 C 
BRANCH  16  17
ATOM     17  O   UNL     1       2.572  -6.181   6.473  0.00  0.00    -0.382 OA
ATOM     18  C   UNL     1       1.625  -6.350   7.529  0.00  0.00    +0.194 C 
ENDBRANCH  16  17
ENDBRANCH  15  16
ENDBRANCH  12  15
ENDBRANCH   9  11
BRANCH   1  19
ATOM     19  N   UNL     1       0.711  -0.489   1.189  0.00  0.00    -0.337 N 
ATOM     20  H   UNL     1       0.213  -0.731   1.986  0.00  0.00    +0.146 HD
BRANCH  19  22
ATOM     21  C   UNL     1      -0.019   1.526   0.010  0.00  0.00    +0.030 C 
ATOM     22  C   UNL     1       0.002  -0.004   0.002  0.00  0.00    +0.098 C 
BRANCH  22  23
ATOM     23  C   UNL     1      -1.433  -0.534   0.013  0.00  0.00    +0.078 C 
ATOM     24  C   UNL     1      -2.135  -0.131  -1.286  0.00  0.00    +0.043 C 
ATOM     25  C   UNL     1      -1.413  -2.059   0.130  0.00  0.00    +0.043 C 
BRANCH  23  26
ATOM     26  O   UNL     1      -2.137   0.021   1.126  0.00  0.00    -0.387 OA
ATOM     27  H   UNL     1      -1.747  -0.195   1.985  0.00  0.00    +0.210 HD
ENDBRANCH  23  26
ENDBRANCH  22  23
ENDBRANCH  19  22
ENDBRANCH   1  19
BRANCH   8  28
ATOM     28  C   UNL     1       7.222  -2.820   2.427  0.00  0.00    +0.330 C 
ATOM     29  O   UNL     1       7.132  -3.465   1.409  0.00  0.00    -0.249 OA
BRANCH  28  30
ATOM     30  O   UNL     1       7.929  -3.296   3.463  0.00  0.00    -0.467 OA
ATOM     31  C   UNL     1       8.550  -4.572   3.294  0.00  0.00    +0.280 C 
ENDBRANCH  28  30
ENDBRANCH   8  28
BRANCH   7  32
ATOM     32  C   UNL     1       7.198  -0.674   0.152  0.00  0.00    +0.112 C 
BRANCH  32  33
ATOM     33  C   UNL     1       7.657   0.780   0.278  0.00  0.00    +0.056 C 
BRANCH  33  34
ATOM     34  C   UNL     1       8.668   1.083  -0.798  0.00  0.00    -0.021 A 
ATOM     35  C   UNL     1       8.379   1.497  -2.173  0.00  0.00    +0.003 A 
ATOM     36  C   UNL     1       7.204   1.730  -2.889  0.00  0.00    +0.010 A 
ATOM     37  C   UNL     1       7.273   2.119  -4.198  0.00  0.00    +0.001 A 
ATOM     38  C   UNL     1       8.503   2.282  -4.821  0.00  0.00    +0.002 A 
ATOM     39  C   UNL     1       9.675   2.057  -4.132  0.00  0.00    +0.026 A 
ATOM     40  C   UNL     1       9.628   1.661  -2.800  0.00  0.00    +0.047 A 
ATOM     41  N   UNL     1      10.594   1.366  -1.864  0.00  0.00    -0.360 N 
ATOM     42  C   UNL     1      10.004   1.029  -0.676  0.00  0.00    +0.087 A 
ATOM     43  H   UNL     1      11.551   1.396  -2.022  0.00  0.00    +0.165 HD
ENDBRANCH  33  34
ENDBRANCH  32  33
ENDBRANCH   7  32
TORSDOF 13
