REMARK  Name = ZINC40153815
REMARK  8 active torsions:
REMARK  status: ('A' for Active; 'I' for Inactive)
REMARK    1  A    between atoms: C_1  and  S_2
REMARK    2  A    between atoms: S_2  and  C_5
REMARK    3  A    between atoms: C_8  and  N_14
REMARK    4  A    between atoms: C_9  and  N_11
REMARK    5  A    between atoms: N_14  and  C_15
REMARK    6  A    between atoms: C_15  and  C_16
REMARK    7  A    between atoms: C_16  and  C_18
REMARK    8  A    between atoms: C_16  and  N_24
REMARK                            x       y       z     vdW  Elec       q    Type
REMARK                         _______ _______ _______ _____ _____    ______ ____
ROOT
ATOM      1  N   UNL     1       2.597  -1.310  -4.109  0.00  0.00    -0.344 N 
ATOM      2  H   UNL     1       3.345  -1.483  -4.703  0.00  0.00    +0.146 HD
ENDROOT
BRANCH   1   6
ATOM      3  C   UNL     1       2.984  -2.003  -0.021  0.00  0.00    +0.090 A 
ATOM      4  C   UNL     1       1.843  -1.395  -0.513  0.00  0.00    +0.029 A 
ATOM      5  C   UNL     1       1.712  -1.164  -1.869  0.00  0.00    +0.027 A 
ATOM      6  C   UNL     1       2.727  -1.542  -2.738  0.00  0.00    +0.058 A 
ATOM      7  C   UNL     1       3.871  -2.153  -2.240  0.00  0.00    +0.149 A 
ATOM      8  C   UNL     1       3.998  -2.376  -0.883  0.00  0.00    +0.061 A 
BRANCH   3  10
ATOM      9  C   UNL     1       3.936  -0.798   2.362  0.00  0.00    +0.200 C 
ATOM     10  S   UNL     1       3.147  -2.296   1.708  0.00  0.00    -0.006 S 
ATOM     11  O   UNL     1       4.036  -3.400   1.807  0.00  0.00    -0.170 OA
ATOM     12  O   UNL     1       1.813  -2.394   2.187  0.00  0.00    -0.170 OA
ENDBRANCH   3  10
BRANCH   7  13
ATOM     13  N   UNL     1       4.955  -2.558  -3.163  0.00  0.00    +0.058 N 
ATOM     14  O   UNL     1       4.686  -2.987  -4.261  0.00  0.00    -0.126 OA
ATOM     15  O   UNL     1       6.110  -2.461  -2.818  0.00  0.00    -0.126 OA
ENDBRANCH   7  13
ENDBRANCH   1   6
BRANCH   1  16
ATOM     16  C   UNL     1       1.333  -0.807  -4.650  0.00  0.00    +0.087 C 
BRANCH  16  17
ATOM     17  C   UNL     1       1.521  -0.433  -6.122  0.00  0.00    -0.046 C 
BRANCH  17  18
ATOM     18  N   UNL     1       2.378   0.756  -6.219  0.00  0.00    +0.383 N 
ATOM     19  C   UNL     1       3.641   0.539  -5.467  0.00  0.00    -0.078 C 
ATOM     20  C   UNL     1       4.614   1.561  -6.106  0.00  0.00    -0.020 C 
ATOM     21  C   UNL     1       4.221   1.524  -7.601  0.00  0.00    -0.020 C 
ATOM     22  C   UNL     1       2.780   0.981  -7.625  0.00  0.00    -0.078 C 
ATOM     23  H   UNL     1       1.894   1.565  -5.862  0.00  0.00    -0.081 HD
ENDBRANCH  17  18
BRANCH  17  24
ATOM     24  C   UNL     1       0.158  -0.131  -6.750  0.00  0.00    +0.005 C 
ATOM     25  C   UNL     1      -0.814  -1.315  -6.529  0.00  0.00    +0.032 C 
ATOM     26  C   UNL     1      -1.544  -1.395  -7.894  0.00  0.00    +0.160 C 
ATOM     27  O   UNL     1      -0.507  -1.084  -8.849  0.00  0.00    -0.380 OA
ATOM     28  C   UNL     1       0.283  -0.021  -8.282  0.00  0.00    +0.162 C 
ENDBRANCH  17  24
ENDBRANCH  16  17
ENDBRANCH   1  16
TORSDOF 7
