REMARK  Name = ZINC12693204
REMARK  5 active torsions:
REMARK  status: ('A' for Active; 'I' for Inactive)
REMARK    1  A    between atoms: C_3  and  C_6
REMARK    2  A    between atoms: C_16  and  C_18
REMARK    3  A    between atoms: C_23  and  C_25
REMARK    4  A    between atoms: C_25  and  N_57
REMARK    5  A    between atoms: C_29  and  C_31
REMARK                            x       y       z     vdW  Elec       q    Type
REMARK                         _______ _______ _______ _____ _____    ______ ____
ROOT
ATOM      1  C   UNL     1      -3.371  -3.445  -5.090  0.00  0.00    +0.020 C 
ATOM      2  C   UNL     1      -2.049  -3.647  -5.298  0.00  0.00    -0.023 C 
ATOM      3  C   UNL     1      -1.606  -4.688  -6.281  0.00  0.00    +0.037 C 
ATOM      4  C   UNL     1      -0.109  -4.925  -6.304  0.00  0.00    +0.005 C 
ATOM      5  C   UNL     1       0.707  -3.667  -6.014  0.00  0.00    +0.012 C 
ATOM      6  C   UNL     1       0.383  -3.204  -4.592  0.00  0.00    +0.067 C 
ATOM      7  C   UNL     1      -1.105  -2.878  -4.570  0.00  0.00    +0.068 C 
ATOM      8  N   UNL     1      -1.273  -1.783  -3.910  0.00  0.00    -0.181 NA
ATOM      9  N   UNL     1      -0.073  -1.156  -3.555  0.00  0.00    -0.186 N 
ATOM     10  C   UNL     1       1.023  -1.841  -4.277  0.00  0.00    +0.146 C 
ATOM     11  C   UNL     1       0.062  -0.119  -2.705  0.00  0.00    +0.219 C 
ATOM     12  O   UNL     1       1.162   0.337  -2.473  0.00  0.00    -0.276 OA
ENDROOT
BRANCH   1  15
ATOM     13  C   UNL     1      -6.461  -5.048  -6.556  0.00  0.00    +0.008 A 
ATOM     14  C   UNL     1      -5.741  -4.191  -5.759  0.00  0.00    +0.015 A 
ATOM     15  C   UNL     1      -4.356  -4.239  -5.823  0.00  0.00    +0.012 A 
ATOM     16  S   UNL     1      -4.091  -5.519  -7.040  0.00  0.00    -0.097 S 
ATOM     17  C   UNL     1      -5.801  -5.909  -7.375  0.00  0.00    +0.046 A 
ENDBRANCH   1  15
BRANCH  10  18
ATOM     18  C   UNL     1       2.233  -2.004  -3.393  0.00  0.00    +0.013 A 
ATOM     19  C   UNL     1       3.546  -1.896  -3.714  0.00  0.00    +0.013 A 
ATOM     20  C   UNL     1       4.495  -2.086  -2.728  0.00  0.00    +0.008 A 
ATOM     21  C   UNL     1       4.085  -2.385  -1.470  0.00  0.00    +0.045 A 
ATOM     22  S   UNL     1       2.310  -2.398  -1.654  0.00  0.00    -0.100 S 
ENDBRANCH  10  18
BRANCH  11  23
ATOM     23  C   UNL     1      -1.155   0.475  -2.043  0.00  0.00    +0.022 C 
BRANCH  23  28
ATOM     24  C   UNL     1      -0.013   1.086   0.008  0.00  0.00    -0.077 C 
ATOM     25  C   UNL     1      -0.756   1.594   1.261  0.00  0.00    -0.020 C 
ATOM     26  C   UNL     1      -1.544   2.821   0.724  0.00  0.00    -0.008 C 
ATOM     27  C   UNL     1      -1.919   2.353  -0.705  0.00  0.00    +0.020 C 
ATOM     28  N   UNL     1      -0.738   1.601  -1.167  0.00  0.00    +0.393 N 
ATOM     29  H   UNL     1      -0.123   2.229  -1.698  0.00  0.00    -0.080 HD
BRANCH  27  30
ATOM     30  C   UNL     1      -2.157   3.541  -1.600  0.00  0.00    +0.197 C 
ATOM     31  O   UNL     1      -1.425   3.744  -2.545  0.00  0.00    -0.278 OA
ATOM     32  N   UNL     1      -3.183   4.378  -1.351  0.00  0.00    -0.331 N 
ATOM     33  H   UNL     1      -3.769   4.216  -0.595  0.00  0.00    +0.145 HD
ATOM     34  H   UNL     1      -3.336   5.144  -1.927  0.00  0.00    +0.145 HD
ENDBRANCH  27  30
ENDBRANCH  23  28
ENDBRANCH  11  23
TORSDOF 5
