REMARK  Name = ZINC51676095
REMARK  5 active torsions:
REMARK  status: ('A' for Active; 'I' for Inactive)
REMARK    1  A    between atoms: C_3  and  C_6
REMARK    2  A    between atoms: C_6  and  C_8
REMARK    3  A    between atoms: C_6  and  N_22
REMARK    4  A    between atoms: C_8  and  N_9
REMARK    5  A    between atoms: C_16  and  C_19
REMARK                            x       y       z     vdW  Elec       q    Type
REMARK                         _______ _______ _______ _____ _____    ______ ____
ROOT
ATOM      1  N   UNL     1       3.499  -0.814   2.092  0.00  0.00    -0.300 N 
ATOM      2  C   UNL     1       3.705  -1.102   3.392  0.00  0.00    +0.302 C 
ATOM      3  O   UNL     1       4.441  -0.403   4.062  0.00  0.00    -0.253 OA
ATOM      4  N   UNL     1       3.096  -2.167   3.951  0.00  0.00    -0.281 N 
ATOM      5  C   UNL     1       3.209  -2.434   5.394  0.00  0.00    +0.137 C 
ATOM      6  C   UNL     1       3.631  -3.896   5.583  0.00  0.00    +0.180 C 
ATOM      7  O   UNL     1       2.742  -4.741   4.848  0.00  0.00    -0.364 OA
ATOM      8  C   UNL     1       2.763  -4.525   3.435  0.00  0.00    +0.221 C 
ATOM      9  C   UNL     1       2.292  -3.092   3.137  0.00  0.00    +0.150 C 
ATOM     10  H   UNL     1       2.971  -1.411   1.540  0.00  0.00    +0.150 HD
ENDROOT
BRANCH   8  11
ATOM     11  C   UNL     1       1.839  -5.508   2.763  0.00  0.00    +0.241 C 
ATOM     12  O   UNL     1       1.156  -6.253   3.432  0.00  0.00    -0.273 OA
ATOM     13  N   UNL     1       1.774  -5.559   1.417  0.00  0.00    -0.327 N 
ATOM     14  H   UNL     1       2.320  -4.962   0.882  0.00  0.00    +0.145 HD
ATOM     15  H   UNL     1       1.179  -6.191   0.984  0.00  0.00    +0.145 HD
ENDBRANCH   8  11
BRANCH   1  16
ATOM     16  C   UNL     1       4.074   0.403   1.512  0.00  0.00    +0.098 C 
BRANCH  16  17
ATOM     17  C   UNL     1       3.591   0.557   0.068  0.00  0.00    +0.016 C 
BRANCH  17  18
ATOM     18  N   UNL     1       3.901  -0.666  -0.684  0.00  0.00    +0.387 N 
ATOM     19  C   UNL     1       5.337  -0.951  -0.582  0.00  0.00    -0.078 C 
ATOM     20  C   UNL     1       5.652  -2.268  -1.296  0.00  0.00    -0.019 C 
ATOM     21  C   UNL     1       5.256  -2.149  -2.771  0.00  0.00    -0.004 C 
ATOM     22  C   UNL     1       3.773  -1.778  -2.864  0.00  0.00    -0.019 C 
ATOM     23  C   UNL     1       3.528  -0.480  -2.092  0.00  0.00    -0.078 C 
ATOM     24  H   UNL     1       3.378  -1.439  -0.298  0.00  0.00    -0.081 HD
ENDBRANCH  17  18
BRANCH  17  27
ATOM     25  C   UNL     1       0.101   1.737  -0.032  0.00  0.00    +0.041 A 
ATOM     26  C   UNL     1       1.493   1.981  -0.078  0.00  0.00    +0.043 A 
ATOM     27  C   UNL     1       2.102   0.789   0.058  0.00  0.00    +0.093 A 
ATOM     28  O   UNL     1       1.158  -0.158   0.184  0.00  0.00    -0.469 OA
ATOM     29  C   UNL     1      -0.057   0.411   0.130  0.00  0.00    +0.195 A 
ENDBRANCH  17  27
ENDBRANCH  16  17
ENDBRANCH   1  16
TORSDOF 5
