REMARK  Name = ZINC20529720
REMARK  7 active torsions:
REMARK  status: ('A' for Active; 'I' for Inactive)
REMARK    1  A    between atoms: C_1  and  C_2
REMARK    2  A    between atoms: C_7  and  S_17
REMARK    3  A    between atoms: C_12  and  C_14
REMARK    4  A    between atoms: S_17  and  N_20
REMARK    5  A    between atoms: N_20  and  C_21
REMARK    6  A    between atoms: C_21  and  C_22
REMARK    7  A    between atoms: C_22  and  C_23
REMARK                            x       y       z     vdW  Elec       q    Type
REMARK                         _______ _______ _______ _____ _____    ______ ____
ROOT
ATOM      1  S   UNL     1       0.188   7.688  -2.853  0.00  0.00    +0.058 S 
ATOM      2  O   UNL     1       0.458   8.883  -2.132  0.00  0.00    -0.153 OA
ATOM      3  O   UNL     1       1.072   7.179  -3.842  0.00  0.00    -0.153 OA
ENDROOT
BRANCH   1   9
ATOM      4  C   UNL     1      -2.322   3.915   2.989  0.00  0.00    +0.029 C 
ATOM      5  C   UNL     1      -0.931   4.329   2.506  0.00  0.00    +0.083 C 
ATOM      6  C   UNL     1      -0.943   5.793   2.037  0.00  0.00    +0.059 C 
ATOM      7  C   UNL     1      -0.555   5.728   0.577  0.00  0.00    -0.022 A 
ATOM      8  C   UNL     1      -0.401   6.727  -0.365  0.00  0.00    +0.034 A 
ATOM      9  C   UNL     1      -0.016   6.412  -1.655  0.00  0.00    +0.106 A 
ATOM     10  C   UNL     1       0.199   5.092  -2.006  0.00  0.00    +0.030 A 
ATOM     11  C   UNL     1       0.041   4.091  -1.071  0.00  0.00    +0.026 A 
ATOM     12  C   UNL     1      -0.337   4.402   0.237  0.00  0.00    +0.040 A 
ATOM     13  N   UNL     1      -0.550   3.550   1.325  0.00  0.00    -0.268 N 
ATOM     14  C   UNL     1      -0.418   2.209   1.293  0.00  0.00    +0.223 C 
ATOM     15  O   UNL     1      -0.017   1.663   0.287  0.00  0.00    -0.275 OA
BRANCH  14  16
ATOM     16  C   UNL     1      -0.768   1.389   2.507  0.00  0.00    +0.076 C 
ATOM     17  C   UNL     1      -1.873   0.341   2.357  0.00  0.00    +0.013 C 
ATOM     18  C   UNL     1      -0.413  -0.099   2.481  0.00  0.00    +0.013 C 
ENDBRANCH  14  16
ENDBRANCH   1   9
BRANCH   1  19
ATOM     19  N   UNL     1      -1.277   7.904  -3.593  0.00  0.00    -0.189 NA
ATOM     20  H   UNL     1      -1.426   7.519  -4.613  0.00  0.00    +0.148 HD
BRANCH  19  21
ATOM     21  C   UNL     1      -2.421   8.400  -2.824  0.00  0.00    +0.115 C 
BRANCH  21  22
ATOM     22  C   UNL     1      -3.520   8.860  -3.784  0.00  0.00    +0.113 C 
BRANCH  22  23
ATOM     23  C   UNL     1      -4.696   9.371  -2.993  0.00  0.00    +0.217 C 
ATOM     24  O   UNL     1      -4.659   9.367  -1.780  0.00  0.00    -0.276 OA
ATOM     25  N   UNL     1      -5.790   9.832  -3.632  0.00  0.00    -0.301 N 
ATOM     26  C   UNL     1      -5.800   9.828  -5.078  0.00  0.00    +0.108 C 
ATOM     27  C   UNL     1      -5.217  11.154  -5.611  0.00  0.00    +0.019 C 
ATOM     28  C   UNL     1      -6.154  12.260  -5.363  0.00  0.00    +0.002 C 
ATOM     29  C   UNL     1      -6.429  12.532  -3.888  0.00  0.00    +0.002 C 
ATOM     30  C   UNL     1      -7.528  11.617  -3.406  0.00  0.00    +0.019 C 
ATOM     31  C   UNL     1      -6.925  10.325  -2.827  0.00  0.00    +0.108 C 
ENDBRANCH  22  23
ENDBRANCH  21  22
ENDBRANCH  19  21
ENDBRANCH   1  19
TORSDOF 6
