REMARK  Name = ZINC38659593
REMARK  14 active torsions:
REMARK  status: ('A' for Active; 'I' for Inactive)
REMARK    1  A    between atoms: C_1  and  C_2
REMARK    2  A    between atoms: C_2  and  O_3
REMARK    3  A    between atoms: O_3  and  C_4
REMARK    4  A    between atoms: C_7  and  C_12
REMARK    5  A    between atoms: C_9  and  O_10
REMARK    6  A    between atoms: O_10  and  C_11
REMARK    7  A    between atoms: C_17  and  O_26
REMARK    8  A    between atoms: C_21  and  N_25
REMARK    9  A    between atoms: C_22  and  C_23
REMARK   10  A    between atoms: O_26  and  C_27
REMARK   11  A    between atoms: C_27  and  C_29
REMARK   12  A    between atoms: C_29  and  C_31
REMARK   13  A    between atoms: C_29  and  O_32
REMARK   14  A    between atoms: O_32  and  C_33
REMARK                            x       y       z     vdW  Elec       q    Type
REMARK                         _______ _______ _______ _____ _____    ______ ____
ROOT
ATOM      1  C   UNL     1      -1.997  -5.926   0.035  0.00  0.00    +0.098 C 
ATOM      2  C   UNL     1      -1.347  -6.544   1.244  0.00  0.00    +0.008 A 
ATOM      3  C   UNL     1      -1.982  -6.468   2.471  0.00  0.00    +0.012 A 
ATOM      4  C   UNL     1      -1.401  -7.029   3.591  0.00  0.00    +0.047 A 
ATOM      5  C   UNL     1      -0.176  -7.673   3.488  0.00  0.00    +0.135 A 
ATOM      6  C   UNL     1       0.462  -7.752   2.260  0.00  0.00    +0.093 A 
ATOM      7  C   UNL     1      -0.124  -7.186   1.135  0.00  0.00    +0.138 A 
ATOM      8  O   UNL     1       0.513  -7.272  -0.059  0.00  0.00    -0.441 OA
ATOM      9  C   UNL     1      -0.175  -7.094  -1.199  0.00  0.00    +0.199 C 
ATOM     10  C   UNL     1      -1.369  -6.463  -1.221  0.00  0.00    +0.098 C 
ENDROOT
BRANCH   1  14
ATOM     11  C   UNL     1      -1.485  -1.682   0.169  0.00  0.00    +0.162 A 
ATOM     12  C   UNL     1      -0.379  -2.516   0.132  0.00  0.00    +0.050 A 
ATOM     13  C   UNL     1      -0.548  -3.887   0.089  0.00  0.00    +0.008 A 
ATOM     14  C   UNL     1      -1.819  -4.430   0.082  0.00  0.00    -0.031 A 
ATOM     15  C   UNL     1      -2.927  -3.604   0.118  0.00  0.00    +0.054 A 
ATOM     16  C   UNL     1      -2.765  -2.229   0.167  0.00  0.00    +0.162 A 
BRANCH  16  17
ATOM     17  O   UNL     1      -3.853  -1.415   0.209  0.00  0.00    -0.491 OA
ATOM     18  C   UNL     1      -5.136  -2.046   0.204  0.00  0.00    +0.277 C 
ENDBRANCH  16  17
BRANCH  11  19
ATOM     19  O   UNL     1      -1.321  -0.333   0.212  0.00  0.00    -0.489 OA
BRANCH  19  21
ATOM     20  C   UNL     1       0.006   1.686   0.262  0.00  0.00    +0.048 C 
ATOM     21  C   UNL     1       0.022   0.157   0.210  0.00  0.00    +0.226 C 
ENDBRANCH  19  21
ENDBRANCH  11  19
ENDBRANCH   1  14
BRANCH   9  22
ATOM     22  N   UNL     1       0.352  -7.565  -2.376  0.00  0.00    -0.328 N 
ATOM     23  H   UNL     1       1.209  -8.019  -2.376  0.00  0.00    +0.145 HD
ATOM     24  H   UNL     1      -0.132  -7.444  -3.207  0.00  0.00    +0.145 HD
ENDBRANCH   9  22
BRANCH  10  25
ATOM     25  C   UNL     1      -2.051  -6.304  -2.470  0.00  0.00    +0.101 C 
ATOM     26  N   UNL     1      -2.592  -6.178  -3.461  0.00  0.00    -0.191 NA
ENDBRANCH  10  25
BRANCH   5  27
ATOM     27  O   UNL     1       0.398  -8.226   4.589  0.00  0.00    -0.423 OA
BRANCH  27  28
ATOM     28  C   UNL     1       1.548  -7.696   5.035  0.00  0.00    +0.353 C 
ATOM     29  O   UNL     1       1.994  -6.699   4.517  0.00  0.00    -0.246 OA
BRANCH  28  30
ATOM     30  C   UNL     1       2.283  -8.343   6.180  0.00  0.00    +0.279 C 
ATOM     31  C   UNL     1       1.431  -8.254   7.448  0.00  0.00    +0.064 C 
BRANCH  30  32
ATOM     32  O   UNL     1       3.525  -7.668   6.391  0.00  0.00    -0.478 OA
BRANCH  32  33
ATOM     33  C   UNL     1       4.574  -8.424   6.812  0.00  0.00    +0.122 A 
ATOM     34  C   UNL     1       4.382  -9.759   7.135  0.00  0.00    +0.048 A 
ATOM     35  C   UNL     1       5.449 -10.526   7.563  0.00  0.00    +0.042 A 
ATOM     36  C   UNL     1       6.709  -9.962   7.668  0.00  0.00    +0.124 A 
ATOM     37  C   UNL     1       6.902  -8.629   7.346  0.00  0.00    +0.042 A 
ATOM     38  C   UNL     1       5.838  -7.862   6.912  0.00  0.00    +0.048 A 
ATOM     39  F   UNL     1       7.751 -10.713   8.087  0.00  0.00    -0.205 F 
ENDBRANCH  32  33
ENDBRANCH  30  32
ENDBRANCH  28  30
ENDBRANCH  27  28
ENDBRANCH   5  27
TORSDOF 11
