REMARK  Name = ZINC20516226
REMARK  10 active torsions:
REMARK  status: ('A' for Active; 'I' for Inactive)
REMARK    1  A    between atoms: C_1  and  C_2
REMARK    2  A    between atoms: C_2  and  C_33
REMARK    3  A    between atoms: C_5  and  S_13
REMARK    4  A    between atoms: N_9  and  C_12
REMARK    5  A    between atoms: S_13  and  N_16
REMARK    6  A    between atoms: N_16  and  C_17
REMARK    7  A    between atoms: C_17  and  C_18
REMARK    8  A    between atoms: C_21  and  C_24
REMARK    9  A    between atoms: N_26  and  C_27
REMARK   10  A    between atoms: C_27  and  C_28
REMARK                            x       y       z     vdW  Elec       q    Type
REMARK                         _______ _______ _______ _____ _____    ______ ____
ROOT
ATOM      1  N   UNL     1      -4.488  -4.860   3.076  0.00  0.00    -0.190 NA
ATOM      2  H   UNL     1      -3.681  -4.518   3.739  0.00  0.00    +0.148 HD
ENDROOT
BRANCH   1   3
ATOM      3  S   UNL     1      -4.631  -6.476   2.740  0.00  0.00    +0.058 S 
ATOM      4  O   UNL     1      -3.723  -7.150   3.601  0.00  0.00    -0.153 OA
ATOM      5  O   UNL     1      -6.021  -6.766   2.722  0.00  0.00    -0.153 OA
BRANCH   3  10
ATOM      6  C   UNL     1       0.103  -6.390  -0.650  0.00  0.00    +0.025 C 
ATOM      7  C   UNL     1      -0.889  -7.506  -0.984  0.00  0.00    +0.068 C 
ATOM      8  C   UNL     1      -2.252  -7.192  -0.412  0.00  0.00    -0.010 A 
ATOM      9  C   UNL     1      -2.707  -7.002   0.873  0.00  0.00    +0.035 A 
ATOM     10  C   UNL     1      -4.043  -6.720   1.097  0.00  0.00    +0.106 A 
ATOM     11  C   UNL     1      -4.918  -6.638   0.029  0.00  0.00    +0.030 A 
ATOM     12  C   UNL     1      -4.463  -6.822  -1.260  0.00  0.00    +0.026 A 
ATOM     13  C   UNL     1      -3.119  -7.106  -1.494  0.00  0.00    +0.040 A 
ATOM     14  N   UNL     1      -2.429  -7.336  -2.685  0.00  0.00    -0.273 N 
ATOM     15  C   UNL     1      -1.124  -7.577  -2.478  0.00  0.00    +0.230 C 
ATOM     16  O   UNL     1      -0.290  -7.808  -3.328  0.00  0.00    -0.274 OA
ATOM     17  C   UNL     1      -3.056  -7.316  -4.009  0.00  0.00    +0.138 C 
ATOM     18  C   UNL     1      -0.383  -8.851  -0.457  0.00  0.00    +0.025 C 
ENDBRANCH   3  10
ENDBRANCH   1   3
BRANCH   1  19
ATOM     19  C   UNL     1      -5.285  -3.884   2.328  0.00  0.00    +0.109 C 
BRANCH  19  20
ATOM     20  C   UNL     1      -5.260  -2.539   3.058  0.00  0.00    +0.005 C 
ATOM     21  C   UNL     1      -6.191  -1.556   2.346  0.00  0.00    +0.005 C 
ATOM     22  C   UNL     1      -6.165  -0.211   3.075  0.00  0.00    +0.013 C 
ATOM     23  C   UNL     1      -4.739   0.344   3.073  0.00  0.00    +0.075 C 
ATOM     24  C   UNL     1      -3.808  -0.640   3.784  0.00  0.00    +0.013 C 
ATOM     25  C   UNL     1      -3.834  -1.985   3.055  0.00  0.00    +0.005 C 
BRANCH  23  26
ATOM     26  C   UNL     1      -4.277   0.534   1.651  0.00  0.00    +0.216 C 
ATOM     27  O   UNL     1      -5.016   0.254   0.731  0.00  0.00    -0.276 OA
ATOM     28  N   UNL     1      -3.043   1.016   1.402  0.00  0.00    -0.310 N 
ATOM     29  H   UNL     1      -2.374   1.270   2.237  0.00  0.00    +0.149 HD
BRANCH  28  30
ATOM     30  C   UNL     1      -2.594   1.202   0.020  0.00  0.00    +0.146 C 
BRANCH  30  31
ATOM     31  C   UNL     1      -1.190   1.748   0.017  0.00  0.00    +0.007 A 
ATOM     32  C   UNL     1      -0.013   1.076   0.008  0.00  0.00    +0.013 A 
ATOM     33  C   UNL     1       1.169   1.793   0.001  0.00  0.00    +0.008 A 
ATOM     34  C   UNL     1       1.115   3.148   0.008  0.00  0.00    +0.045 A 
ATOM     35  S   UNL     1      -0.644   3.448   0.027  0.00  0.00    -0.100 S 
ENDBRANCH  30  31
ENDBRANCH  28  30
ENDBRANCH  23  26
ENDBRANCH  19  20
ENDBRANCH   1  19
TORSDOF 7
