REMARK  Name = ZINC50833323
REMARK  5 active torsions:
REMARK  status: ('A' for Active; 'I' for Inactive)
REMARK    1  A    between atoms: C_3  and  N_20
REMARK    2  A    between atoms: C_6  and  C_7
REMARK    3  A    between atoms: C_7  and  O_8
REMARK    4  A    between atoms: O_8  and  C_9
REMARK    5  A    between atoms: C_12  and  N_16
REMARK                            x       y       z     vdW  Elec       q    Type
REMARK                         _______ _______ _______ _____ _____    ______ ____
ROOT
ATOM      1  O   UNL     1      -1.709  -1.022  -1.334  0.00  0.00    -0.484 OA
ENDROOT
BRANCH   1   2
ATOM      2  C   UNL     1      -2.865  -1.717  -1.504  0.00  0.00    +0.158 A 
ATOM      3  C   UNL     1      -2.836  -3.102  -1.597  0.00  0.00    +0.086 A 
ATOM      4  C   UNL     1      -4.013  -3.807  -1.770  0.00  0.00    +0.056 A 
ATOM      5  C   UNL     1      -5.218  -3.133  -1.851  0.00  0.00    +0.129 A 
ATOM      6  C   UNL     1      -5.250  -1.754  -1.759  0.00  0.00    +0.056 A 
ATOM      7  C   UNL     1      -4.077  -1.045  -1.580  0.00  0.00    +0.086 A 
ATOM      8 CL   UNL     1      -4.118   0.686  -1.457  0.00  0.00    -0.080 Cl
ATOM      9 CL   UNL     1      -1.323  -3.948  -1.497  0.00  0.00    -0.080 Cl
BRANCH   5  10
ATOM     10  N   UNL     1      -6.476  -3.891  -2.036  0.00  0.00    +0.057 N 
ATOM     11  O   UNL     1      -6.449  -5.097  -2.117  0.00  0.00    -0.126 OA
ATOM     12  O   UNL     1      -7.530  -3.303  -2.107  0.00  0.00    -0.126 OA
ENDBRANCH   5  10
ENDBRANCH   1   2
BRANCH   1  13
ATOM     13  C   UNL     1      -1.288  -0.783   0.011  0.00  0.00    +0.266 C 
BRANCH  13  19
ATOM     14  C   UNL     1      -0.017   1.384   0.010  0.00  0.00    +0.012 A 
ATOM     15  C   UNL     1       1.190   2.061   0.002  0.00  0.00    +0.043 A 
ATOM     16  C   UNL     1       2.374   1.332  -0.013  0.00  0.00    +0.116 A 
ATOM     17  N   UNL     1       2.350   0.008  -0.020  0.00  0.00    -0.240 NA
ATOM     18  C   UNL     1       1.215  -0.664  -0.013  0.00  0.00    +0.119 A 
ATOM     19  C   UNL     1       0.002  -0.004   0.002  0.00  0.00    +0.008 A 
BRANCH  16  20
ATOM     20  N   UNL     1       3.594   1.999  -0.022  0.00  0.00    -0.343 N 
ATOM     21  H   UNL     1       3.616   2.969  -0.017  0.00  0.00    +0.144 HD
ATOM     22  H   UNL     1       4.422   1.495  -0.033  0.00  0.00    +0.144 HD
ENDBRANCH  16  20
ENDBRANCH  13  19
ENDBRANCH   1  13
TORSDOF 5
