REMARK  Name = ZINC40450260
REMARK  9 active torsions:
REMARK  status: ('A' for Active; 'I' for Inactive)
REMARK    1  A    between atoms: C_1  and  C_2
REMARK    2  A    between atoms: N_8  and  C_9
REMARK    3  A    between atoms: C_9  and  C_10
REMARK    4  A    between atoms: C_10  and  N_11
REMARK    5  A    between atoms: C_12  and  C_14
REMARK    6  A    between atoms: C_14  and  C_15
REMARK    7  A    between atoms: C_15  and  S_16
REMARK    8  A    between atoms: S_16  and  C_19
REMARK    9  A    between atoms: C_29  and  C_31
REMARK                            x       y       z     vdW  Elec       q    Type
REMARK                         _______ _______ _______ _____ _____    ______ ____
ROOT
ATOM      1  C   UNL     1       7.005   0.208   4.930  0.00  0.00    +0.181 C 
ENDROOT
BRANCH   1   2
ATOM      2  S   UNL     1       8.675   0.916   4.964  0.00  0.00    -0.002 S 
ATOM      3  O   UNL     1       9.486   0.305   3.970  0.00  0.00    -0.169 OA
ATOM      4  O   UNL     1       8.605   2.331   5.074  0.00  0.00    -0.169 OA
BRANCH   2   5
ATOM      5  C   UNL     1       9.363   0.380   6.496  0.00  0.00    +0.104 A 
ATOM      6  C   UNL     1      10.450  -0.468   6.502  0.00  0.00    +0.051 A 
ATOM      7  C   UNL     1      11.001  -0.898   7.710  0.00  0.00    +0.041 A 
ATOM      8  C   UNL     1      10.440  -0.460   8.899  0.00  0.00    -0.023 A 
ATOM      9  C   UNL     1       9.351   0.390   8.889  0.00  0.00    +0.022 A 
ATOM     10  C   UNL     1       8.814   0.816   7.688  0.00  0.00    +0.043 A 
ATOM     11 BR   UNL     1       7.328   1.987   7.676  0.00  0.00    -0.048 Br
ATOM     12  C   UNL     1      11.216  -1.064  10.048  0.00  0.00    +0.056 C 
ATOM     13  C   UNL     1      12.306  -1.914   9.375  0.00  0.00    +0.118 C 
ATOM     14  N   UNL     1      12.089  -1.747   7.935  0.00  0.00    -0.271 N 
ATOM     15  C   UNL     1      12.831  -2.326   6.970  0.00  0.00    +0.217 C 
ATOM     16  O   UNL     1      12.571  -2.124   5.803  0.00  0.00    -0.276 OA
ATOM     17  C   UNL     1      13.983  -3.224   7.341  0.00  0.00    +0.109 C 
ENDBRANCH   2   5
ENDBRANCH   1   2
BRANCH   1  18
ATOM     18  C   UNL     1       6.306   0.613   3.630  0.00  0.00    +0.119 C 
BRANCH  18  20
ATOM     19  N   UNL     1       4.113   0.250   2.546  0.00  0.00    -0.317 N 
ATOM     20  C   UNL     1       4.919   0.025   3.602  0.00  0.00    +0.215 C 
ATOM     21  O   UNL     1       4.528  -0.651   4.530  0.00  0.00    -0.276 OA
ATOM     22  H   UNL     1       4.426   0.791   1.803  0.00  0.00    +0.149 HD
BRANCH  19  23
ATOM     23  C   UNL     1       2.764  -0.321   2.518  0.00  0.00    +0.085 C 
BRANCH  23  24
ATOM     24  C   UNL     1       2.066   0.083   1.218  0.00  0.00    -0.059 C 
BRANCH  24  31
ATOM     25  C   UNL     1      -0.019   1.526   0.010  0.00  0.00    -0.013 C 
ATOM     26  C   UNL     1       0.002  -0.004   0.002  0.00  0.00    -0.072 C 
ATOM     27  C   UNL     1      -1.434  -0.533   0.011  0.00  0.00    -0.016 C 
ATOM     28  C   UNL     1      -1.408  -2.064   0.003  0.00  0.00    -0.003 C 
ATOM     29  C   UNL     1      -0.600  -2.558   1.206  0.00  0.00    -0.019 C 
ATOM     30  C   UNL     1       0.805  -1.954   1.152  0.00  0.00    -0.078 C 
ATOM     31  N   UNL     1       0.713  -0.490   1.191  0.00  0.00    +0.382 N 
ATOM     32  H   UNL     1       0.213  -0.206   2.020  0.00  0.00    -0.081 HD
ENDBRANCH  24  31
ENDBRANCH  23  24
ENDBRANCH  19  23
ENDBRANCH  18  20
ENDBRANCH   1  18
TORSDOF 7
