REMARK  Name = ZINC14328393
REMARK  6 active torsions:
REMARK  status: ('A' for Active; 'I' for Inactive)
REMARK    1  A    between atoms: C_1  and  C_2
REMARK    2  A    between atoms: C_2  and  N_3
REMARK    3  A    between atoms: N_14  and  N_15
REMARK    4  A    between atoms: C_16  and  C_18
REMARK    5  A    between atoms: C_18  and  C_19
REMARK    6  A    between atoms: C_28  and  O_31
REMARK                            x       y       z     vdW  Elec       q    Type
REMARK                         _______ _______ _______ _____ _____    ______ ____
ROOT
ATOM      1  N   UNL     1       4.854   3.518   1.418  0.00  0.00    -0.234 N 
ATOM      2  C   UNL     1       3.566   3.176   1.216  0.00  0.00    +0.230 C 
ATOM      3  O   UNL     1       2.994   2.466   2.016  0.00  0.00    -0.274 OA
ATOM      4  H   UNL     1       5.373   4.161   0.693  0.00  0.00    +0.173 HD
ENDROOT
BRANCH   1  16
ATOM      5  N   UNL     1       7.470   2.937   3.879  0.00  0.00    -0.280 N 
ATOM      6  C   UNL     1       8.764   3.250   4.122  0.00  0.00    +0.263 A 
ATOM      7  O   UNL     1       9.338   2.837   5.113  0.00  0.00    -0.267 OA
ATOM      8  C   UNL     1       9.450   4.109   3.148  0.00  0.00    +0.065 A 
ATOM      9  C   UNL     1      10.780   4.493   3.311  0.00  0.00    +0.015 A 
ATOM     10  C   UNL     1      11.369   5.295   2.373  0.00  0.00    +0.001 A 
ATOM     11  C   UNL     1      10.657   5.731   1.263  0.00  0.00    +0.002 A 
ATOM     12  C   UNL     1       9.352   5.370   1.078  0.00  0.00    +0.028 A 
ATOM     13  C   UNL     1       8.722   4.551   2.019  0.00  0.00    +0.080 A 
ATOM     14  N   UNL     1       7.431   4.169   1.877  0.00  0.00    -0.214 NA
ATOM     15  C   UNL     1       6.843   3.402   2.760  0.00  0.00    +0.216 A 
ATOM     16  N   UNL     1       5.532   3.054   2.553  0.00  0.00    -0.234 N 
ATOM     17  H   UNL     1       5.013   2.410   3.279  0.00  0.00    +0.173 HD
BRANCH   5  19
ATOM     18  C   UNL     1       6.910   0.619   4.424  0.00  0.00    +0.027 C 
ATOM     19  C   UNL     1       6.739   2.086   4.821  0.00  0.00    +0.125 C 
ENDBRANCH   5  19
ENDBRANCH   1  16
BRANCH   2  20
ATOM     20  C   UNL     1       2.837   3.675  -0.005  0.00  0.00    +0.104 C 
BRANCH  20  21
ATOM     21  C   UNL     1       1.402   3.145   0.006  0.00  0.00    -0.018 C 
ATOM     22  C   UNL     1       0.662   3.652  -1.234  0.00  0.00    +0.011 C 
ATOM     23  C   UNL     1      -0.773   3.123  -1.223  0.00  0.00    -0.007 C 
ATOM     24  C   UNL     1      -0.753   1.593  -1.232  0.00  0.00    +0.007 C 
ATOM     25  C   UNL     1      -0.013   1.086   0.008  0.00  0.00    -0.007 C 
ATOM     26  C   UNL     1       1.423   1.615  -0.003  0.00  0.00    +0.011 C 
ATOM     27  C   UNL     1      -0.729   1.579   1.267  0.00  0.00    +0.038 C 
ATOM     28  C   UNL     1      -0.750   3.109   1.275  0.00  0.00    +0.067 C 
ATOM     29  C   UNL     1      -1.490   3.616   0.036  0.00  0.00    +0.038 C 
ATOM     30  C   UNL     1       0.686   3.639   1.264  0.00  0.00    +0.042 C 
BRANCH  28  31
ATOM     31  O   UNL     1      -1.419   3.570   2.451  0.00  0.00    -0.389 OA
ATOM     32  H   UNL     1      -1.532   4.649   2.632  0.00  0.00    +0.210 HD
ENDBRANCH  28  31
ENDBRANCH  20  21
ENDBRANCH   2  20
TORSDOF 5
