REMARK  Name = ZINC09944512
REMARK  9 active torsions:
REMARK  status: ('A' for Active; 'I' for Inactive)
REMARK    1  A    between atoms: C_1  and  C_2
REMARK    2  A    between atoms: C_2  and  C_3
REMARK    3  A    between atoms: C_10  and  C_12
REMARK    4  A    between atoms: C_15  and  S_20
REMARK    5  A    between atoms: N_16  and  C_17
REMARK    6  A    between atoms: C_17  and  C_18
REMARK    7  A    between atoms: S_20  and  C_21
REMARK    8  A    between atoms: C_21  and  C_23
REMARK    9  A    between atoms: C_21  and  C_24
REMARK                            x       y       z     vdW  Elec       q    Type
REMARK                         _______ _______ _______ _____ _____    ______ ____
ROOT
ATOM      1  C   UNL     1       0.024  -0.842   1.095  0.00  0.00    +0.172 A 
ATOM      2  N   UNL     1       0.036  -2.074   0.634  0.00  0.00    -0.128 NA
ATOM      3  N   UNL     1       0.024  -2.062  -0.651  0.00  0.00    -0.122 NA
ATOM      4  C   UNL     1      -0.003  -0.825  -1.092  0.00  0.00    +0.193 A 
ATOM      5  N   UNL     1       0.002  -0.004   0.002  0.00  0.00    -0.298 N 
ENDROOT
BRANCH   1  12
ATOM      6  C   UNL     1      -0.737  -0.365   7.287  0.00  0.00    -0.007 C 
ATOM      7  C   UNL     1       0.377   0.683   7.370  0.00  0.00    +0.009 C 
ATOM      8  C   UNL     1       0.293   1.591   6.133  0.00  0.00    +0.043 C 
ATOM      9  C   UNL     1       0.159   0.725   4.923  0.00  0.00    -0.006 A 
ATOM     10  C   UNL     1      -0.161  -0.601   4.882  0.00  0.00    -0.036 A 
ATOM     11  C   UNL     1      -0.228  -1.188   3.624  0.00  0.00    +0.023 A 
ATOM     12  C   UNL     1       0.032  -0.437   2.509  0.00  0.00    +0.057 A 
ATOM     13  S   UNL     1       0.375   1.166   3.220  0.00  0.00    -0.090 S 
ATOM     14  C   UNL     1      -0.431  -1.367   6.173  0.00  0.00    +0.039 C 
BRANCH   6  16
ATOM     15  C   UNL     1      -2.039  -2.053   8.589  0.00  0.00    +0.004 C 
ATOM     16  C   UNL     1      -0.839  -1.104   8.622  0.00  0.00    +0.000 C 
ENDBRANCH   6  16
ENDBRANCH   1  12
BRANCH   5  17
ATOM     17  C   UNL     1      -0.018   1.461   0.010  0.00  0.00    +0.152 C 
BRANCH  17  18
ATOM     18  C   UNL     1       1.396   1.982  -0.001  0.00  0.00    -0.013 C 
ATOM     19  C   UNL     1       1.776   2.825  -0.929  0.00  0.00    +0.005 C 
ENDBRANCH  17  18
ENDBRANCH   5  17
BRANCH   4  20
ATOM     20  S   UNL     1      -0.035  -0.317  -2.779  0.00  0.00    -0.073 S 
BRANCH  20  21
ATOM     21  C   UNL     1      -0.025  -1.933  -3.593  0.00  0.00    +0.137 C 
ATOM     22  C   UNL     1      -1.318  -2.681  -3.259  0.00  0.00    +0.029 C 
BRANCH  21  23
ATOM     23  C   UNL     1       0.073  -1.743  -5.085  0.00  0.00    +0.233 C 
ATOM     24  O   UNL     1      -0.228  -0.679  -5.582  0.00  0.00    -0.274 OA
ATOM     25  N   UNL     1       0.497  -2.756  -5.867  0.00  0.00    -0.239 N 
ATOM     26  C   UNL     1       0.585  -2.586  -7.201  0.00  0.00    +0.303 C 
ATOM     27  O   UNL     1       0.283  -1.519  -7.699  0.00  0.00    -0.253 OA
ATOM     28  N   UNL     1       1.009  -3.599  -7.983  0.00  0.00    -0.313 N 
ATOM     29  H   UNL     1       0.738  -3.607  -5.469  0.00  0.00    +0.159 HD
ATOM     30  H   UNL     1       1.250  -4.450  -7.585  0.00  0.00    +0.146 HD
ATOM     31  H   UNL     1       1.072  -3.477  -8.943  0.00  0.00    +0.146 HD
ENDBRANCH  21  23
ENDBRANCH  20  21
ENDBRANCH   4  20
TORSDOF 7
