REMARK  Name = ZINC10058876
REMARK  10 active torsions:
REMARK  status: ('A' for Active; 'I' for Inactive)
REMARK    1  A    between atoms: C_1  and  C_2
REMARK    2  A    between atoms: C_2  and  C_3
REMARK    3  A    between atoms: C_3  and  C_5
REMARK    4  A    between atoms: C_3  and  C_6
REMARK    5  A    between atoms: C_9  and  O_12
REMARK    6  A    between atoms: O_12  and  C_13
REMARK    7  A    between atoms: C_13  and  C_14
REMARK    8  A    between atoms: N_16  and  N_17
REMARK    9  A    between atoms: C_18  and  C_19
REMARK   10  A    between atoms: C_24  and  O_25
REMARK                            x       y       z     vdW  Elec       q    Type
REMARK                         _______ _______ _______ _____ _____    ______ ____
ROOT
ATOM      1  C   UNL     1       1.901   3.859   1.055  0.00  0.00    +0.270 C 
ATOM      2  O   UNL     1       3.009   3.365   1.063  0.00  0.00    -0.270 OA
ATOM      3  N   UNL     1       0.830   3.107   0.733  0.00  0.00    -0.204 N 
ATOM      4  H   UNL     1      -0.056   3.502   0.726  0.00  0.00    +0.177 HD
ENDROOT
BRANCH   3   5
ATOM      5  N   UNL     1       0.996   1.754   0.408  0.00  0.00    -0.188 NA
ATOM      6  C   UNL     1      -0.016   1.059  -0.012  0.00  0.00    +0.142 C 
BRANCH   6   7
ATOM      7  C   UNL     1      -1.277   1.734  -0.368  0.00  0.00    +0.038 A 
ATOM      8  C   UNL     1      -1.265   3.066  -0.791  0.00  0.00    +0.028 A 
ATOM      9  C   UNL     1      -2.449   3.692  -1.123  0.00  0.00    +0.020 A 
ATOM     10  C   UNL     1      -3.649   3.006  -1.040  0.00  0.00    +0.039 A 
ATOM     11  C   UNL     1      -3.673   1.687  -0.624  0.00  0.00    +0.084 A 
ATOM     12  C   UNL     1      -2.492   1.042  -0.291  0.00  0.00    +0.144 A 
ATOM     13 CL   UNL     1      -5.184   0.837  -0.523  0.00  0.00    -0.080 Cl
ATOM     14 BR   UNL     1      -2.432   5.494  -1.694  0.00  0.00    -0.050 Br
BRANCH  12  15
ATOM     15  O   UNL     1      -2.514  -0.255   0.113  0.00  0.00    -0.505 OA
ATOM     16  H   UNL     1      -2.540  -0.367   1.073  0.00  0.00    +0.292 HD
ENDBRANCH  12  15
ENDBRANCH   6   7
ENDBRANCH   3   5
BRANCH   1  17
ATOM     17  C   UNL     1       1.723   5.314   1.404  0.00  0.00    +0.326 C 
BRANCH  17  18
ATOM     18  O   UNL     1       2.995   5.891   1.705  0.00  0.00    -0.483 OA
BRANCH  18  22
ATOM     19  C   UNL     1       3.043   9.887   2.730  0.00  0.00    -0.044 A 
ATOM     20  C   UNL     1       4.225   9.171   2.690  0.00  0.00    +0.007 A 
ATOM     21  C   UNL     1       4.211   7.832   2.348  0.00  0.00    +0.046 A 
ATOM     22  C   UNL     1       3.011   7.208   2.043  0.00  0.00    +0.121 A 
ATOM     23  C   UNL     1       1.827   7.931   2.078  0.00  0.00    +0.046 A 
ATOM     24  C   UNL     1       1.845   9.267   2.427  0.00  0.00    +0.007 A 
BRANCH  19  25
ATOM     25  C   UNL     1       3.061  11.347   3.104  0.00  0.00    +0.016 C 
ATOM     26  C   UNL     1       2.496  12.177   1.949  0.00  0.00    +0.012 C 
BRANCH  25  28
ATOM     27  C   UNL     1       2.322  13.020   4.806  0.00  0.00    +0.004 C 
ATOM     28  C   UNL     1       2.205  11.563   4.354  0.00  0.00    +0.004 C 
ENDBRANCH  25  28
ENDBRANCH  19  25
ENDBRANCH  18  22
ENDBRANCH  17  18
ENDBRANCH   1  17
TORSDOF 8
