REMARK  Name = ZINC52539896
REMARK  6 active torsions:
REMARK  status: ('A' for Active; 'I' for Inactive)
REMARK    1  A    between atoms: C_1  and  C_2
REMARK    2  A    between atoms: C_8  and  N_10
REMARK    3  A    between atoms: N_10  and  C_11
REMARK    4  A    between atoms: C_11  and  N_13
REMARK    5  A    between atoms: N_13  and  N_14
REMARK    6  A    between atoms: C_15  and  C_17
REMARK                            x       y       z     vdW  Elec       q    Type
REMARK                         _______ _______ _______ _____ _____    ______ ____
ROOT
ATOM      1  N   UNL     1       0.107   0.528   4.711  0.00  0.00    -0.246 N 
ATOM      2  H   UNL     1       0.598   0.623   5.542  0.00  0.00    +0.172 HD
ENDROOT
BRANCH   1   3
ATOM      3  N   UNL     1      -1.257   0.843   4.663  0.00  0.00    -0.231 N 
ATOM      4  C   UNL     1      -1.888   1.278   5.772  0.00  0.00    +0.263 C 
ATOM      5  O   UNL     1      -1.273   1.396   6.814  0.00  0.00    -0.269 OA
ATOM      6  H   UNL     1      -1.748   0.748   3.831  0.00  0.00    +0.173 HD
BRANCH   4   7
ATOM      7  C   UNL     1      -3.326   1.609   5.721  0.00  0.00    +0.073 A 
ATOM      8  C   UNL     1      -4.037   1.469   4.527  0.00  0.00    +0.017 A 
ATOM      9  C   UNL     1      -5.378   1.780   4.486  0.00  0.00    +0.016 A 
ATOM     10  C   UNL     1      -6.024   2.233   5.625  0.00  0.00    +0.021 A 
ATOM     11  C   UNL     1      -5.329   2.375   6.812  0.00  0.00    +0.054 A 
ATOM     12  C   UNL     1      -3.984   2.061   6.870  0.00  0.00    +0.137 A 
ATOM     13  F   UNL     1      -3.305   2.195   8.030  0.00  0.00    -0.205 F 
ATOM     14 BR   UNL     1      -7.866   2.659   5.556  0.00  0.00    -0.050 Br
ENDBRANCH   4   7
ENDBRANCH   1   3
BRANCH   1  15
ATOM     15  C   UNL     1       0.738   0.093   3.602  0.00  0.00    +0.147 C 
ATOM     16  S   UNL     1       2.405  -0.292   3.661  0.00  0.00    -0.017 S 
BRANCH  15  17
ATOM     17  N   UNL     1       0.056  -0.038   2.447  0.00  0.00    -0.322 N 
ATOM     18  H   UNL     1      -0.888   0.180   2.413  0.00  0.00    +0.148 HD
BRANCH  17  25
ATOM     19  C   UNL     1      -0.019   1.526   0.010  0.00  0.00    +0.009 C 
ATOM     20  C   UNL     1       0.002  -0.004   0.002  0.00  0.00    +0.006 C 
ATOM     21  C   UNL     1       0.718  -0.497  -1.257  0.00  0.00    +0.005 C 
ATOM     22  C   UNL     1       0.739  -2.027  -1.265  0.00  0.00    +0.000 C 
ATOM     23  C   UNL     1       1.479  -2.534  -0.026  0.00  0.00    +0.002 C 
ATOM     24  C   UNL     1       0.763  -2.041   1.233  0.00  0.00    +0.022 C 
ATOM     25  C   UNL     1       0.742  -0.511   1.242  0.00  0.00    +0.075 C 
ENDBRANCH  17  25
ENDBRANCH  15  17
ENDBRANCH   1  15
TORSDOF 5
