REMARK  Name = ZINC05173369
REMARK  5 active torsions:
REMARK  status: ('A' for Active; 'I' for Inactive)
REMARK    1  A    between atoms: C_4  and  C_8
REMARK    2  A    between atoms: C_8  and  C_9
REMARK    3  A    between atoms: N_11  and  C_12
REMARK    4  A    between atoms: C_12  and  C_13
REMARK    5  A    between atoms: N_15  and  C_16
REMARK                            x       y       z     vdW  Elec       q    Type
REMARK                         _______ _______ _______ _____ _____    ______ ____
ROOT
ATOM      1  C   UNL     1       2.296   5.679   0.225  0.00  0.00    +0.200 C 
ENDROOT
BRANCH   1   4
ATOM      2  C   UNL     1       3.895   7.507   0.427  0.00  0.00    +0.218 C 
ATOM      3  O   UNL     1       2.962   8.281   0.459  0.00  0.00    -0.275 OA
ATOM      4  N   UNL     1       3.669   6.183   0.312  0.00  0.00    -0.306 N 
ATOM      5  H   UNL     1       4.416   5.564   0.286  0.00  0.00    +0.149 HD
BRANCH   2   6
ATOM      6  C   UNL     1       5.308   8.025   0.516  0.00  0.00    +0.133 C 
BRANCH   6  10
ATOM      7  C   UNL     1       5.244  12.284   0.860  0.00  0.00    +0.003 A 
ATOM      8  C   UNL     1       5.214  11.499   1.997  0.00  0.00    +0.020 A 
ATOM      9  C   UNL     1       5.234  10.120   1.886  0.00  0.00    +0.046 A 
ATOM     10  C   UNL     1       5.285   9.527   0.637  0.00  0.00    -0.002 A 
ATOM     11  C   UNL     1       5.320  10.314  -0.500  0.00  0.00    +0.046 A 
ATOM     12  C   UNL     1       5.294  11.693  -0.388  0.00  0.00    +0.020 A 
ATOM     13 CL   UNL     1       5.390   9.571  -2.067  0.00  0.00    -0.083 Cl
ATOM     14 CL   UNL     1       5.197   9.133   3.314  0.00  0.00    -0.083 Cl
ENDBRANCH   6  10
ENDBRANCH   2   6
ENDBRANCH   1   4
BRANCH   1  15
ATOM     15  C   UNL     1       2.319   4.177   0.104  0.00  0.00    +0.234 C 
ATOM     16  O   UNL     1       3.378   3.586   0.091  0.00  0.00    -0.274 OA
ATOM     17  N   UNL     1       1.163   3.491   0.009  0.00  0.00    -0.282 N 
ATOM     18  H   UNL     1       0.321   3.967  -0.061  0.00  0.00    +0.155 HD
BRANCH  17  19
ATOM     19  C   UNL     1       1.178   2.090   0.013  0.00  0.00    +0.072 A 
ATOM     20  C   UNL     1       2.230   1.407   0.608  0.00  0.00    +0.029 A 
ATOM     21  C   UNL     1       2.244   0.026   0.611  0.00  0.00    +0.043 A 
ATOM     22  C   UNL     1       1.210  -0.680   0.022  0.00  0.00    +0.161 A 
ATOM     23  C   UNL     1       0.156  -0.003  -0.574  0.00  0.00    +0.195 A 
ATOM     24  C   UNL     1       0.139   1.381  -0.579  0.00  0.00    +0.182 A 
ATOM     25  F   UNL     1      -0.884   2.043  -1.163  0.00  0.00    -0.200 F 
ATOM     26  F   UNL     1      -0.852  -0.694  -1.149  0.00  0.00    -0.199 F 
ATOM     27  F   UNL     1       1.226  -2.031   0.026  0.00  0.00    -0.202 F 
ENDBRANCH  17  19
ENDBRANCH   1  15
TORSDOF 5
