REMARK  Name = ZINC03232402
REMARK  8 active torsions:
REMARK  status: ('A' for Active; 'I' for Inactive)
REMARK    1  A    between atoms: C_1  and  C_2
REMARK    2  A    between atoms: N_4  and  C_5
REMARK    3  A    between atoms: C_8  and  C_11
REMARK    4  A    between atoms: N_12  and  N_13
REMARK    5  A    between atoms: C_14  and  C_16
REMARK    6  A    between atoms: C_19  and  N_22
REMARK    7  A    between atoms: N_22  and  S_23
REMARK    8  A    between atoms: S_23  and  C_26
REMARK                            x       y       z     vdW  Elec       q    Type
REMARK                         _______ _______ _______ _____ _____    ______ ____
ROOT
ATOM      1  C   UNL     1       3.756  -1.747  -4.715  0.00  0.00    +0.038 A 
ATOM      2  C   UNL     1       3.221  -3.036  -4.634  0.00  0.00    +0.015 A 
ATOM      3  C   UNL     1       2.020  -3.242  -3.995  0.00  0.00    +0.025 A 
ATOM      4  C   UNL     1       1.337  -2.168  -3.430  0.00  0.00    +0.048 A 
ATOM      5  C   UNL     1       1.865  -0.883  -3.513  0.00  0.00    +0.025 A 
ATOM      6  C   UNL     1       3.069  -0.671  -4.146  0.00  0.00    +0.015 A 
ENDROOT
BRANCH   1   8
ATOM      7  N   UNL     1       5.559  -0.280  -5.474  0.00  0.00    -0.203 N 
ATOM      8  C   UNL     1       5.044  -1.523  -5.397  0.00  0.00    +0.263 C 
ATOM      9  O   UNL     1       5.642  -2.461  -5.891  0.00  0.00    -0.268 OA
ATOM     10  H   UNL     1       5.082   0.467  -5.080  0.00  0.00    +0.178 HD
BRANCH   7  12
ATOM     11  C   UNL     1       7.332   1.109  -6.103  0.00  0.00    +0.138 C 
ATOM     12  N   UNL     1       6.782  -0.067  -6.123  0.00  0.00    -0.187 NA
BRANCH  11  16
ATOM     13  C   UNL     1       6.276   3.894  -3.078  0.00  0.00    +0.033 A 
ATOM     14  C   UNL     1       5.917   2.557  -2.945  0.00  0.00    +0.024 A 
ATOM     15  C   UNL     1       6.258   1.650  -3.925  0.00  0.00    +0.011 A 
ATOM     16  C   UNL     1       6.965   2.076  -5.053  0.00  0.00    -0.005 A 
ATOM     17  C   UNL     1       7.329   3.419  -5.179  0.00  0.00    +0.011 A 
ATOM     18  C   UNL     1       6.979   4.321  -4.198  0.00  0.00    +0.024 A 
BRANCH  13  22
ATOM     19  C   UNL     1       6.417   6.783  -0.671  0.00  0.00    +0.109 C 
ATOM     20  C   UNL     1       6.738   5.854  -1.813  0.00  0.00    +0.214 C 
ATOM     21  O   UNL     1       7.726   6.044  -2.490  0.00  0.00    -0.276 OA
ATOM     22  N   UNL     1       5.928   4.811  -2.082  0.00  0.00    -0.286 N 
ATOM     23  H   UNL     1       5.103   4.696  -1.584  0.00  0.00    +0.155 HD
ENDBRANCH  13  22
ENDBRANCH  11  16
ENDBRANCH   7  12
ENDBRANCH   1   8
BRANCH   4  24
ATOM     24  N   UNL     1       0.123  -2.380  -2.786  0.00  0.00    -0.216 N 
ATOM     25  H   UNL     1      -0.704  -2.091  -3.204  0.00  0.00    +0.174 HD
BRANCH  24  26
ATOM     26  S   UNL     1       0.088  -3.123  -1.307  0.00  0.00    +0.072 S 
ATOM     27  O   UNL     1       0.862  -4.309  -1.430  0.00  0.00    -0.150 OA
ATOM     28  O   UNL     1      -1.270  -3.140  -0.892  0.00  0.00    -0.150 OA
BRANCH  26  29
ATOM     29  C   UNL     1       0.946  -2.077  -0.178  0.00  0.00    +0.109 A 
ATOM     30  C   UNL     1       0.280  -1.037   0.443  0.00  0.00    +0.030 A 
ATOM     31  C   UNL     1       0.953  -0.216   1.329  0.00  0.00    +0.017 A 
ATOM     32  C   UNL     1       2.293  -0.435   1.593  0.00  0.00    +0.018 A 
ATOM     33  C   UNL     1       2.959  -1.475   0.971  0.00  0.00    +0.017 A 
ATOM     34  C   UNL     1       2.286  -2.296   0.085  0.00  0.00    +0.030 A 
ATOM     35 BR   UNL     1       3.213   0.687   2.805  0.00  0.00    -0.050 Br
ENDBRANCH  26  29
ENDBRANCH  24  26
ENDBRANCH   4  24
TORSDOF 7
