REMARK  Name = ZINC34830380
REMARK  6 active torsions:
REMARK  status: ('A' for Active; 'I' for Inactive)
REMARK    1  A    between atoms: C_1  and  C_2
REMARK    2  A    between atoms: C_7  and  C_8
REMARK    3  A    between atoms: N_17  and  C_18
REMARK    4  A    between atoms: C_18  and  C_20
REMARK    5  A    between atoms: C_18  and  C_21
REMARK    6  A    between atoms: C_30  and  C_32
REMARK                            x       y       z     vdW  Elec       q    Type
REMARK                         _______ _______ _______ _____ _____    ______ ____
ROOT
ATOM      1  C   UNL     1      -0.658  -2.273   2.479  0.00  0.00    +0.018 C 
ATOM      2  C   UNL     1      -0.704  -3.434   1.484  0.00  0.00    -0.004 C 
ENDROOT
BRANCH   1   3
ATOM      3  C   UNL     1      -1.336  -2.682   3.761  0.00  0.00    +0.202 C 
ATOM      4  O   UNL     1      -0.676  -2.880   4.759  0.00  0.00    -0.277 OA
ATOM      5  N   UNL     1      -2.675  -2.828   3.798  0.00  0.00    -0.301 N 
ATOM      6  C   UNL     1      -3.355  -3.129   5.009  0.00  0.00    +0.109 C 
ATOM      7  C   UNL     1      -3.392  -4.649   5.375  0.00  0.00    +0.038 C 
ATOM      8  C   UNL     1      -3.582  -5.443   4.042  0.00  0.00    +0.109 C 
ATOM      9  N   UNL     1      -4.456  -4.828   3.105  0.00  0.00    -0.296 N 
ATOM     10  C   UNL     1      -3.831  -3.999   2.042  0.00  0.00    +0.127 C 
ATOM     11  C   UNL     1      -3.506  -2.675   2.576  0.00  0.00    +0.126 C 
ATOM     12  C   UNL     1      -5.792  -4.989   3.178  0.00  0.00    +0.247 C 
ATOM     13  O   UNL     1      -6.284  -5.561   4.130  0.00  0.00    -0.270 OA
BRANCH  12  14
ATOM     14  C   UNL     1      -6.658  -4.470   2.099  0.00  0.00    +0.037 A 
ATOM     15  C   UNL     1      -7.747  -5.221   1.652  0.00  0.00    +0.016 A 
ATOM     16  C   UNL     1      -8.552  -4.733   0.646  0.00  0.00    +0.039 A 
ATOM     17  C   UNL     1      -8.282  -3.497   0.077  0.00  0.00    +0.123 A 
ATOM     18  C   UNL     1      -7.202  -2.747   0.517  0.00  0.00    +0.039 A 
ATOM     19  C   UNL     1      -6.394  -3.224   1.527  0.00  0.00    +0.016 A 
ATOM     20  F   UNL     1      -9.074  -3.023  -0.910  0.00  0.00    -0.205 F 
ENDBRANCH  12  14
ENDBRANCH   1   3
BRANCH   1  29
ATOM     21  C   UNL     1       0.779  -0.821   3.728  0.00  0.00    -0.005 C 
ATOM     22  C   UNL     1       2.233  -0.531   4.088  0.00  0.00    -0.047 A 
ATOM     23  C   UNL     1       2.672   0.661   4.657  0.00  0.00    +0.010 A 
ATOM     24  C   UNL     1       3.985   0.833   4.942  0.00  0.00    +0.045 A 
ATOM     25  S   UNL     1       4.685  -0.722   4.405  0.00  0.00    -0.101 S 
ATOM     26  C   UNL     1       3.184  -1.478   3.848  0.00  0.00    -0.010 A 
ATOM     27  C   UNL     1       2.961  -2.829   3.253  0.00  0.00    +0.024 C 
ATOM     28  C   UNL     1       1.446  -3.101   3.275  0.00  0.00    -0.071 C 
ATOM     29  N   UNL     1       0.741  -1.921   2.756  0.00  0.00    +0.395 N 
ATOM     30  H   UNL     1       1.183  -1.622   1.899  0.00  0.00    -0.079 HD
BRANCH  21  37
ATOM     31  C   UNL     1      -0.350   1.213   5.440  0.00  0.00    +0.044 C 
ATOM     32  C   UNL     1      -0.387   1.383   3.943  0.00  0.00    -0.049 A 
ATOM     33  C   UNL     1      -0.956   2.514   3.389  0.00  0.00    +0.003 A 
ATOM     34  C   UNL     1      -0.991   2.669   2.016  0.00  0.00    +0.000 A 
ATOM     35  C   UNL     1      -0.455   1.693   1.197  0.00  0.00    +0.000 A 
ATOM     36  C   UNL     1       0.115   0.562   1.750  0.00  0.00    +0.002 A 
ATOM     37  C   UNL     1       0.153   0.409   3.124  0.00  0.00    -0.054 A 
ENDBRANCH  21  37
ENDBRANCH   1  29
TORSDOF 4
