REMARK  Name = ZINC34999539
REMARK  9 active torsions:
REMARK  status: ('A' for Active; 'I' for Inactive)
REMARK    1  A    between atoms: C_1  and  C_2
REMARK    2  A    between atoms: C_5  and  C_8
REMARK    3  A    between atoms: N_10  and  C_11
REMARK    4  A    between atoms: N_10  and  C_22
REMARK    5  A    between atoms: C_11  and  C_12
REMARK    6  A    between atoms: C_12  and  C_13
REMARK    7  A    between atoms: C_13  and  N_14
REMARK    8  A    between atoms: C_19  and  C_21
REMARK    9  A    between atoms: C_22  and  C_23
REMARK                            x       y       z     vdW  Elec       q    Type
REMARK                         _______ _______ _______ _____ _____    ______ ____
ROOT
ATOM      1  C   UNL     1       0.097  -4.478  -0.001  0.00  0.00    +0.247 C 
ATOM      2  O   UNL     1       0.338  -3.290  -0.094  0.00  0.00    -0.270 OA
ATOM      3  N   UNL     1      -0.042  -5.044   1.214  0.00  0.00    -0.293 N 
ENDROOT
BRANCH   1   8
ATOM      4  C   UNL     1      -0.448  -7.680  -4.751  0.00  0.00    +0.044 C 
ATOM      5  C   UNL     1      -0.305  -6.842  -3.507  0.00  0.00    -0.050 A 
ATOM      6  C   UNL     1      -0.652  -5.503  -3.536  0.00  0.00    +0.004 A 
ATOM      7  C   UNL     1      -0.524  -4.729  -2.401  0.00  0.00    +0.013 A 
ATOM      8  C   UNL     1      -0.043  -5.301  -1.222  0.00  0.00    +0.037 A 
ATOM      9  C   UNL     1       0.305  -6.652  -1.199  0.00  0.00    +0.013 A 
ATOM     10  C   UNL     1       0.167  -7.415  -2.340  0.00  0.00    +0.004 A 
ENDBRANCH   1   8
BRANCH   3  11
ATOM     11  C   UNL     1      -0.190  -6.497   1.331  0.00  0.00    +0.106 C 
BRANCH  11  12
ATOM     12  C   UNL     1       1.157  -7.119   1.704  0.00  0.00    +0.000 C 
BRANCH  12  13
ATOM     13  C   UNL     1       1.002  -8.636   1.827  0.00  0.00    -0.077 C 
BRANCH  13  14
ATOM     14  N   UNL     1       2.296  -9.233   2.186  0.00  0.00    +0.381 N 
ATOM     15  C   UNL     1       3.251  -9.019   1.092  0.00  0.00    -0.078 C 
ATOM     16  C   UNL     1       4.622  -9.567   1.493  0.00  0.00    -0.019 C 
ATOM     17  C   UNL     1       4.502 -11.066   1.782  0.00  0.00    -0.003 C 
ATOM     18  C   UNL     1       3.449 -11.283   2.873  0.00  0.00    -0.016 C 
ATOM     19  C   UNL     1       2.121 -10.671   2.421  0.00  0.00    -0.072 C 
ATOM     20  C   UNL     1       1.065 -10.885   3.507  0.00  0.00    -0.013 C 
ATOM     21  H   UNL     1       2.646  -8.796   3.025  0.00  0.00    -0.081 HD
ENDBRANCH  13  14
ENDBRANCH  12  13
ENDBRANCH  11  12
ENDBRANCH   3  11
BRANCH   3  22
ATOM     22  C   UNL     1      -0.045  -4.208   2.416  0.00  0.00    +0.143 C 
BRANCH  22  23
ATOM     23  C   UNL     1      -1.465  -3.861   2.784  0.00  0.00    -0.030 A 
ATOM     24  C   UNL     1      -2.050  -2.716   2.276  0.00  0.00    +0.006 A 
ATOM     25  C   UNL     1      -3.352  -2.398   2.613  0.00  0.00    +0.020 A 
ATOM     26  C   UNL     1      -4.070  -3.226   3.458  0.00  0.00    +0.041 A 
ATOM     27  C   UNL     1      -3.483  -4.372   3.966  0.00  0.00    +0.020 A 
ATOM     28  C   UNL     1      -2.183  -4.692   3.624  0.00  0.00    +0.006 A 
ATOM     29 CL   UNL     1      -5.705  -2.827   3.882  0.00  0.00    -0.084 Cl
ENDBRANCH  22  23
ENDBRANCH   3  22
TORSDOF 7
