REMARK  Name = ZINC36819313
REMARK  4 active torsions:
REMARK  status: ('A' for Active; 'I' for Inactive)
REMARK    1  A    between atoms: C_1  and  C_2
REMARK    2  A    between atoms: C_3  and  C_17
REMARK    3  A    between atoms: N_6  and  C_7
REMARK    4  A    between atoms: C_10  and  N_14
REMARK                            x       y       z     vdW  Elec       q    Type
REMARK                         _______ _______ _______ _____ _____    ______ ____
ROOT
ATOM      1  C   UNL     1       0.176  -0.274   2.372  0.00  0.00    +0.081 A 
ATOM      2  C   UNL     1       0.058   1.085   2.628  0.00  0.00    +0.031 A 
ATOM      3  C   UNL     1       0.145   1.552   3.925  0.00  0.00    +0.035 A 
ATOM      4  C   UNL     1       0.349   0.668   4.968  0.00  0.00    +0.127 A 
ATOM      5  C   UNL     1       0.467  -0.686   4.717  0.00  0.00    +0.050 A 
ATOM      6  C   UNL     1       0.375  -1.161   3.422  0.00  0.00    +0.045 A 
ATOM      7 BR   UNL     1       0.528  -3.015   3.080  0.00  0.00    -0.048 Br
ENDROOT
BRANCH   1  13
ATOM      8  C   UNL     1      -2.025   0.497   0.351  0.00  0.00    +0.068 C 
ATOM      9  C   UNL     1      -0.859  -0.436   0.148  0.00  0.00    +0.076 A 
ATOM     10  C   UNL     1      -0.548  -1.127  -1.003  0.00  0.00    +0.196 A 
ATOM     11  N   UNL     1       0.566  -1.847  -0.773  0.00  0.00    -0.122 NA
ATOM     12  N   UNL     1       0.965  -1.650   0.434  0.00  0.00    -0.060 NA
ATOM     13  N   UNL     1       0.088  -0.751   1.056  0.00  0.00    -0.215 N 
BRANCH  10  14
ATOM     14  C   UNL     1      -1.304  -1.086  -2.265  0.00  0.00    +0.408 C 
ATOM     15  O   UNL     1      -2.307  -0.391  -2.355  0.00  0.00    -0.239 OA
ATOM     16  O   UNL     1      -0.929  -1.747  -3.224  0.00  0.00    -0.239 OA
ENDBRANCH  10  14
ENDBRANCH   1  13
BRANCH   4  17
ATOM     17  N   UNL     1       0.443   1.173   6.357  0.00  0.00    +0.056 N 
ATOM     18  O   UNL     1       0.340   2.357   6.578  0.00  0.00    -0.126 OA
ATOM     19  O   UNL     1       0.622   0.400   7.270  0.00  0.00    -0.126 OA
ENDBRANCH   4  17
TORSDOF 3
