REMARK  Name = ZINC08881270
REMARK  12 active torsions:
REMARK  status: ('A' for Active; 'I' for Inactive)
REMARK    1  A    between atoms: C_1  and  C_2
REMARK    2  A    between atoms: C_2  and  C_3
REMARK    3  A    between atoms: C_3  and  N_64
REMARK    4  A    between atoms: C_9  and  N_14
REMARK    5  A    between atoms: C_10  and  C_11
REMARK    6  A    between atoms: C_15  and  C_17
REMARK    7  A    between atoms: C_20  and  S_23
REMARK    8  A    between atoms: S_23  and  N_26
REMARK    9  A    between atoms: N_26  and  C_27
REMARK   10  A    between atoms: N_26  and  C_30
REMARK   11  A    between atoms: C_27  and  C_28
REMARK   12  A    between atoms: C_30  and  C_31
REMARK                            x       y       z     vdW  Elec       q    Type
REMARK                         _______ _______ _______ _____ _____    ______ ____
ROOT
ATOM      1  N   UNL     1       1.469   2.083   2.486  0.00  0.00    -0.275 N 
ATOM      2  C   UNL     1       2.216   2.522   3.518  0.00  0.00    +0.249 C 
ATOM      3  O   UNL     1       3.244   3.136   3.307  0.00  0.00    -0.270 OA
ATOM      4  H   UNL     1       0.649   1.594   2.654  0.00  0.00    +0.156 HD
ENDROOT
BRANCH   1  10
ATOM      5  C   UNL     1       2.017   2.978  -3.634  0.00  0.00    -0.074 C 
ATOM      6  C   UNL     1       1.330   2.047  -2.631  0.00  0.00    +0.018 C 
ATOM      7  C   UNL     1       1.880   2.355  -1.243  0.00  0.00    -0.027 A 
ATOM      8  C   UNL     1       3.038   3.042  -1.109  0.00  0.00    -0.021 A 
ATOM      9  S   UNL     1       3.286   3.172   0.637  0.00  0.00    -0.079 S 
ATOM     10  C   UNL     1       1.873   2.331   1.184  0.00  0.00    +0.085 A 
ATOM     11  C   UNL     1       1.245   1.963   0.001  0.00  0.00    +0.068 A 
ATOM     12  C   UNL     1       3.895   3.563  -2.220  0.00  0.00    -0.035 C 
ATOM     13  N   UNL     1       3.482   2.880  -3.470  0.00  0.00    +0.383 N 
ATOM     14  H   UNL     1       3.747   1.890  -3.414  0.00  0.00    -0.081 HD
BRANCH  11  15
ATOM     15  C   UNL     1      -0.014   1.213   0.009  0.00  0.00    +0.244 C 
ATOM     16  O   UNL     1       0.002  -0.004   0.002  0.00  0.00    -0.270 OA
ATOM     17  N   UNL     1      -1.191   1.871   0.018  0.00  0.00    -0.325 N 
ATOM     18  H   UNL     1      -2.024   1.375   0.019  0.00  0.00    +0.145 HD
ATOM     19  H   UNL     1      -1.204   2.841   0.023  0.00  0.00    +0.145 HD
ENDBRANCH  11  15
BRANCH  13  20
ATOM     20  C   UNL     1       4.163   3.494  -4.631  0.00  0.00    -0.079 C 
BRANCH  20  22
ATOM     21  C   UNL     1       4.426   5.556  -6.016  0.00  0.00    +0.002 C 
ATOM     22  C   UNL     1       3.710   4.944  -4.810  0.00  0.00    -0.022 C 
ENDBRANCH  20  22
ENDBRANCH  13  20
ENDBRANCH   1  10
BRANCH   2  23
ATOM     23  C   UNL     1       1.784   2.258   4.907  0.00  0.00    +0.037 A 
ATOM     24  C   UNL     1       0.602   1.559   5.153  0.00  0.00    +0.015 A 
ATOM     25  C   UNL     1       0.208   1.310   6.451  0.00  0.00    +0.029 A 
ATOM     26  C   UNL     1       0.977   1.763   7.509  0.00  0.00    +0.106 A 
ATOM     27  C   UNL     1       2.147   2.462   7.272  0.00  0.00    +0.029 A 
ATOM     28  C   UNL     1       2.555   2.712   5.979  0.00  0.00    +0.015 A 
BRANCH  26  29
ATOM     29  S   UNL     1       0.463   1.448   9.165  0.00  0.00    +0.061 S 
ATOM     30  O   UNL     1      -0.380   0.305   9.118  0.00  0.00    -0.153 OA
ATOM     31  O   UNL     1       1.633   1.499   9.970  0.00  0.00    -0.153 OA
BRANCH  29  32
ATOM     32  N   UNL     1      -0.490   2.719   9.632  0.00  0.00    -0.169 NA
BRANCH  32  33
ATOM     33  C   UNL     1      -1.936   2.673   9.405  0.00  0.00    +0.136 C 
BRANCH  33  34
ATOM     34  C   UNL     1      -2.624   2.168  10.647  0.00  0.00    -0.018 C 
ATOM     35  C   UNL     1      -3.576   2.876  11.202  0.00  0.00    +0.005 C 
ENDBRANCH  33  34
ENDBRANCH  32  33
BRANCH  32  36
ATOM     36  C   UNL     1       0.114   3.890  10.273  0.00  0.00    +0.136 C 
BRANCH  36  37
ATOM     37  C   UNL     1       0.390   4.946   9.233  0.00  0.00    -0.018 C 
ATOM     38  C   UNL     1      -0.093   6.154   9.382  0.00  0.00    +0.005 C 
ENDBRANCH  36  37
ENDBRANCH  32  36
ENDBRANCH  29  32
ENDBRANCH  26  29
ENDBRANCH   2  23
TORSDOF 11
