REMARK  Name = ZINC03376704
REMARK  11 active torsions:
REMARK  status: ('A' for Active; 'I' for Inactive)
REMARK    1  A    between atoms: C_3  and  C_6
REMARK    2  A    between atoms: N_8  and  C_19
REMARK    3  A    between atoms: N_11  and  C_12
REMARK    4  A    between atoms: C_12  and  C_13
REMARK    5  A    between atoms: C_19  and  N_49
REMARK    6  A    between atoms: C_20  and  C_21
REMARK    7  A    between atoms: C_20  and  N_49
REMARK    8  A    between atoms: C_21  and  C_22
REMARK    9  A    between atoms: C_24  and  C_25
REMARK   10  A    between atoms: C_24  and  N_49
REMARK   11  A    between atoms: C_25  and  C_26
REMARK                            x       y       z     vdW  Elec       q    Type
REMARK                         _______ _______ _______ _____ _____    ______ ____
ROOT
ATOM      1  C   UNL     1       3.380   2.007  -0.080  0.00  0.00    +0.169 A 
ATOM      2  N   UNL     1       3.533   0.717   0.061  0.00  0.00    -0.152 NA
ATOM      3  N   UNL     1       4.906   0.449   0.137  0.00  0.00    -0.257 N 
ATOM      4  C   UNL     1       5.556   1.627   0.044  0.00  0.00    +0.177 A 
ATOM      5  S   UNL     1       7.253   1.851   0.090  0.00  0.00    -0.011 S 
ATOM      6  N   UNL     1       4.630   2.597  -0.090  0.00  0.00    -0.300 N 
ENDROOT
BRANCH   1   9
ATOM      7  C   UNL     1      -0.218   3.068  -0.549  0.00  0.00    +0.008 A 
ATOM      8  C   UNL     1       0.850   2.203  -0.478  0.00  0.00    +0.019 A 
ATOM      9  C   UNL     1       2.094   2.713  -0.202  0.00  0.00    +0.056 A 
ATOM     10  S   UNL     1       1.746   4.456  -0.031  0.00  0.00    -0.094 S 
ATOM     11  C   UNL     1      -0.012   4.394  -0.334  0.00  0.00    +0.046 A 
ENDBRANCH   1   9
BRANCH   6  12
ATOM     12  C   UNL     1       4.901   4.031  -0.222  0.00  0.00    +0.157 C 
BRANCH  12  13
ATOM     13  C   UNL     1       4.938   4.673   1.166  0.00  0.00    +0.138 C 
ATOM     14  C   UNL     1       5.278   6.181   1.052  0.00  0.00    +0.035 C 
ATOM     15  C   UNL     1       4.647   6.725   2.363  0.00  0.00    +0.031 C 
ATOM     16  C   UNL     1       3.407   5.820   2.530  0.00  0.00    +0.160 C 
ATOM     17  O   UNL     1       3.637   4.626   1.772  0.00  0.00    -0.375 OA
ENDBRANCH  12  13
ENDBRANCH   6  12
BRANCH   3  18
ATOM     18  C   UNL     1       5.524  -0.870   0.293  0.00  0.00    +0.072 C 
BRANCH  18  19
ATOM     19  N   UNL     1       5.689  -1.151   1.735  0.00  0.00    +0.394 N 
ATOM     20  H   UNL     1       6.171  -0.359   2.176  0.00  0.00    -0.079 HD
BRANCH  19  21
ATOM     21  C   UNL     1       4.365  -1.321   2.371  0.00  0.00    -0.061 C 
BRANCH  21  22
ATOM     22  C   UNL     1       3.612  -2.492   1.738  0.00  0.00    +0.100 C 
BRANCH  22  23
ATOM     23  C   UNL     1       2.281  -2.611   2.355  0.00  0.00    +0.061 C 
ATOM     24  N   UNL     1       1.254  -2.702   2.832  0.00  0.00    -0.197 NA
ENDBRANCH  22  23
ENDBRANCH  21  22
ENDBRANCH  19  21
BRANCH  19  25
ATOM     25  C   UNL     1       6.500  -2.372   1.922  0.00  0.00    -0.061 C 
BRANCH  25  26
ATOM     26  C   UNL     1       6.959  -2.439   3.380  0.00  0.00    +0.100 C 
BRANCH  26  27
ATOM     27  C   UNL     1       7.787  -3.639   3.579  0.00  0.00    +0.061 C 
ATOM     28  N   UNL     1       8.427  -4.565   3.733  0.00  0.00    -0.197 NA
ENDBRANCH  26  27
ENDBRANCH  25  26
ENDBRANCH  19  25
ENDBRANCH  18  19
ENDBRANCH   3  18
TORSDOF 11
