REMARK  Name = ZINC05052125
REMARK  9 active torsions:
REMARK  status: ('A' for Active; 'I' for Inactive)
REMARK    1  A    between atoms: N_9  and  C_20
REMARK    2  A    between atoms: C_20  and  C_21
REMARK    3  A    between atoms: C_21  and  N_44
REMARK    4  A    between atoms: C_22  and  C_23
REMARK    5  A    between atoms: C_22  and  N_44
REMARK    6  A    between atoms: C_23  and  O_24
REMARK    7  A    between atoms: C_25  and  C_26
REMARK    8  A    between atoms: C_25  and  N_44
REMARK    9  A    between atoms: C_26  and  O_27
REMARK                            x       y       z     vdW  Elec       q    Type
REMARK                         _______ _______ _______ _____ _____    ______ ____
ROOT
ATOM      1  C   UNL     1      -0.765  -2.237   4.744  0.00  0.00    +0.051 A 
ATOM      2  C   UNL     1      -0.355  -0.961   4.306  0.00  0.00    +0.090 A 
ATOM      3  C   UNL     1      -0.913  -0.424   3.123  0.00  0.00    +0.070 A 
ATOM      4  C   UNL     1      -1.855  -1.160   2.411  0.00  0.00    +0.049 A 
ATOM      5  C   UNL     1      -2.242  -2.402   2.865  0.00  0.00    +0.061 A 
ATOM      6  C   UNL     1      -1.697  -2.932   4.034  0.00  0.00    +0.061 A 
ATOM      7 CL   UNL     1      -2.201  -4.500   4.583  0.00  0.00    -0.082 Cl
ATOM      8 CL   UNL     1      -3.418  -3.317   1.972  0.00  0.00    -0.082 Cl
ATOM      9  N   UNL     1      -0.524   0.820   2.673  0.00  0.00    -0.324 N 
ATOM     10  C   UNL     1       0.397   1.515   3.398  0.00  0.00    +0.170 A 
ATOM     11  N   UNL     1       0.819   2.716   3.038  0.00  0.00    -0.173 NA
ATOM     12  C   UNL     1       1.718   3.382   3.758  0.00  0.00    +0.351 A 
ATOM     13  O   UNL     1       2.061   4.484   3.366  0.00  0.00    -0.245 OA
ATOM     14  N   UNL     1       2.270   2.916   4.887  0.00  0.00    -0.272 N 
ATOM     15  H   UNL     1       2.941   3.477   5.372  0.00  0.00    +0.174 HD
ATOM     16  C   UNL     1       1.938   1.702   5.383  0.00  0.00    +0.282 A 
ATOM     17  O   UNL     1       2.438   1.277   6.407  0.00  0.00    -0.265 OA
ATOM     18  C   UNL     1       0.942   0.913   4.625  0.00  0.00    +0.171 A 
ATOM     19  N   UNL     1       0.549  -0.274   5.015  0.00  0.00    -0.237 NA
ENDROOT
BRANCH   9  20
ATOM     20  C   UNL     1      -1.092   1.384   1.446  0.00  0.00    +0.105 C 
BRANCH  20  21
ATOM     21  C   UNL     1      -0.228   0.976   0.250  0.00  0.00    -0.057 C 
BRANCH  21  22
ATOM     22  N   UNL     1      -0.825   1.534  -0.981  0.00  0.00    +0.384 N 
ATOM     23  H   UNL     1      -1.818   1.274  -1.018  0.00  0.00    -0.082 HD
BRANCH  22  24
ATOM     24  C   UNL     1      -0.715   3.008  -0.973  0.00  0.00    -0.050 C 
BRANCH  24  25
ATOM     25  C   UNL     1      -1.654   3.577  -2.039  0.00  0.00    +0.137 C 
BRANCH  25  26
ATOM     26  O   UNL     1      -3.006   3.261  -1.700  0.00  0.00    -0.397 OA
ATOM     27  H   UNL     1      -3.657   3.591  -2.334  0.00  0.00    +0.209 HD
ENDBRANCH  25  26
ENDBRANCH  24  25
ENDBRANCH  22  24
BRANCH  22  28
ATOM     28  C   UNL     1      -0.140   0.983  -2.169  0.00  0.00    -0.050 C 
BRANCH  28  29
ATOM     29  C   UNL     1      -0.655  -0.436  -2.417  0.00  0.00    +0.137 C 
BRANCH  29  30
ATOM     30  O   UNL     1      -2.044  -0.388  -2.749  0.00  0.00    -0.397 OA
ATOM     31  H   UNL     1      -2.456  -1.257  -2.845  0.00  0.00    +0.209 HD
ENDBRANCH  29  30
ENDBRANCH  28  29
ENDBRANCH  22  28
ENDBRANCH  21  22
ENDBRANCH  20  21
ENDBRANCH   9  20
TORSDOF 9
