REMARK  Name = ZINC64309373
REMARK  7 active torsions:
REMARK  status: ('A' for Active; 'I' for Inactive)
REMARK    1  A    between atoms: C_1  and  C_2
REMARK    2  A    between atoms: C_2  and  C_3
REMARK    3  A    between atoms: C_3  and  C_4
REMARK    4  A    between atoms: N_6  and  C_7
REMARK    5  A    between atoms: C_8  and  C_15
REMARK    6  A    between atoms: C_21  and  C_23
REMARK    7  A    between atoms: C_23  and  C_24
REMARK                            x       y       z     vdW  Elec       q    Type
REMARK                         _______ _______ _______ _____ _____    ______ ____
ROOT
ATOM      1  C   UNL     1      -2.559  -4.120  -0.089  0.00  0.00    +0.064 A 
ATOM      2  C   UNL     1      -3.706  -4.806  -0.516  0.00  0.00    +0.061 A 
ATOM      3  C   UNL     1      -3.674  -6.197  -0.637  0.00  0.00    +0.035 A 
ATOM      4  C   UNL     1      -2.519  -6.888  -0.337  0.00  0.00    +0.043 A 
ATOM      5  C   UNL     1      -1.387  -6.208   0.084  0.00  0.00    +0.042 A 
ATOM      6  C   UNL     1      -1.402  -4.831   0.203  0.00  0.00    +0.064 A 
ATOM      7 CL   UNL     1       0.024  -3.990   0.724  0.00  0.00    -0.082 Cl
ATOM      8 CL   UNL     1      -2.482  -8.617  -0.489  0.00  0.00    -0.083 Cl
ENDROOT
BRANCH   2   9
ATOM      9  C   UNL     1      -4.939  -4.061  -0.834  0.00  0.00    +0.252 C 
ATOM     10  O   UNL     1      -4.934  -2.845  -0.826  0.00  0.00    -0.270 OA
ATOM     11  N   UNL     1      -6.071  -4.729  -1.135  0.00  0.00    -0.259 N 
ATOM     12  C   UNL     1      -7.232  -4.028  -1.435  0.00  0.00    +0.188 A 
ATOM     13  N   UNL     1      -7.450  -2.721  -1.490  0.00  0.00    -0.126 NA
ATOM     14  N   UNL     1      -8.581  -2.247  -1.782  0.00  0.00    -0.145 NA
ATOM     15  C   UNL     1      -9.617  -3.017  -2.051  0.00  0.00    +0.103 A 
ATOM     16  S   UNL     1      -8.863  -4.630  -1.866  0.00  0.00    -0.035 S 
ATOM     17  H   UNL     1      -6.074  -5.699  -1.142  0.00  0.00    +0.157 HD
BRANCH  15  18
ATOM     18  C   UNL     1     -11.031  -2.645  -2.416  0.00  0.00    +0.061 C 
ATOM     19  C   UNL     1     -11.149  -2.517  -3.936  0.00  0.00    +0.011 C 
ENDBRANCH  15  18
ENDBRANCH   2   9
BRANCH   1  22
ATOM     20  C   UNL     1      -1.633  -1.988  -0.574  0.00  0.00    +0.217 C 
ATOM     21  O   UNL     1      -0.710  -2.529  -1.145  0.00  0.00    -0.275 OA
ATOM     22  N   UNL     1      -2.578  -2.732   0.035  0.00  0.00    -0.284 N 
ATOM     23  H   UNL     1      -3.271  -2.302   0.559  0.00  0.00    +0.155 HD
BRANCH  20  24
ATOM     24  C   UNL     1      -1.724  -0.484  -0.545  0.00  0.00    +0.096 C 
BRANCH  24  26
ATOM     25  C   UNL     1      -0.629   1.640  -1.274  0.00  0.00    +0.004 C 
ATOM     26  C   UNL     1      -0.537   0.113  -1.303  0.00  0.00    +0.006 C 
ENDBRANCH  24  26
ENDBRANCH  20  24
ENDBRANCH   1  22
TORSDOF 5
