REMARK  Name = ZINC09014249
REMARK  6 active torsions:
REMARK  status: ('A' for Active; 'I' for Inactive)
REMARK    1  A    between atoms: C_4  and  N_7
REMARK    2  A    between atoms: C_8  and  O_30
REMARK    3  A    between atoms: C_12  and  C_16
REMARK    4  A    between atoms: C_16  and  S_17
REMARK    5  A    between atoms: S_17  and  C_18
REMARK    6  A    between atoms: N_22  and  C_23
REMARK                            x       y       z     vdW  Elec       q    Type
REMARK                         _______ _______ _______ _____ _____    ______ ____
ROOT
ATOM      1  N   UNL     1       3.623  -0.651  -0.037  0.00  0.00    -0.198 N 
ATOM      2  C   UNL     1       3.862  -1.821   0.582  0.00  0.00    +0.229 A 
ATOM      3  C   UNL     1       5.183  -2.167   0.329  0.00  0.00    +0.129 A 
ATOM      4  C   UNL     1       6.019  -3.248   0.687  0.00  0.00    +0.197 A 
ATOM      5  C   UNL     1       7.323  -3.238   0.227  0.00  0.00    +0.076 A 
ATOM      6  C   UNL     1       7.783  -2.191  -0.561  0.00  0.00    +0.058 A 
ATOM      7  N   UNL     1       7.025  -1.178  -0.905  0.00  0.00    -0.230 NA
ATOM      8  C   UNL     1       5.744  -1.095  -0.509  0.00  0.00    +0.189 A 
ATOM      9  N   UNL     1       4.774  -0.220  -0.703  0.00  0.00    -0.143 NA
ATOM     10  O   UNL     1       5.557  -4.263   1.458  0.00  0.00    -0.287 OA
ENDROOT
BRANCH   1  14
ATOM     11  C   UNL     1      -0.017   1.379   0.010  0.00  0.00    +0.000 A 
ATOM     12  C   UNL     1       1.170   2.089   0.002  0.00  0.00    +0.002 A 
ATOM     13  C   UNL     1       2.377   1.419  -0.013  0.00  0.00    +0.028 A 
ATOM     14  C   UNL     1       2.400   0.031  -0.021  0.00  0.00    +0.069 A 
ATOM     15  C   UNL     1       1.206  -0.680  -0.013  0.00  0.00    +0.028 A 
ATOM     16  C   UNL     1       0.002  -0.004   0.002  0.00  0.00    +0.002 A 
ENDBRANCH   1  14
BRANCH   2  17
ATOM     17  O   UNL     1       2.976  -2.534   1.318  0.00  0.00    -0.492 OA
ATOM     18  H   UNL     1       2.466  -3.176   0.806  0.00  0.00    +0.294 HD
ENDBRANCH   2  17
BRANCH   6  19
ATOM     19  C   UNL     1       9.211  -2.220  -1.040  0.00  0.00    +0.133 C 
BRANCH  19  20
ATOM     20  S   UNL     1       9.296  -3.075  -2.638  0.00  0.00    -0.078 S 
BRANCH  20  21
ATOM     21  C   UNL     1      11.007  -3.026  -3.057  0.00  0.00    +0.214 A 
ATOM     22  N   UNL     1      11.972  -2.488  -2.343  0.00  0.00    -0.101 NA
ATOM     23  N   UNL     1      13.102  -2.627  -2.937  0.00  0.00    -0.022 NA
ATOM     24  N   UNL     1      12.949  -3.252  -4.054  0.00  0.00    -0.038 NA
ATOM     25  N   UNL     1      11.579  -3.542  -4.174  0.00  0.00    -0.187 N 
BRANCH  25  26
ATOM     26  C   UNL     1      10.940  -4.216  -5.224  0.00  0.00    +0.070 A 
ATOM     27  C   UNL     1       9.851  -5.038  -4.963  0.00  0.00    +0.028 A 
ATOM     28  C   UNL     1       9.223  -5.701  -5.999  0.00  0.00    +0.002 A 
ATOM     29  C   UNL     1       9.678  -5.548  -7.296  0.00  0.00    +0.000 A 
ATOM     30  C   UNL     1      10.762  -4.731  -7.560  0.00  0.00    +0.002 A 
ATOM     31  C   UNL     1      11.391  -4.060  -6.528  0.00  0.00    +0.028 A 
ENDBRANCH  25  26
ENDBRANCH  20  21
ENDBRANCH  19  20
ENDBRANCH   6  19
TORSDOF 6
