REMARK  Name = ZINC57779177
REMARK  8 active torsions:
REMARK  status: ('A' for Active; 'I' for Inactive)
REMARK    1  A    between atoms: C_1  and  C_2
REMARK    2  A    between atoms: C_2  and  N_3
REMARK    3  A    between atoms: N_3  and  C_4
REMARK    4  A    between atoms: N_3  and  C_6
REMARK    5  A    between atoms: C_4  and  C_5
REMARK    6  A    between atoms: C_9  and  N_13
REMARK    7  A    between atoms: C_10  and  C_12
REMARK    8  A    between atoms: C_20  and  C_22
REMARK                            x       y       z     vdW  Elec       q    Type
REMARK                         _______ _______ _______ _____ _____    ______ ____
ROOT
ATOM      1  N   UNL     1      -1.302  -6.059   0.440  0.00  0.00    -0.285 N 
ATOM      2  C   UNL     1      -1.367  -6.835  -0.689  0.00  0.00    +0.200 A 
ATOM      3  N   UNL     1      -1.457  -8.187  -0.564  0.00  0.00    -0.295 N 
ATOM      4  H   UNL     1      -1.475  -8.591   0.317  0.00  0.00    +0.172 HD
ATOM      5  C   UNL     1      -1.522  -8.967  -1.664  0.00  0.00    +0.253 A 
ATOM      6  O   UNL     1      -1.603 -10.180  -1.561  0.00  0.00    -0.268 OA
ATOM      7  C   UNL     1      -1.495  -8.358  -2.928  0.00  0.00    +0.098 A 
ATOM      8  C   UNL     1      -1.402  -6.976  -2.999  0.00  0.00    +0.080 A 
ATOM      9  N   UNL     1      -1.346  -6.255  -1.871  0.00  0.00    -0.216 NA
ATOM     10  H   UNL     1      -1.405  -6.466   1.314  0.00  0.00    +0.155 HD
ENDROOT
BRANCH   1  14
ATOM     11  C   UNL     1      -0.666  -1.956   0.114  0.00  0.00    +0.014 A 
ATOM     12  C   UNL     1      -0.069  -2.820  -0.786  0.00  0.00    +0.023 A 
ATOM     13  C   UNL     1      -0.278  -4.181  -0.681  0.00  0.00    +0.025 A 
ATOM     14  C   UNL     1      -1.088  -4.681   0.330  0.00  0.00    +0.037 A 
ATOM     15  C   UNL     1      -1.686  -3.811   1.232  0.00  0.00    -0.028 A 
ATOM     16  C   UNL     1      -1.468  -2.451   1.125  0.00  0.00    +0.026 A 
ATOM     17  C   UNL     1      -2.566  -4.349   2.331  0.00  0.00    +0.046 C 
BRANCH  11  18
ATOM     18  N   UNL     1      -0.452  -0.578   0.005  0.00  0.00    -0.394 NA
ATOM     19  H   UNL     1      -0.954  -0.101   0.738  0.00  0.00    +0.126 HD
BRANCH  18  21
ATOM     20  C   UNL     1       1.206   1.219   0.135  0.00  0.00    +0.022 C 
ATOM     21  C   UNL     1       0.984  -0.294   0.129  0.00  0.00    +0.081 C 
ENDBRANCH  18  21
BRANCH  18  22
ATOM     22  C   UNL     1      -0.932  -0.110  -1.302  0.00  0.00    +0.081 C 
ATOM     23  C   UNL     1      -2.449  -0.292  -1.383  0.00  0.00    +0.022 C 
ENDBRANCH  18  22
ENDBRANCH  11  18
ENDBRANCH   1  14
BRANCH   8  24
ATOM     24  C   UNL     1      -1.371  -6.299  -4.317  0.00  0.00    +0.001 A 
ATOM     25  C   UNL     1      -1.440  -7.049  -5.490  0.00  0.00    +0.010 A 
ATOM     26  C   UNL     1      -1.411  -6.413  -6.715  0.00  0.00    +0.001 A 
ATOM     27  C   UNL     1      -1.313  -5.034  -6.779  0.00  0.00    +0.000 A 
ATOM     28  C   UNL     1      -1.244  -4.285  -5.618  0.00  0.00    +0.001 A 
ATOM     29  C   UNL     1      -1.277  -4.909  -4.388  0.00  0.00    +0.010 A 
ENDBRANCH   8  24
TORSDOF 5
