REMARK  Name = ZINC33515653
REMARK  13 active torsions:
REMARK  status: ('A' for Active; 'I' for Inactive)
REMARK    1  A    between atoms: C_1  and  C_2
REMARK    2  A    between atoms: C_2  and  N_3
REMARK    3  A    between atoms: N_3  and  C_4
REMARK    4  A    between atoms: N_3  and  C_6
REMARK    5  A    between atoms: C_4  and  C_5
REMARK    6  A    between atoms: C_6  and  C_7
REMARK    7  A    between atoms: C_7  and  C_8
REMARK    8  A    between atoms: C_8  and  N_9
REMARK    9  A    between atoms: C_10  and  C_29
REMARK   10  A    between atoms: C_12  and  C_17
REMARK   11  A    between atoms: C_17  and  C_19
REMARK   12  A    between atoms: C_23  and  C_28
REMARK   13  A    between atoms: C_33  and  N_35
REMARK                            x       y       z     vdW  Elec       q    Type
REMARK                         _______ _______ _______ _____ _____    ______ ____
ROOT
ATOM      1  N   UNL     1       0.479   2.211   0.291  0.00  0.00    -0.284 N 
ATOM      2  C   UNL     1       1.725   2.985   0.247  0.00  0.00    +0.145 C 
ATOM      3  C   UNL     1       2.849   1.976   0.295  0.00  0.00    +0.079 C 
ATOM      4  C   UNL     1       2.273   0.753   0.360  0.00  0.00    +0.249 C 
ATOM      5  C   UNL     1       0.804   0.907   0.357  0.00  0.00    +0.288 C 
ATOM      6  O   UNL     1       0.007  -0.009   0.406  0.00  0.00    -0.266 OA
ATOM      7  O   UNL     1       2.938  -0.424   0.418  0.00  0.00    -0.282 OA
ENDROOT
BRANCH   2   8
ATOM      8  C   UNL     1       1.805   3.906   1.437  0.00  0.00    -0.020 A 
ATOM      9  C   UNL     1       1.535   3.424   2.704  0.00  0.00    +0.006 A 
ATOM     10  C   UNL     1       1.612   4.268   3.796  0.00  0.00    +0.003 A 
ATOM     11  C   UNL     1       1.950   5.597   3.620  0.00  0.00    +0.033 A 
ATOM     12  C   UNL     1       2.216   6.080   2.353  0.00  0.00    +0.127 A 
ATOM     13  C   UNL     1       2.143   5.235   1.261  0.00  0.00    +0.038 A 
BRANCH  12  14
ATOM     14  N   UNL     1       2.578   7.503   2.164  0.00  0.00    +0.056 N 
ATOM     15  O   UNL     1       2.716   7.953   1.040  0.00  0.00    -0.126 OA
ATOM     16  O   UNL     1       2.738   8.225   3.132  0.00  0.00    -0.126 OA
ENDBRANCH  12  14
ENDBRANCH   2   8
BRANCH   3  17
ATOM     17  C   UNL     1       4.287   2.267   0.276  0.00  0.00    +0.230 C 
ATOM     18  O   UNL     1       4.971   2.019   1.252  0.00  0.00    -0.283 OA
BRANCH  17  19
ATOM     19  C   UNL     1       4.901   2.857  -0.921  0.00  0.00    +0.176 A 
ATOM     20  C   UNL     1       6.197   3.260  -1.019  0.00  0.00    +0.061 A 
ATOM     21  C   UNL     1       6.360   3.773  -2.377  0.00  0.00    +0.021 A 
ATOM     22  C   UNL     1       7.430   4.321  -3.090  0.00  0.00    +0.015 A 
ATOM     23  C   UNL     1       7.248   4.721  -4.383  0.00  0.00    -0.050 A 
ATOM     24  C   UNL     1       6.007   4.588  -4.993  0.00  0.00    +0.007 A 
ATOM     25  C   UNL     1       4.939   4.050  -4.308  0.00  0.00    +0.047 A 
ATOM     26  C   UNL     1       5.100   3.635  -2.991  0.00  0.00    +0.136 A 
ATOM     27  O   UNL     1       4.264   3.086  -2.088  0.00  0.00    -0.452 OA
ATOM     28  C   UNL     1       8.400   5.313  -5.154  0.00  0.00    +0.044 C 
ENDBRANCH  17  19
ENDBRANCH   3  17
BRANCH   1  29
ATOM     29  C   UNL     1      -0.879   2.760   0.262  0.00  0.00    +0.107 C 
BRANCH  29  30
ATOM     30  C   UNL     1      -1.353   3.024   1.693  0.00  0.00    +0.000 C 
BRANCH  30  31
ATOM     31  C   UNL     1      -2.771   3.598   1.663  0.00  0.00    -0.077 C 
BRANCH  31  32
ATOM     32  N   UNL     1      -3.226   3.851   3.036  0.00  0.00    +0.379 N 
ATOM     33  H   UNL     1      -2.458   4.456   3.541  0.00  0.00    -0.082 HD
BRANCH  32  35
ATOM     34  C   UNL     1      -4.191   6.070   2.658  0.00  0.00    -0.017 C 
ATOM     35  C   UNL     1      -4.479   4.617   3.042  0.00  0.00    -0.082 C 
ENDBRANCH  32  35
BRANCH  32  36
ATOM     36  C   UNL     1      -3.373   2.594   3.782  0.00  0.00    -0.082 C 
ATOM     37  C   UNL     1      -3.445   2.896   5.280  0.00  0.00    -0.017 C 
ENDBRANCH  32  36
ENDBRANCH  31  32
ENDBRANCH  30  31
ENDBRANCH  29  30
ENDBRANCH   1  29
TORSDOF 10
