REMARK  Name = ZINC15103784
REMARK  7 active torsions:
REMARK  status: ('A' for Active; 'I' for Inactive)
REMARK    1  A    between atoms: C_1  and  C_2
REMARK    2  A    between atoms: C_7  and  C_13
REMARK    3  A    between atoms: C_13  and  N_56
REMARK    4  A    between atoms: C_14  and  N_56
REMARK    5  A    between atoms: C_15  and  C_16
REMARK    6  A    between atoms: C_15  and  N_56
REMARK    7  A    between atoms: C_21  and  N_22
REMARK                            x       y       z     vdW  Elec       q    Type
REMARK                         _______ _______ _______ _____ _____    ______ ____
ROOT
ATOM      1  C   UNL     1       5.159   4.176  -0.875  0.00  0.00    -0.095 C 
ATOM      2  N   UNL     1       6.104   3.082  -1.180  0.00  0.00    +0.384 N 
ATOM      3  H   UNL     1       5.762   2.563  -1.997  0.00  0.00    -0.081 HD
ENDROOT
BRANCH   2   4
ATOM      4  C   UNL     1       6.196   2.158  -0.030  0.00  0.00    -0.022 C 
BRANCH   4  11
ATOM      5  C   UNL     1      -1.140  -0.431   1.059  0.00  0.00    +0.045 C 
ATOM      6  C   UNL     1       0.187   0.265   0.899  0.00  0.00    -0.034 A 
ATOM      7  C   UNL     1       0.281   1.648   1.106  0.00  0.00    +0.008 A 
ATOM      8  C   UNL     1       1.485   2.270   0.960  0.00  0.00    +0.047 A 
ATOM      9  C   UNL     1       2.615   1.513   0.603  0.00  0.00    +0.140 A 
ATOM     10  N   UNL     1       3.793   2.118   0.460  0.00  0.00    -0.236 NA
ATOM     11  C   UNL     1       4.880   1.441   0.124  0.00  0.00    +0.032 A 
ATOM     12  C   UNL     1       4.808   0.077  -0.085  0.00  0.00    +0.092 A 
ATOM     13  C   UNL     1       3.574  -0.566   0.065  0.00  0.00    +0.258 A 
ATOM     14  O   UNL     1       3.477  -1.770  -0.113  0.00  0.00    -0.267 OA
ATOM     15  N   UNL     1       2.492   0.165   0.407  0.00  0.00    -0.268 N 
ATOM     16  C   UNL     1       1.285  -0.446   0.556  0.00  0.00    +0.099 A 
ENDBRANCH   4  11
ENDBRANCH   2   4
BRANCH   2  17
ATOM     17  C   UNL     1       7.438   3.638  -1.489  0.00  0.00    -0.041 C 
BRANCH  17  18
ATOM     18  C   UNL     1       7.396   4.266  -2.858  0.00  0.00    -0.043 A 
ATOM     19  C   UNL     1       7.351   5.640  -2.987  0.00  0.00    +0.003 A 
ATOM     20  C   UNL     1       7.317   6.218  -4.243  0.00  0.00    +0.000 A 
ATOM     21  C   UNL     1       7.317   5.421  -5.374  0.00  0.00    +0.002 A 
ATOM     22  C   UNL     1       7.356   4.046  -5.252  0.00  0.00    +0.023 A 
ATOM     23  C   UNL     1       7.396   3.463  -3.991  0.00  0.00    +0.031 A 
BRANCH  23  24
ATOM     24  N   UNL     1       7.435   2.073  -3.864  0.00  0.00    -0.330 N 
ATOM     25  C   UNL     1       8.639   1.520  -4.497  0.00  0.00    +0.105 C 
ATOM     26  C   UNL     1       8.723   0.019  -4.213  0.00  0.00    +0.019 C 
ATOM     27  C   UNL     1       7.472  -0.671  -4.765  0.00  0.00    +0.003 C 
ATOM     28  C   UNL     1       6.230  -0.044  -4.126  0.00  0.00    +0.019 C 
ATOM     29  C   UNL     1       6.218   1.460  -4.412  0.00  0.00    +0.105 C 
ENDBRANCH  23  24
ENDBRANCH  17  18
ENDBRANCH   2  17
TORSDOF 5
