REMARK  Name = ZINC15082339
REMARK  4 active torsions:
REMARK  status: ('A' for Active; 'I' for Inactive)
REMARK    1  A    between atoms: C_6  and  C_7
REMARK    2  A    between atoms: C_11  and  C_12
REMARK    3  A    between atoms: C_14  and  C_20
REMARK    4  A    between atoms: C_23  and  C_26
REMARK                            x       y       z     vdW  Elec       q    Type
REMARK                         _______ _______ _______ _____ _____    ______ ____
ROOT
ATOM      1  C   UNL     1       2.249   0.701  -0.015  0.00  0.00    +0.025 A 
ATOM      2  C   UNL     1       1.329  -0.346  -0.009  0.00  0.00    +0.053 A 
ATOM      3  C   UNL     1       0.002  -0.004   0.002  0.00  0.00    +0.020 A 
ATOM      4  S   UNL     1      -0.021   1.714   0.011  0.00  0.00    -0.084 S 
ATOM      5  C   UNL     1       1.740   2.004  -0.004  0.00  0.00    +0.110 A 
ATOM      6  C   UNL     1      -1.140  -0.972  -0.001  0.00  0.00    +0.066 C 
ATOM      7  C   UNL     1      -0.672  -2.270   0.670  0.00  0.00    +0.109 C 
ATOM      8  C   UNL     1       0.709  -2.637   0.207  0.00  0.00    +0.218 C 
ATOM      9  O   UNL     1       0.965  -3.808   0.020  0.00  0.00    -0.275 OA
ATOM     10  N   UNL     1       1.675  -1.727  -0.009  0.00  0.00    -0.284 N 
ATOM     11  H   UNL     1       2.591  -2.007  -0.163  0.00  0.00    +0.155 HD
ENDROOT
BRANCH   1  17
ATOM     12  C   UNL     1       4.321  -0.178   1.056  0.00  0.00    +0.011 A 
ATOM     13  C   UNL     1       5.678  -0.420   1.033  0.00  0.00    +0.039 A 
ATOM     14  C   UNL     1       6.435  -0.036  -0.062  0.00  0.00    +0.123 A 
ATOM     15  C   UNL     1       5.831   0.588  -1.143  0.00  0.00    +0.039 A 
ATOM     16  C   UNL     1       4.473   0.829  -1.132  0.00  0.00    +0.011 A 
ATOM     17  C   UNL     1       3.707   0.444  -0.031  0.00  0.00    -0.015 A 
ATOM     18  F   UNL     1       7.765  -0.271  -0.078  0.00  0.00    -0.205 F 
ENDBRANCH   1  17
BRANCH   6  19
ATOM     19  C   UNL     1      -1.561  -1.256  -1.419  0.00  0.00    -0.039 A 
ATOM     20  C   UNL     1      -0.654  -1.802  -2.311  0.00  0.00    +0.005 A 
ATOM     21  C   UNL     1      -1.035  -2.070  -3.610  0.00  0.00    +0.015 A 
ATOM     22  C   UNL     1      -2.336  -1.779  -4.026  0.00  0.00    +0.063 A 
ATOM     23  C   UNL     1      -3.244  -1.224  -3.123  0.00  0.00    +0.015 A 
ATOM     24  C   UNL     1      -2.851  -0.966  -1.826  0.00  0.00    +0.005 A 
BRANCH  22  25
ATOM     25  C   UNL     1      -2.749  -2.058  -5.417  0.00  0.00    +0.387 C 
ATOM     26  O   UNL     1      -3.881  -1.804  -5.777  0.00  0.00    -0.241 OA
ATOM     27  O   UNL     1      -1.870  -2.594  -6.286  0.00  0.00    -0.241 OA
ENDBRANCH  22  25
ENDBRANCH   6  19
BRANCH   5  28
ATOM     28  C   UNL     1       2.442   3.236  -0.005  0.00  0.00    +0.394 C 
ATOM     29  O   UNL     1       3.658   3.243  -0.017  0.00  0.00    -0.240 OA
ATOM     30  O   UNL     1       1.760   4.400   0.007  0.00  0.00    -0.240 OA
ENDBRANCH   5  28
TORSDOF 4
