REMARK  Name = ZINC39373578
REMARK  5 active torsions:
REMARK  status: ('A' for Active; 'I' for Inactive)
REMARK    1  A    between atoms: C_1  and  C_2
REMARK    2  A    between atoms: C_5  and  C_24
REMARK    3  A    between atoms: C_6  and  N_8
REMARK    4  A    between atoms: C_9  and  C_15
REMARK    5  A    between atoms: C_15  and  C_16
REMARK                            x       y       z     vdW  Elec       q    Type
REMARK                         _______ _______ _______ _____ _____    ______ ____
ROOT
ATOM      1  N   UNL     1       0.050  -2.797   2.392  0.00  0.00    -0.264 N 
ATOM      2  C   UNL     1       1.241  -3.220   3.146  0.00  0.00    +0.170 C 
ATOM      3  N   UNL     1       0.695  -3.921   4.325  0.00  0.00    -0.220 NA
ATOM      4  N   UNL     1      -0.664  -3.871   4.202  0.00  0.00    -0.260 N 
ATOM      5  C   UNL     1      -1.022  -3.217   3.089  0.00  0.00    +0.152 C 
ATOM      6  S   UNL     1      -2.644  -2.952   2.609  0.00  0.00    -0.017 S 
ATOM      7  H   UNL     1       1.020  -4.876   4.361  0.00  0.00    +0.146 HD
ATOM      8  H   UNL     1      -1.287  -4.255   4.838  0.00  0.00    +0.168 HD
ENDROOT
BRANCH   1  14
ATOM      9  C   UNL     1      -0.018   1.503   0.010  0.00  0.00    +0.044 C 
ATOM     10  C   UNL     1       0.002  -0.004   0.002  0.00  0.00    -0.049 A 
ATOM     11  C   UNL     1       0.006  -0.688  -1.200  0.00  0.00    +0.004 A 
ATOM     12  C   UNL     1       0.024  -2.071  -1.212  0.00  0.00    +0.005 A 
ATOM     13  C   UNL     1       0.039  -2.773  -0.022  0.00  0.00    -0.029 A 
ATOM     14  C   UNL     1       0.035  -2.089   1.186  0.00  0.00    +0.040 A 
ATOM     15  C   UNL     1       0.023  -0.700   1.194  0.00  0.00    +0.027 A 
ATOM     16  C   UNL     1       0.059  -4.280  -0.036  0.00  0.00    +0.045 C 
ENDBRANCH   1  14
BRANCH   2  17
ATOM     17  C   UNL     1       2.063  -2.003   3.576  0.00  0.00    +0.093 C 
BRANCH  17  18
ATOM     18  C   UNL     1       3.336  -2.465   4.237  0.00  0.00    +0.029 A 
ATOM     19  N   UNL     1       3.344  -2.782   5.568  0.00  0.00    -0.311 N 
ATOM     20  C   UNL     1       4.475  -3.195   6.168  0.00  0.00    +0.327 A 
ATOM     21  O   UNL     1       4.460  -3.471   7.352  0.00  0.00    -0.247 OA
ATOM     22  N   UNL     1       5.624  -3.308   5.475  0.00  0.00    -0.275 N 
ATOM     23  C   UNL     1       5.658  -3.005   4.162  0.00  0.00    +0.254 A 
ATOM     24  O   UNL     1       6.697  -3.107   3.534  0.00  0.00    -0.268 OA
ATOM     25  C   UNL     1       4.473  -2.573   3.518  0.00  0.00    +0.091 A 
ATOM     26  H   UNL     1       6.430  -3.607   5.923  0.00  0.00    +0.173 HD
ATOM     27  H   UNL     1       2.526  -2.707   6.085  0.00  0.00    +0.170 HD
ENDBRANCH  17  18
ENDBRANCH   2  17
TORSDOF 3
