REMARK  Name = ZINC41551569
REMARK  9 active torsions:
REMARK  status: ('A' for Active; 'I' for Inactive)
REMARK    1  A    between atoms: C_1  and  C_2
REMARK    2  A    between atoms: C_3  and  C_28
REMARK    3  A    between atoms: C_5  and  N_10
REMARK    4  A    between atoms: C_6  and  C_7
REMARK    5  A    between atoms: C_11  and  C_13
REMARK    6  A    between atoms: C_22  and  O_24
REMARK    7  A    between atoms: O_24  and  C_25
REMARK    8  A    between atoms: C_25  and  C_26
REMARK    9  A    between atoms: C_25  and  C_27
REMARK                            x       y       z     vdW  Elec       q    Type
REMARK                         _______ _______ _______ _____ _____    ______ ____
ROOT
ATOM      1  N   UNL     1      -0.200  -4.821   0.455  0.00  0.00    -0.275 N 
ATOM      2  C   UNL     1      -0.149  -4.440   1.747  0.00  0.00    +0.250 C 
ATOM      3  O   UNL     1      -0.078  -3.261   2.030  0.00  0.00    -0.270 OA
ATOM      4  H   UNL     1      -0.178  -5.763   0.226  0.00  0.00    +0.156 HD
ENDROOT
BRANCH   2   5
ATOM      5  C   UNL     1      -0.179  -5.460   2.822  0.00  0.00    +0.054 A 
ATOM      6  C   UNL     1      -0.137  -6.795   2.528  0.00  0.00    +0.105 A 
ATOM      7  C   UNL     1      -0.168  -7.744   3.578  0.00  0.00    +0.338 A 
ATOM      8  O   UNL     1      -0.129  -8.930   3.306  0.00  0.00    -0.245 OA
ATOM      9  O   UNL     1      -0.237  -7.370   4.864  0.00  0.00    -0.422 OA
ATOM     10  C   UNL     1      -0.283  -6.070   5.224  0.00  0.00    +0.143 A 
ATOM     11  C   UNL     1      -0.251  -5.066   4.238  0.00  0.00    +0.030 A 
ATOM     12  C   UNL     1      -0.291  -3.719   4.608  0.00  0.00    +0.016 A 
ATOM     13  C   UNL     1      -0.357  -3.380   5.929  0.00  0.00    +0.046 A 
ATOM     14  C   UNL     1      -0.383  -4.368   6.911  0.00  0.00    +0.124 A 
ATOM     15  C   UNL     1      -0.355  -5.708   6.561  0.00  0.00    +0.092 A 
BRANCH  14  16
ATOM     16  O   UNL     1      -0.448  -4.016   8.220  0.00  0.00    -0.489 OA
BRANCH  16  17
ATOM     17  C   UNL     1      -0.572  -2.622   8.511  0.00  0.00    +0.167 C 
ATOM     18  C   UNL     1      -2.042  -2.209   8.410  0.00  0.00    +0.051 C 
ATOM     19  C   UNL     1      -0.062  -2.349   9.928  0.00  0.00    +0.051 C 
ENDBRANCH  16  17
ENDBRANCH  14  16
ENDBRANCH   2   5
BRANCH   1  24
ATOM     20  C   UNL     1      -0.498  -2.968  -4.246  0.00  0.00    +0.045 C 
ATOM     21  C   UNL     1      -0.426  -2.890  -2.743  0.00  0.00    -0.027 A 
ATOM     22  C   UNL     1      -0.434  -1.715  -2.087  0.00  0.00    -0.008 A 
ATOM     23  S   UNL     1      -0.333  -2.199  -0.378  0.00  0.00    -0.078 S 
ATOM     24  C   UNL     1      -0.283  -3.867  -0.545  0.00  0.00    +0.085 A 
ATOM     25  C   UNL     1      -0.350  -4.072  -1.916  0.00  0.00    +0.068 A 
ATOM     26  C   UNL     1      -0.511  -0.324  -2.662  0.00  0.00    +0.052 C 
BRANCH  25  27
ATOM     27  C   UNL     1      -0.339  -5.419  -2.496  0.00  0.00    +0.244 C 
ATOM     28  O   UNL     1       0.718  -5.947  -2.788  0.00  0.00    -0.270 OA
ATOM     29  N   UNL     1      -1.499  -6.073  -2.705  0.00  0.00    -0.325 N 
ATOM     30  H   UNL     1      -2.341  -5.652  -2.471  0.00  0.00    +0.145 HD
ATOM     31  H   UNL     1      -1.491  -6.964  -3.088  0.00  0.00    +0.145 HD
ENDBRANCH  25  27
ENDBRANCH   1  24
TORSDOF 5
