REMARK  Name = ZINC20037857
REMARK  16 active torsions:
REMARK  status: ('A' for Active; 'I' for Inactive)
REMARK    1  A    between atoms: C_1  and  C_2
REMARK    2  A    between atoms: C_2  and  C_3
REMARK    3  A    between atoms: C_3  and  N_4
REMARK    4  A    between atoms: N_4  and  C_5
REMARK    5  A    between atoms: N_4  and  C_8
REMARK    6  A    between atoms: C_5  and  C_6
REMARK    7  A    between atoms: C_6  and  C_7
REMARK    8  A    between atoms: C_8  and  C_9
REMARK    9  A    between atoms: C_10  and  C_20
REMARK   10  A    between atoms: N_22  and  N_23
REMARK   11  A    between atoms: C_24  and  C_25
REMARK   12  A    between atoms: C_28  and  N_31
REMARK   13  A    between atoms: N_31  and  C_32
REMARK   14  A    between atoms: N_31  and  C_34
REMARK   15  A    between atoms: C_32  and  C_33
REMARK   16  A    between atoms: C_34  and  C_35
REMARK                            x       y       z     vdW  Elec       q    Type
REMARK                         _______ _______ _______ _____ _____    ______ ____
ROOT
ATOM      1  C   UNL     1      -0.668   5.688  -0.281  0.00  0.00    +0.063 A 
ATOM      2  C   UNL     1       0.505   6.290  -0.639  0.00  0.00    +0.170 A 
ATOM      3  N   UNL     1       1.439   5.337  -0.806  0.00  0.00    -0.124 NA
ATOM      4  N   UNL     1       0.924   4.181  -0.569  0.00  0.00    -0.058 NA
ATOM      5  N   UNL     1      -0.424   4.359  -0.225  0.00  0.00    -0.194 N 
ATOM      6  C   UNL     1      -1.341   3.355   0.106  0.00  0.00    +0.240 A 
ATOM      7  C   UNL     1      -1.058   1.918   0.155  0.00  0.00    +0.206 A 
ATOM      8  N   UNL     1      -2.151   1.297   0.505  0.00  0.00    -0.032 NA
ATOM      9  O   UNL     1      -3.163   2.270   0.688  0.00  0.00    -0.239 OA
ATOM     10  N   UNL     1      -2.592   3.538   0.419  0.00  0.00    -0.027 NA
ATOM     11  N   UNL     1       0.167   1.319  -0.119  0.00  0.00    -0.337 N 
ATOM     12  H   UNL     1       0.272   0.226  -0.053  0.00  0.00    +0.144 HD
ATOM     13  H   UNL     1       1.030   1.939  -0.403  0.00  0.00    +0.144 HD
ENDROOT
BRANCH   2  14
ATOM     14  C   UNL     1       0.710   7.739  -0.819  0.00  0.00    +0.285 C 
ATOM     15  O   UNL     1      -0.213   8.511  -0.640  0.00  0.00    -0.267 OA
ATOM     16  N   UNL     1       1.920   8.209  -1.182  0.00  0.00    -0.202 N 
ATOM     17  H   UNL     1       2.754   7.511  -1.343  0.00  0.00    +0.178 HD
BRANCH  16  18
ATOM     18  N   UNL     1       2.115   9.585  -1.353  0.00  0.00    -0.187 NA
ATOM     19  C   UNL     1       3.280  10.038  -1.702  0.00  0.00    +0.138 C 
BRANCH  19  20
ATOM     20  C   UNL     1       3.485  11.486  -1.882  0.00  0.00    -0.005 A 
ATOM     21  C   UNL     1       2.424  12.374  -1.682  0.00  0.00    +0.011 A 
ATOM     22  C   UNL     1       2.621  13.727  -1.845  0.00  0.00    +0.024 A 
ATOM     23  C   UNL     1       3.870  14.210  -2.220  0.00  0.00    +0.030 A 
ATOM     24  C   UNL     1       4.927  13.329  -2.425  0.00  0.00    +0.024 A 
ATOM     25  C   UNL     1       4.739  11.975  -2.258  0.00  0.00    +0.011 A 
BRANCH  23  26
ATOM     26  N   UNL     1       4.064  15.581  -2.391  0.00  0.00    -0.330 N 
BRANCH  26  27
ATOM     27  C   UNL     1       2.952  16.510  -2.175  0.00  0.00    +0.102 C 
ATOM     28  C   UNL     1       2.936  16.954  -0.711  0.00  0.00    +0.024 C 
ENDBRANCH  26  27
BRANCH  26  29
ATOM     29  C   UNL     1       5.379  16.091  -2.786  0.00  0.00    +0.102 C 
ATOM     30  C   UNL     1       5.467  16.148  -4.312  0.00  0.00    +0.024 C 
ENDBRANCH  26  29
ENDBRANCH  23  26
ENDBRANCH  19  20
ENDBRANCH  16  18
ENDBRANCH   2  14
BRANCH   1  31
ATOM     31  C   UNL     1      -1.981   6.373   0.001  0.00  0.00    -0.020 C 
BRANCH  31  32
ATOM     32  N   UNL     1      -2.274   6.297   1.439  0.00  0.00    +0.383 N 
ATOM     33  H   UNL     1      -1.988   5.295   1.790  0.00  0.00    -0.081 HD
BRANCH  32  34
ATOM     34  C   UNL     1      -1.482   7.281   2.190  0.00  0.00    -0.079 C 
BRANCH  34  36
ATOM     35  C   UNL     1       0.726   7.713   3.275  0.00  0.00    +0.002 C 
ATOM     36  C   UNL     1      -0.058   6.755   2.376  0.00  0.00    -0.022 C 
ENDBRANCH  34  36
ENDBRANCH  32  34
BRANCH  32  37
ATOM     37  C   UNL     1      -3.710   6.472   1.693  0.00  0.00    -0.079 C 
BRANCH  37  38
ATOM     38  C   UNL     1      -4.036   6.008   3.114  0.00  0.00    -0.022 C 
ATOM     39  C   UNL     1      -5.549   6.069   3.336  0.00  0.00    +0.002 C 
ENDBRANCH  37  38
ENDBRANCH  32  37
ENDBRANCH  31  32
ENDBRANCH   1  31
TORSDOF 12
