REMARK  Name = ZINC36206646
REMARK  18 active torsions:
REMARK  status: ('A' for Active; 'I' for Inactive)
REMARK    1  A    between atoms: C_1  and  C_2
REMARK    2  A    between atoms: C_2  and  O_3
REMARK    3  A    between atoms: O_3  and  C_4
REMARK    4  A    between atoms: C_4  and  C_6
REMARK    5  A    between atoms: C_7  and  C_36
REMARK    6  A    between atoms: C_13  and  C_17
REMARK    7  A    between atoms: C_17  and  N_18
REMARK    8  A    between atoms: N_18  and  C_19
REMARK    9  A    between atoms: N_18  and  C_26
REMARK   10  A    between atoms: C_19  and  C_20
REMARK   11  A    between atoms: C_26  and  C_27
REMARK   12  A    between atoms: C_27  and  C_29
REMARK   13  A    between atoms: C_27  and  O_35
REMARK   14  A    between atoms: C_29  and  O_30
REMARK   15  A    between atoms: O_30  and  C_31
REMARK   16  A    between atoms: C_31  and  C_32
REMARK   17  A    between atoms: C_32  and  C_33
REMARK   18  A    between atoms: C_32  and  C_34
REMARK                            x       y       z     vdW  Elec       q    Type
REMARK                         _______ _______ _______ _____ _____    ______ ____
ROOT
ATOM      1  N   UNL     1       4.557  -2.999  -8.150  0.00  0.00    +0.389 N 
ATOM      2  H   UNL     1       5.118  -2.296  -7.692  0.00  0.00    -0.081 HD
ENDROOT
BRANCH   1   3
ATOM      3  C   UNL     1       4.582  -4.236  -7.358  0.00  0.00    -0.003 C 
BRANCH   3  11
ATOM      4  C   UNL     1       2.956  -1.511  -1.887  0.00  0.00    +0.102 A 
ATOM      5  C   UNL     1       3.101  -2.854  -2.083  0.00  0.00    -0.015 A 
ATOM      6  C   UNL     1       3.465  -3.338  -3.341  0.00  0.00    +0.076 A 
ATOM      7  C   UNL     1       3.678  -4.736  -3.780  0.00  0.00    +0.260 A 
ATOM      8  O   UNL     1       3.538  -5.663  -3.003  0.00  0.00    -0.267 OA
ATOM      9  N   UNL     1       4.030  -4.955  -5.062  0.00  0.00    -0.312 N 
ATOM     10  H   UNL     1       4.173  -5.865  -5.366  0.00  0.00    +0.170 HD
ATOM     11  C   UNL     1       4.187  -3.930  -5.936  0.00  0.00    +0.094 A 
ATOM     12  N   UNL     1       4.007  -2.687  -5.582  0.00  0.00    -0.229 NA
ATOM     13  C   UNL     1       3.659  -2.360  -4.344  0.00  0.00    +0.116 A 
ATOM     14  S   UNL     1       3.323  -0.836  -3.498  0.00  0.00    -0.062 S 
ATOM     15  C   UNL     1       2.869  -3.812  -0.943  0.00  0.00    +0.046 C 
BRANCH   4  16
ATOM     16  C   UNL     1       2.585  -0.800  -0.662  0.00  0.00    +0.346 C 
ATOM     17  O   UNL     1       2.366  -1.423   0.360  0.00  0.00    -0.244 OA
BRANCH  16  18
ATOM     18  O   UNL     1       2.486   0.545  -0.666  0.00  0.00    -0.461 OA
BRANCH  18  20
ATOM     19  C   UNL     1       2.059   2.688   0.367  0.00  0.00    +0.048 C 
ATOM     20  C   UNL     1       2.120   1.172   0.565  0.00  0.00    +0.229 C 
ENDBRANCH  18  20
ENDBRANCH  16  18
ENDBRANCH   4  16
ENDBRANCH   3  11
ENDBRANCH   1   3
BRANCH   1  21
ATOM     21  C   UNL     1       3.173  -2.521  -8.268  0.00  0.00    -0.042 C 
BRANCH  21  22
ATOM     22  C   UNL     1       2.299  -3.635  -8.784  0.00  0.00    -0.064 A 
ATOM     23  C   UNL     1       2.201  -3.862 -10.144  0.00  0.00    +0.002 A 
ATOM     24  C   UNL     1       1.399  -4.884 -10.617  0.00  0.00    +0.000 A 
ATOM     25  C   UNL     1       0.696  -5.678  -9.731  0.00  0.00    +0.000 A 
ATOM     26  C   UNL     1       0.795  -5.451  -8.371  0.00  0.00    +0.000 A 
ATOM     27  C   UNL     1       1.600  -4.432  -7.897  0.00  0.00    +0.002 A 
ENDBRANCH  21  22
ENDBRANCH   1  21
BRANCH   1  28
ATOM     28  C   UNL     1       5.100  -3.263  -9.489  0.00  0.00    -0.044 C 
BRANCH  28  29
ATOM     29  C   UNL     1       5.601  -1.955 -10.104  0.00  0.00    +0.124 C 
BRANCH  29  30
ATOM     30  O   UNL     1       4.514  -1.034 -10.215  0.00  0.00    -0.391 OA
ATOM     31  H   UNL     1       3.783  -1.353 -10.762  0.00  0.00    +0.210 HD
ENDBRANCH  29  30
BRANCH  29  32
ATOM     32  C   UNL     1       6.179  -2.233 -11.493  0.00  0.00    +0.189 C 
BRANCH  32  33
ATOM     33  O   UNL     1       6.752  -1.034 -12.019  0.00  0.00    -0.377 OA
BRANCH  33  34
ATOM     34  C   UNL     1       7.323  -1.185 -13.320  0.00  0.00    +0.163 C 
BRANCH  34  35
ATOM     35  C   UNL     1       7.903   0.154 -13.781  0.00  0.00    +0.009 C 
ATOM     36  C   UNL     1       8.623  -0.036 -15.117  0.00  0.00    +0.009 C 
ATOM     37  C   UNL     1       6.771   1.169 -13.951  0.00  0.00    +0.009 C 
ENDBRANCH  34  35
ENDBRANCH  33  34
ENDBRANCH  32  33
ENDBRANCH  29  32
ENDBRANCH  28  29
ENDBRANCH   1  28
TORSDOF 14
