REMARK  Name = ZINC16385998
REMARK  1 active torsions:
REMARK  status: ('A' for Active; 'I' for Inactive)
REMARK    1  A    between atoms: C_6  and  C_7
REMARK                            x       y       z     vdW  Elec       q    Type
REMARK                         _______ _______ _______ _____ _____    ______ ____
ROOT
ATOM      1  C   UNL     1       0.002  -0.004   0.002  0.00  0.00    +0.073 A 
ATOM      2  C   UNL     1       1.206  -0.720  -0.013  0.00  0.00    +0.029 A 
ATOM      3  C   UNL     1       2.396  -0.047  -0.021  0.00  0.00    +0.017 A 
ATOM      4  C   UNL     1       2.364   1.354  -0.013  0.00  0.00    +0.059 A 
ATOM      5  C   UNL     1       3.547   2.132  -0.021  0.00  0.00    +0.131 A 
ATOM      6  N   UNL     1       3.432   3.453  -0.013  0.00  0.00    -0.199 NA
ATOM      7  C   UNL     1       2.240   4.042   0.001  0.00  0.00    +0.216 A 
ATOM      8  N   UNL     1       1.107   3.364   0.008  0.00  0.00    -0.195 NA
ATOM      9  C   UNL     1       1.115   2.023   0.002  0.00  0.00    +0.167 A 
ATOM     10  N   UNL     1      -0.016   1.318   0.009  0.00  0.00    -0.227 NA
ATOM     11  N   UNL     1       2.184   5.422   0.008  0.00  0.00    -0.327 N 
ATOM     12  N   UNL     1       4.787   1.531  -0.036  0.00  0.00    -0.342 N 
ATOM     13  H   UNL     1       3.004   5.941   0.003  0.00  0.00    +0.145 HD
ATOM     14  H   UNL     1       1.325   5.873   0.018  0.00  0.00    +0.145 HD
ATOM     15  H   UNL     1       4.858   0.564  -0.041  0.00  0.00    +0.144 HD
ATOM     16  H   UNL     1       5.590   2.076  -0.041  0.00  0.00    +0.144 HD
ENDROOT
BRANCH   1  22
ATOM     17  C   UNL     1      -2.490  -0.051   0.025  0.00  0.00    +0.011 A 
ATOM     18  C   UNL     1      -3.683  -0.746   0.033  0.00  0.00    +0.022 A 
ATOM     19  C   UNL     1      -3.680  -2.130   0.025  0.00  0.00    +0.059 A 
ATOM     20  C   UNL     1      -2.482  -2.826   0.011  0.00  0.00    +0.060 A 
ATOM     21  C   UNL     1      -1.284  -2.140  -0.003  0.00  0.00    +0.031 A 
ATOM     22  C   UNL     1      -1.281  -0.746   0.010  0.00  0.00    +0.002 A 
ATOM     23 CL   UNL     1      -2.487  -4.562   0.001  0.00  0.00    -0.082 Cl
ATOM     24 CL   UNL     1      -5.184  -2.998   0.035  0.00  0.00    -0.082 Cl
ENDBRANCH   1  22
TORSDOF 1
