REMARK  Name = ZINC20228614
REMARK  11 active torsions:
REMARK  status: ('A' for Active; 'I' for Inactive)
REMARK    1  A    between atoms: C_1  and  O_2
REMARK    2  A    between atoms: O_2  and  C_3
REMARK    3  A    between atoms: C_5  and  C_20
REMARK    4  A    between atoms: C_8  and  O_9
REMARK    5  A    between atoms: O_9  and  C_10
REMARK    6  A    between atoms: C_10  and  C_11
REMARK    7  A    between atoms: C_11  and  O_12
REMARK    8  A    between atoms: O_12  and  C_13
REMARK    9  A    between atoms: N_21  and  N_22
REMARK   10  A    between atoms: N_22  and  C_23
REMARK   11  A    between atoms: C_23  and  N_25
REMARK                            x       y       z     vdW  Elec       q    Type
REMARK                         _______ _______ _______ _____ _____    ______ ____
ROOT
ATOM      1  C   UNL     1       0.717   7.770   2.587  0.00  0.00    +0.162 A 
ATOM      2  C   UNL     1       0.447   9.114   2.763  0.00  0.00    +0.059 A 
ATOM      3  C   UNL     1       0.779  10.028   1.760  0.00  0.00    -0.002 A 
ATOM      4  C   UNL     1       1.384   9.578   0.583  0.00  0.00    +0.013 A 
ATOM      5  C   UNL     1       1.657   8.237   0.417  0.00  0.00    +0.050 A 
ATOM      6  C   UNL     1       1.321   7.329   1.411  0.00  0.00    +0.162 A 
ENDROOT
BRANCH   1   8
ATOM      7  C   UNL     1      -0.222   7.400   4.740  0.00  0.00    +0.277 C 
ATOM      8  O   UNL     1       0.394   6.878   3.562  0.00  0.00    -0.491 OA
ENDBRANCH   1   8
BRANCH   3   9
ATOM      9  C   UNL     1       0.493  11.463   1.942  0.00  0.00    +0.138 C 
ATOM     10  N   UNL     1       0.803  12.310   1.009  0.00  0.00    -0.188 NA
BRANCH  10  11
ATOM     11  N   UNL     1       0.531  13.673   1.182  0.00  0.00    -0.219 N 
ATOM     12  H   UNL     1       0.055  14.026   2.109  0.00  0.00    +0.176 HD
BRANCH  11  13
ATOM     13  C   UNL     1       0.853  14.553   0.213  0.00  0.00    +0.147 C 
ATOM     14  S   UNL     1       0.521  16.219   0.424  0.00  0.00    -0.017 S 
BRANCH  13  15
ATOM     15  N   UNL     1       1.437  14.121  -0.923  0.00  0.00    -0.339 N 
ATOM     16  H   UNL     1       1.699  14.839  -1.714  0.00  0.00    +0.144 HD
ATOM     17  H   UNL     1       1.650  13.050  -1.059  0.00  0.00    +0.144 HD
ENDBRANCH  13  15
ENDBRANCH  11  13
ENDBRANCH  10  11
ENDBRANCH   3   9
BRANCH   6  18
ATOM     18  O   UNL     1       1.586   6.007   1.240  0.00  0.00    -0.485 OA
BRANCH  18  19
ATOM     19  C   UNL     1       2.206   5.623   0.011  0.00  0.00    +0.270 C 
BRANCH  19  20
ATOM     20  C   UNL     1       2.425   4.109   0.001  0.00  0.00    +0.270 C 
BRANCH  20  21
ATOM     21  O   UNL     1       1.159   3.445   0.009  0.00  0.00    -0.489 OA
BRANCH  21  22
ATOM     22  C   UNL     1       1.176   2.086   0.002  0.00  0.00    +0.121 A 
ATOM     23  C   UNL     1      -0.017   1.377   0.010  0.00  0.00    +0.047 A 
ATOM     24  C   UNL     1       0.002  -0.004   0.002  0.00  0.00    +0.019 A 
ATOM     25  C   UNL     1       1.209  -0.680  -0.013  0.00  0.00    +0.018 A 
ATOM     26  C   UNL     1       2.399   0.025  -0.020  0.00  0.00    +0.019 A 
ATOM     27  C   UNL     1       2.385   1.406  -0.013  0.00  0.00    +0.047 A 
ATOM     28 BR   UNL     1       1.232  -2.571  -0.022  0.00  0.00    -0.050 Br
ENDBRANCH  21  22
ENDBRANCH  20  21
ENDBRANCH  19  20
ENDBRANCH  18  19
ENDBRANCH   6  18
TORSDOF 10
