REMARK  Name = ZINC16507821
REMARK  12 active torsions:
REMARK  status: ('A' for Active; 'I' for Inactive)
REMARK    1  A    between atoms: C_1  and  C_2
REMARK    2  A    between atoms: C_2  and  C_3
REMARK    3  A    between atoms: C_3  and  N_4
REMARK    4  A    between atoms: N_4  and  C_5
REMARK    5  A    between atoms: C_5  and  C_6
REMARK    6  A    between atoms: C_16  and  C_18
REMARK    7  A    between atoms: C_21  and  O_24
REMARK    8  A    between atoms: O_24  and  C_25
REMARK    9  A    between atoms: C_26  and  C_28
REMARK   10  A    between atoms: C_28  and  C_30
REMARK   11  A    between atoms: C_28  and  C_32
REMARK   12  A    between atoms: C_30  and  C_31
REMARK                            x       y       z     vdW  Elec       q    Type
REMARK                         _______ _______ _______ _____ _____    ______ ____
ROOT
ATOM      1  C   UNL     1       4.042   2.806  -2.240  0.00  0.00    +0.234 C 
ATOM      2  O   UNL     1       2.980   3.107  -1.738  0.00  0.00    -0.274 OA
ATOM      3  N   UNL     1       4.905   2.017  -1.570  0.00  0.00    -0.289 N 
ATOM      4  C   UNL     1       6.230   1.715  -2.132  0.00  0.00    +0.114 C 
ATOM      5  C   UNL     1       7.296   2.331  -1.212  0.00  0.00    +0.062 C 
ATOM      6  C   UNL     1       6.915   2.063   0.207  0.00  0.00    -0.003 A 
ATOM      7  C   UNL     1       5.705   1.670   0.690  0.00  0.00    -0.012 A 
ATOM      8  C   UNL     1       5.609   1.493   2.069  0.00  0.00    +0.013 A 
ATOM      9  C   UNL     1       6.689   1.704   2.855  0.00  0.00    +0.046 A 
ATOM     10  S   UNL     1       7.927   2.180   1.659  0.00  0.00    -0.101 S 
ATOM     11  C   UNL     1       4.535   1.447  -0.267  0.00  0.00    +0.137 C 
ENDROOT
BRANCH  11  12
ATOM     12  C   UNL     1       3.304   2.137   0.261  0.00  0.00    -0.022 A 
ATOM     13  C   UNL     1       3.366   3.465   0.639  0.00  0.00    +0.009 A 
ATOM     14  C   UNL     1       2.240   4.099   1.129  0.00  0.00    +0.046 A 
ATOM     15  C   UNL     1       1.044   3.403   1.231  0.00  0.00    +0.120 A 
ATOM     16  C   UNL     1       0.985   2.071   0.851  0.00  0.00    +0.046 A 
ATOM     17  C   UNL     1       2.115   1.440   0.367  0.00  0.00    +0.009 A 
BRANCH  15  18
ATOM     18  O   UNL     1      -0.066   4.026   1.708  0.00  0.00    -0.495 OA
ATOM     19  C   UNL     1       0.069   5.399   2.080  0.00  0.00    +0.277 C 
ENDBRANCH  15  18
ENDBRANCH  11  12
BRANCH   1  20
ATOM     20  C   UNL     1       4.397   3.314  -3.614  0.00  0.00    +0.203 C 
BRANCH  20  21
ATOM     21  N   UNL     1       3.303   4.143  -4.125  0.00  0.00    -0.292 N 
ATOM     22  C   UNL     1       2.330   3.588  -4.875  0.00  0.00    +0.223 C 
ATOM     23  O   UNL     1       1.481   4.289  -5.383  0.00  0.00    -0.275 OA
BRANCH  21  24
ATOM     24  C   UNL     1       3.266   5.576  -3.822  0.00  0.00    +0.108 C 
BRANCH  24  26
ATOM     25  C   UNL     1       4.170   7.815  -4.462  0.00  0.00    +0.005 C 
ATOM     26  C   UNL     1       4.109   6.336  -4.848  0.00  0.00    +0.016 C 
ENDBRANCH  24  26
ENDBRANCH  21  24
BRANCH  22  27
ATOM     27  C   UNL     1       2.296   2.095  -5.081  0.00  0.00    +0.105 C 
BRANCH  27  28
ATOM     28  C   UNL     1       1.621   1.784  -6.392  0.00  0.00    -0.036 A 
ATOM     29  C   UNL     1       0.313   2.176  -6.606  0.00  0.00    +0.004 A 
ATOM     30  C   UNL     1      -0.305   1.894  -7.810  0.00  0.00    +0.000 A 
ATOM     31  C   UNL     1       0.383   1.213  -8.797  0.00  0.00    +0.000 A 
ATOM     32  C   UNL     1       1.689   0.818  -8.581  0.00  0.00    +0.000 A 
ATOM     33  C   UNL     1       2.309   1.103  -7.379  0.00  0.00    +0.004 A 
ENDBRANCH  27  28
BRANCH  27  34
ATOM     34  C   UNL     1       1.518   1.440  -3.938  0.00  0.00    +0.014 C 
ATOM     35  C   UNL     1       1.612  -0.082  -4.065  0.00  0.00    +0.005 C 
ENDBRANCH  27  34
ENDBRANCH  22  27
ENDBRANCH  20  21
ENDBRANCH   1  20
TORSDOF 9
