REMARK  Name = ZINC16684275
REMARK  10 active torsions:
REMARK  status: ('A' for Active; 'I' for Inactive)
REMARK    1  A    between atoms: C_1  and  C_2
REMARK    2  A    between atoms: C_2  and  O_3
REMARK    3  A    between atoms: O_3  and  C_4
REMARK    4  A    between atoms: C_7  and  N_23
REMARK    5  A    between atoms: C_9  and  S_10
REMARK    6  A    between atoms: S_10  and  N_13
REMARK    7  A    between atoms: N_13  and  C_14
REMARK    8  A    between atoms: C_15  and  C_22
REMARK    9  A    between atoms: C_17  and  C_21
REMARK   10  A    between atoms: C_19  and  C_20
REMARK                            x       y       z     vdW  Elec       q    Type
REMARK                         _______ _______ _______ _____ _____    ______ ____
ROOT
ATOM      1  C   UNL     1       3.769   2.038   2.017  0.00  0.00    +0.147 A 
ATOM      2  C   UNL     1       3.752   2.615   3.279  0.00  0.00    +0.049 A 
ATOM      3  C   UNL     1       4.711   2.269   4.210  0.00  0.00    +0.029 A 
ATOM      4  C   UNL     1       5.694   1.343   3.882  0.00  0.00    +0.061 A 
ATOM      5  C   UNL     1       5.707   0.763   2.621  0.00  0.00    +0.057 A 
ATOM      6  C   UNL     1       4.750   1.113   1.690  0.00  0.00    +0.152 A 
ENDROOT
BRANCH   4   7
ATOM      7  N   UNL     1       6.668   0.992   4.826  0.00  0.00    -0.144 N 
ATOM      8  C   UNL     1       7.892   0.513   4.556  0.00  0.00    +0.240 C 
ATOM      9  O   UNL     1       8.265   0.374   3.411  0.00  0.00    -0.274 OA
ATOM     10  C   UNL     1       8.790   0.159   5.703  0.00  0.00    +0.122 C 
ATOM     11  C   UNL     1       8.266   0.865   6.982  0.00  0.00    +0.198 C 
ATOM     12  S   UNL     1       6.508   1.089   6.490  0.00  0.00    +0.052 S 
ATOM     13  O   UNL     1       6.070   2.414   6.758  0.00  0.00    -0.155 OA
ATOM     14  O   UNL     1       5.728  -0.038   6.867  0.00  0.00    -0.155 OA
ENDBRANCH   4   7
BRANCH   6  15
ATOM     15  S   UNL     1       4.770   0.381   0.087  0.00  0.00    +0.076 S 
ATOM     16  O   UNL     1       5.852  -0.540   0.075  0.00  0.00    -0.150 OA
ATOM     17  O   UNL     1       4.665   1.446  -0.847  0.00  0.00    -0.150 OA
BRANCH  15  18
ATOM     18  N   UNL     1       3.385  -0.515  -0.059  0.00  0.00    -0.216 N 
ATOM     19  H   UNL     1       2.715  -0.269  -0.716  0.00  0.00    +0.174 HD
BRANCH  18  20
ATOM     20  C   UNL     1       3.180  -1.625   0.764  0.00  0.00    +0.054 A 
ATOM     21  C   UNL     1       2.183  -1.601   1.731  0.00  0.00    -0.028 A 
ATOM     22  C   UNL     1       1.984  -2.700   2.543  0.00  0.00    +0.008 A 
ATOM     23  C   UNL     1       2.776  -3.824   2.394  0.00  0.00    -0.050 A 
ATOM     24  C   UNL     1       3.769  -3.852   1.433  0.00  0.00    +0.008 A 
ATOM     25  C   UNL     1       3.974  -2.756   0.617  0.00  0.00    -0.028 A 
ATOM     26  C   UNL     1       5.056  -2.787  -0.430  0.00  0.00    +0.046 C 
ATOM     27  C   UNL     1       2.559  -5.019   3.286  0.00  0.00    +0.044 C 
ATOM     28  C   UNL     1       1.321  -0.376   1.895  0.00  0.00    +0.046 C 
ENDBRANCH  18  20
ENDBRANCH  15  18
ENDBRANCH   6  15
BRANCH   1  29
ATOM     29  O   UNL     1       2.823   2.378   1.102  0.00  0.00    -0.490 OA
BRANCH  29  31
ATOM     30  C   UNL     1       0.862   3.584   0.365  0.00  0.00    +0.048 C 
ATOM     31  C   UNL     1       1.911   3.417   1.466  0.00  0.00    +0.226 C 
ENDBRANCH  29  31
ENDBRANCH   1  29
TORSDOF 6
