REMARK  Name = ZINC16885394
REMARK  9 active torsions:
REMARK  status: ('A' for Active; 'I' for Inactive)
REMARK    1  A    between atoms: C_1  and  C_2
REMARK    2  A    between atoms: C_5  and  C_9
REMARK    3  A    between atoms: C_6  and  C_8
REMARK    4  A    between atoms: C_9  and  C_10
REMARK    5  A    between atoms: C_11  and  C_33
REMARK    6  A    between atoms: N_14  and  C_17
REMARK    7  A    between atoms: C_17  and  C_18
REMARK    8  A    between atoms: N_25  and  C_26
REMARK    9  A    between atoms: C_31  and  N_32
REMARK                            x       y       z     vdW  Elec       q    Type
REMARK                         _______ _______ _______ _____ _____    ______ ____
ROOT
ATOM      1  C   UNL     1       3.229   0.930   1.253  0.00  0.00    +0.042 A 
ATOM      2  C   UNL     1       3.106  -0.206   2.000  0.00  0.00    +0.050 A 
ATOM      3  N   UNL     1       3.661  -0.274   3.208  0.00  0.00    -0.220 NA
ATOM      4  C   UNL     1       4.336   0.741   3.711  0.00  0.00    +0.203 A 
ATOM      5  N   UNL     1       4.491   1.898   3.012  0.00  0.00    -0.276 N 
ATOM      6  C   UNL     1       3.952   2.015   1.780  0.00  0.00    +0.259 A 
ATOM      7  O   UNL     1       4.086   3.043   1.137  0.00  0.00    -0.267 OA
ATOM      8  N   UNL     1       4.891   0.627   4.958  0.00  0.00    -0.283 N 
ATOM      9  C   UNL     1       2.341  -1.385   1.456  0.00  0.00    +0.066 C 
ATOM     10  H   UNL     1       5.314   1.396   5.372  0.00  0.00    +0.155 HD
ENDROOT
BRANCH   8  11
ATOM     11  C   UNL     1       4.849  -0.599   5.635  0.00  0.00    +0.054 A 
ATOM     12  C   UNL     1       4.742  -1.783   4.922  0.00  0.00    +0.025 A 
ATOM     13  C   UNL     1       4.706  -2.992   5.591  0.00  0.00    +0.002 A 
ATOM     14  C   UNL     1       4.766  -3.024   6.973  0.00  0.00    +0.002 A 
ATOM     15  C   UNL     1       4.867  -1.848   7.692  0.00  0.00    +0.024 A 
ATOM     16  C   UNL     1       4.909  -0.631   7.028  0.00  0.00    +0.046 A 
BRANCH  16  17
ATOM     17  N   UNL     1       5.011   0.561   7.753  0.00  0.00    -0.357 N 
ATOM     18  H   UNL     1       5.040   1.411   7.288  0.00  0.00    +0.142 HD
ATOM     19  H   UNL     1       5.053   0.537   8.722  0.00  0.00    +0.142 HD
ENDBRANCH  16  17
ENDBRANCH   8  11
BRANCH   1  20
ATOM     20  C   UNL     1       2.605   1.018  -0.116  0.00  0.00    +0.077 C 
BRANCH  20  25
ATOM     21  C   UNL     1      -2.602   3.490   0.295  0.00  0.00    +0.044 C 
ATOM     22  C   UNL     1      -1.244   2.845   0.188  0.00  0.00    -0.050 A 
ATOM     23  C   UNL     1      -0.524   2.555   1.332  0.00  0.00    +0.003 A 
ATOM     24  C   UNL     1       0.724   1.969   1.234  0.00  0.00    +0.004 A 
ATOM     25  C   UNL     1       1.247   1.663  -0.009  0.00  0.00    -0.040 A 
ATOM     26  C   UNL     1       0.525   1.948  -1.152  0.00  0.00    -0.047 A 
ATOM     27  C   UNL     1      -0.721   2.539  -1.054  0.00  0.00    +0.007 A 
ATOM     28  C   UNL     1       1.096   1.614  -2.506  0.00  0.00    +0.044 C 
ENDBRANCH  20  25
ENDBRANCH   1  20
BRANCH   5  29
ATOM     29  C   UNL     1       5.246   3.012   3.593  0.00  0.00    +0.163 C 
BRANCH  29  30
ATOM     30  C   UNL     1       6.699   2.885   3.214  0.00  0.00    -0.027 A 
ATOM     31  C   UNL     1       7.566   2.182   4.029  0.00  0.00    +0.007 A 
ATOM     32  C   UNL     1       8.898   2.061   3.680  0.00  0.00    +0.020 A 
ATOM     33  C   UNL     1       9.365   2.653   2.520  0.00  0.00    +0.041 A 
ATOM     34  C   UNL     1       8.498   3.361   1.708  0.00  0.00    +0.020 A 
ATOM     35  C   UNL     1       7.165   3.477   2.055  0.00  0.00    +0.007 A 
ATOM     36 CL   UNL     1      11.039   2.506   2.084  0.00  0.00    -0.084 Cl
ENDBRANCH  29  30
ENDBRANCH   5  29
TORSDOF 6
