REMARK  Name = ZINC58315566
REMARK  11 active torsions:
REMARK  status: ('A' for Active; 'I' for Inactive)
REMARK    1  A    between atoms: C_1  and  C_2
REMARK    2  A    between atoms: C_4  and  C_27
REMARK    3  A    between atoms: C_5  and  C_26
REMARK    4  A    between atoms: C_6  and  S_9
REMARK    5  A    between atoms: C_7  and  C_8
REMARK    6  A    between atoms: S_9  and  N_12
REMARK    7  A    between atoms: N_12  and  C_13
REMARK    8  A    between atoms: C_13  and  C_15
REMARK    9  A    between atoms: C_13  and  C_16
REMARK   10  A    between atoms: C_20  and  S_22
REMARK   11  A    between atoms: S_22  and  N_25
REMARK                            x       y       z     vdW  Elec       q    Type
REMARK                         _______ _______ _______ _____ _____    ______ ____
ROOT
ATOM      1  N   UNL     1       0.904  -3.270   2.866  0.00  0.00    -0.183 NA
ATOM      2  H   UNL     1       1.275  -4.143   2.663  0.00  0.00    +0.149 HD
ENDROOT
BRANCH   1   3
ATOM      3  S   UNL     1      -0.737  -3.044   2.851  0.00  0.00    +0.059 S 
ATOM      4  O   UNL     1      -1.074  -2.439   4.092  0.00  0.00    -0.153 OA
ATOM      5  O   UNL     1      -1.312  -4.269   2.419  0.00  0.00    -0.153 OA
BRANCH   3  11
ATOM      6  C   UNL     1      -1.360  -1.706  -2.163  0.00  0.00    +0.044 C 
ATOM      7  C   UNL     1      -1.360  -1.297  -0.713  0.00  0.00    -0.045 A 
ATOM      8  C   UNL     1      -1.635   0.013  -0.365  0.00  0.00    +0.007 A 
ATOM      9  C   UNL     1      -1.635   0.389   0.965  0.00  0.00    -0.045 A 
ATOM     10  C   UNL     1      -1.361  -0.545   1.947  0.00  0.00    -0.021 A 
ATOM     11  C   UNL     1      -1.087  -1.854   1.599  0.00  0.00    +0.112 A 
ATOM     12  C   UNL     1      -1.091  -2.231   0.269  0.00  0.00    -0.021 A 
ATOM     13  C   UNL     1      -0.797  -3.660  -0.110  0.00  0.00    +0.046 C 
ATOM     14  C   UNL     1      -1.360  -0.135   3.397  0.00  0.00    +0.046 C 
ATOM     15  C   UNL     1      -1.934   1.816   1.345  0.00  0.00    +0.044 C 
ENDBRANCH   3  11
ENDBRANCH   1   3
BRANCH   1  16
ATOM     16  C   UNL     1       1.795  -2.152   3.185  0.00  0.00    +0.103 C 
ATOM     17  C   UNL     1       2.570  -1.743   1.931  0.00  0.00    +0.031 C 
BRANCH  16  18
ATOM     18  C   UNL     1       2.764  -2.573   4.260  0.00  0.00    -0.027 A 
ATOM     19  C   UNL     1       3.324  -3.837   4.229  0.00  0.00    +0.005 A 
ATOM     20  C   UNL     1       4.213  -4.223   5.215  0.00  0.00    +0.002 A 
ATOM     21  C   UNL     1       4.543  -3.345   6.231  0.00  0.00    +0.028 A 
ATOM     22  C   UNL     1       3.983  -2.081   6.261  0.00  0.00    +0.105 A 
ATOM     23  C   UNL     1       3.098  -1.694   5.273  0.00  0.00    +0.033 A 
BRANCH  22  24
ATOM     24  S   UNL     1       4.403  -0.963   7.556  0.00  0.00    +0.056 S 
ATOM     25  O   UNL     1       3.328  -0.039   7.659  0.00  0.00    -0.153 OA
ATOM     26  O   UNL     1       4.834  -1.756   8.654  0.00  0.00    -0.153 OA
BRANCH  24  27
ATOM     27  N   UNL     1       5.722  -0.100   7.049  0.00  0.00    -0.204 NA
ATOM     28  H   UNL     1       6.106  -0.269   6.175  0.00  0.00    +0.144 HD
ATOM     29  H   UNL     1       6.111   0.576   7.627  0.00  0.00    +0.144 HD
ENDBRANCH  24  27
ENDBRANCH  22  24
ENDBRANCH  16  18
ENDBRANCH   1  16
TORSDOF 6
