REMARK  Name = ZINC25245074
REMARK  10 active torsions:
REMARK  status: ('A' for Active; 'I' for Inactive)
REMARK    1  A    between atoms: C_1  and  C_2
REMARK    2  A    between atoms: C_5  and  S_8
REMARK    3  A    between atoms: S_8  and  N_11
REMARK    4  A    between atoms: N_11  and  C_12
REMARK    5  A    between atoms: N_11  and  C_13
REMARK    6  A    between atoms: C_16  and  O_19
REMARK    7  A    between atoms: O_19  and  C_20
REMARK    8  A    between atoms: C_20  and  C_21
REMARK    9  A    between atoms: N_23  and  C_24
REMARK   10  A    between atoms: C_24  and  C_25
REMARK                            x       y       z     vdW  Elec       q    Type
REMARK                         _______ _______ _______ _____ _____    ______ ____
ROOT
ATOM      1  C   UNL     1      -7.794   0.290   0.320  0.00  0.00    +0.051 A 
ATOM      2  C   UNL     1      -7.813   1.675   0.430  0.00  0.00    +0.028 A 
ATOM      3  C   UNL     1      -6.641   2.364   0.671  0.00  0.00    +0.047 A 
ATOM      4  C   UNL     1      -5.444   1.674   0.803  0.00  0.00    +0.121 A 
ATOM      5  C   UNL     1      -5.424   0.292   0.688  0.00  0.00    +0.047 A 
ATOM      6  C   UNL     1      -6.596  -0.399   0.452  0.00  0.00    +0.028 A 
ENDROOT
BRANCH   1   7
ATOM      7  N   UNL     1      -8.981  -0.409   0.075  0.00  0.00    -0.206 N 
ATOM      8  C   UNL     1     -10.265   0.161   0.490  0.00  0.00    +0.157 C 
BRANCH   7   9
ATOM      9  S   UNL     1      -8.934  -1.880  -0.684  0.00  0.00    +0.074 S 
ATOM     10  O   UNL     1     -10.196  -2.053  -1.313  0.00  0.00    -0.150 OA
ATOM     11  O   UNL     1      -7.710  -1.925  -1.406  0.00  0.00    -0.150 OA
BRANCH   9  16
ATOM     12  C   UNL     1      -8.558  -6.096   3.615  0.00  0.00    +0.044 C 
ATOM     13  C   UNL     1      -8.652  -5.043   2.541  0.00  0.00    -0.050 A 
ATOM     14  C   UNL     1      -9.883  -4.521   2.191  0.00  0.00    +0.005 A 
ATOM     15  C   UNL     1      -9.969  -3.555   1.206  0.00  0.00    +0.029 A 
ATOM     16  C   UNL     1      -8.824  -3.111   0.571  0.00  0.00    +0.109 A 
ATOM     17  C   UNL     1      -7.594  -3.637   0.918  0.00  0.00    +0.029 A 
ATOM     18  C   UNL     1      -7.507  -4.600   1.906  0.00  0.00    +0.005 A 
ENDBRANCH   9  16
ENDBRANCH   7   9
ENDBRANCH   1   7
BRANCH   4  19
ATOM     19  O   UNL     1      -4.291   2.354   1.041  0.00  0.00    -0.483 OA
BRANCH  19  20
ATOM     20  C   UNL     1      -3.096   1.580   1.166  0.00  0.00    +0.324 C 
BRANCH  20  21
ATOM     21  C   UNL     1      -1.928   2.497   1.425  0.00  0.00    +0.251 C 
ATOM     22  O   UNL     1      -2.102   3.695   1.495  0.00  0.00    -0.272 OA
ATOM     23  N   UNL     1      -0.691   1.985   1.578  0.00  0.00    -0.305 N 
ATOM     24  H   UNL     1      -0.534   0.898   1.519  0.00  0.00    +0.149 HD
BRANCH  23  25
ATOM     25  C   UNL     1       0.445   2.877   1.824  0.00  0.00    +0.180 C 
BRANCH  25  26
ATOM     26  C   UNL     1       1.706   2.061   1.951  0.00  0.00    +0.151 A 
ATOM     27  N   UNL     1       2.514   1.726   0.980  0.00  0.00    -0.133 NA
ATOM     28  N   UNL     1       3.493   1.033   1.450  0.00  0.00    -0.134 NA
ATOM     29  C   UNL     1       3.354   0.901   2.738  0.00  0.00    +0.133 A 
ATOM     30  N   UNL     1       2.217   1.545   3.090  0.00  0.00    -0.314 N 
ATOM     31  C   UNL     1       1.652   1.643   4.437  0.00  0.00    +0.125 C 
ATOM     32  C   UNL     1       2.781   1.562   5.468  0.00  0.00    +0.022 C 
ATOM     33  C   UNL     1       3.032   0.102   5.844  0.00  0.00    +0.002 C 
ATOM     34  C   UNL     1       3.464  -0.699   4.620  0.00  0.00    +0.008 C 
ATOM     35  C   UNL     1       4.283   0.187   3.685  0.00  0.00    +0.076 C 
ENDBRANCH  25  26
ENDBRANCH  23  25
ENDBRANCH  20  21
ENDBRANCH  19  20
ENDBRANCH   4  19
TORSDOF 8
