REMARK  Name = ZINC20203443
REMARK  7 active torsions:
REMARK  status: ('A' for Active; 'I' for Inactive)
REMARK    1  A    between atoms: C_1  and  S_2
REMARK    2  A    between atoms: S_2  and  N_5
REMARK    3  A    between atoms: N_5  and  C_6
REMARK    4  A    between atoms: C_6  and  C_7
REMARK    5  A    between atoms: C_7  and  N_8
REMARK    6  A    between atoms: N_8  and  C_9
REMARK    7  A    between atoms: C_17  and  O_19
REMARK                            x       y       z     vdW  Elec       q    Type
REMARK                         _______ _______ _______ _____ _____    ______ ____
ROOT
ATOM      1  N   UNL     1       1.398   3.459   0.007  0.00  0.00    +0.387 N 
ATOM      2  H   UNL     1       0.866   3.824  -0.884  0.00  0.00    -0.085 HD
ATOM      3  H   UNL     1       0.883   3.814   0.912  0.00  0.00    -0.085 HD
ENDROOT
BRANCH   1   4
ATOM      4  C   UNL     1       2.762   4.004  -0.003  0.00  0.00    +0.001 C 
ATOM      5  C   UNL     1       3.266   4.260   1.437  0.00  0.00    +0.218 C 
ATOM      6  O   UNL     1       2.909   5.634   1.661  0.00  0.00    -0.493 OA
ATOM      7  C   UNL     1       2.880   6.291   0.469  0.00  0.00    +0.126 A 
ATOM      8  C   UNL     1       2.783   5.401  -0.594  0.00  0.00    -0.016 A 
ATOM      9  C   UNL     1       2.726   5.855  -1.893  0.00  0.00    +0.009 A 
ATOM     10  C   UNL     1       2.772   7.212  -2.155  0.00  0.00    +0.046 A 
ATOM     11  C   UNL     1       2.875   8.112  -1.105  0.00  0.00    +0.120 A 
ATOM     12  C   UNL     1       2.929   7.656   0.202  0.00  0.00    +0.091 A 
BRANCH  11  13
ATOM     13  O   UNL     1       2.923   9.446  -1.358  0.00  0.00    -0.507 OA
ATOM     14  H   UNL     1       3.004  10.162  -0.527  0.00  0.00    +0.292 HD
ENDBRANCH  11  13
ENDBRANCH   1   4
BRANCH   1  15
ATOM     15  C   UNL     1       1.418   1.990  -0.001  0.00  0.00    -0.065 C 
BRANCH  15  16
ATOM     16  C   UNL     1      -0.018   1.461   0.010  0.00  0.00    +0.086 C 
BRANCH  16  17
ATOM     17  N   UNL     1       0.002  -0.004   0.002  0.00  0.00    -0.197 NA
ATOM     18  H   UNL     1       0.869  -0.540  -0.412  0.00  0.00    +0.148 HD
BRANCH  17  20
ATOM     19  C   UNL     1      -2.545  -0.453  -0.939  0.00  0.00    +0.214 C 
ATOM     20  S   UNL     1      -1.368  -0.853   0.382  0.00  0.00    +0.026 S 
ATOM     21  O   UNL     1      -0.984  -2.218   0.298  0.00  0.00    -0.158 OA
ATOM     22  O   UNL     1      -1.808  -0.298   1.614  0.00  0.00    -0.158 OA
ENDBRANCH  17  20
ENDBRANCH  16  17
ENDBRANCH  15  16
ENDBRANCH   1  15
TORSDOF 6
