REMARK  Name = ZINC15000719
REMARK  10 active torsions:
REMARK  status: ('A' for Active; 'I' for Inactive)
REMARK    1  A    between atoms: C_1  and  N_69
REMARK    2  A    between atoms: C_2  and  N_69
REMARK    3  A    between atoms: C_3  and  C_4
REMARK    4  A    between atoms: C_3  and  N_69
REMARK    5  A    between atoms: C_4  and  C_5
REMARK    6  A    between atoms: C_5  and  N_6
REMARK    7  A    between atoms: C_9  and  C_13
REMARK    8  A    between atoms: C_9  and  C_21
REMARK    9  A    between atoms: C_13  and  C_14
REMARK   10  A    between atoms: C_27  and  C_29
REMARK                            x       y       z     vdW  Elec       q    Type
REMARK                         _______ _______ _______ _____ _____    ______ ____
ROOT
ATOM      1  N   UNL     1      -2.620  -2.988  -1.614  0.00  0.00    -0.224 N 
ATOM      2  C   UNL     1      -2.733  -3.825  -2.663  0.00  0.00    +0.247 C 
ATOM      3  O   UNL     1      -2.968  -3.529  -3.815  0.00  0.00    -0.273 OA
ATOM      4  C   UNL     1      -2.506  -5.216  -2.104  0.00  0.00    +0.119 C 
ATOM      5  N   UNL     1      -2.276  -4.978  -0.668  0.00  0.00    -0.284 N 
ATOM      6  C   UNL     1      -2.362  -3.649  -0.480  0.00  0.00    +0.309 C 
ATOM      7  O   UNL     1      -2.221  -3.109   0.600  0.00  0.00    -0.252 OA
ATOM      8  H   UNL     1      -2.097  -5.649   0.009  0.00  0.00    +0.151 HD
ENDROOT
BRANCH   4   9
ATOM      9  C   UNL     1      -3.745  -6.089  -2.313  0.00  0.00    +0.025 C 
ATOM     10  C   UNL     1      -3.898  -6.409  -3.802  0.00  0.00    +0.025 C 
ATOM     11  C   UNL     1      -5.119  -7.311  -4.003  0.00  0.00    +0.108 C 
ATOM     12  N   UNL     1      -6.291  -6.661  -3.402  0.00  0.00    -0.298 N 
ATOM     13  C   UNL     1      -6.219  -6.231  -1.999  0.00  0.00    +0.108 C 
ATOM     14  C   UNL     1      -4.985  -5.340  -1.820  0.00  0.00    +0.025 C 
ATOM     15  C   UNL     1      -7.413  -6.465  -4.124  0.00  0.00    +0.242 C 
ATOM     16  O   UNL     1      -7.413  -6.686  -5.319  0.00  0.00    -0.270 OA
BRANCH  15  17
ATOM     17  C   UNL     1      -8.636  -5.981  -3.465  0.00  0.00    +0.011 C 
ATOM     18  C   UNL     1      -9.736  -5.604  -4.102  0.00  0.00    -0.018 C 
ATOM     19  C   UNL     1     -10.800  -5.169  -3.122  0.00  0.00    +0.028 C 
ATOM     20  C   UNL     1     -10.335  -5.725  -1.757  0.00  0.00    +0.009 C 
ATOM     21  C   UNL     1      -8.808  -5.842  -1.970  0.00  0.00    +0.040 C 
ENDBRANCH  15  17
ENDBRANCH   4   9
BRANCH   1  22
ATOM     22  C   UNL     1      -2.767  -1.533  -1.702  0.00  0.00    +0.116 C 
BRANCH  22  23
ATOM     23  C   UNL     1      -1.402  -0.898  -1.982  0.00  0.00    +0.001 C 
BRANCH  23  24
ATOM     24  C   UNL     1      -1.556   0.621  -2.075  0.00  0.00    -0.078 C 
BRANCH  24  27
ATOM     25  C   UNL     1      -0.385   2.655  -2.672  0.00  0.00    -0.097 C 
ATOM     26  C   UNL     1       0.665   1.039  -1.206  0.00  0.00    -0.097 C 
ATOM     27  N   UNL     1      -0.235   1.217  -2.365  0.00  0.00    +0.376 N 
ATOM     28  H   UNL     1       0.173   0.743  -3.180  0.00  0.00    -0.083 HD
ENDBRANCH  24  27
ENDBRANCH  23  24
ENDBRANCH  22  23
ENDBRANCH   1  22
BRANCH   4  29
ATOM     29  C   UNL     1      -1.278  -5.864  -2.746  0.00  0.00    +0.070 C 
BRANCH  29  30
ATOM     30  C   UNL     1      -0.060  -5.021  -2.465  0.00  0.00    -0.042 A 
ATOM     31  C   UNL     1       0.696  -5.255  -1.332  0.00  0.00    +0.004 A 
ATOM     32  C   UNL     1       1.813  -4.483  -1.073  0.00  0.00    +0.003 A 
ATOM     33  C   UNL     1       2.175  -3.476  -1.948  0.00  0.00    +0.038 A 
ATOM     34  C   UNL     1       1.419  -3.241  -3.084  0.00  0.00    +0.124 A 
ATOM     35  C   UNL     1       0.303  -4.019  -3.344  0.00  0.00    +0.042 A 
ATOM     36  F   UNL     1       1.772  -2.257  -3.940  0.00  0.00    -0.205 F 
ENDBRANCH  29  30
ENDBRANCH   4  29
TORSDOF 8
