REMARK  Name = ZINC24715835
REMARK  9 active torsions:
REMARK  status: ('A' for Active; 'I' for Inactive)
REMARK    1  A    between atoms: C_1  and  C_2
REMARK    2  A    between atoms: C_2  and  O_3
REMARK    3  A    between atoms: O_3  and  C_4
REMARK    4  A    between atoms: C_4  and  C_6
REMARK    5  A    between atoms: C_6  and  C_8
REMARK    6  A    between atoms: C_6  and  N_15
REMARK    7  A    between atoms: C_21  and  C_23
REMARK    8  A    between atoms: C_24  and  C_25
REMARK    9  A    between atoms: C_28  and  C_30
REMARK                            x       y       z     vdW  Elec       q    Type
REMARK                         _______ _______ _______ _____ _____    ______ ____
ROOT
ATOM      1  N   UNL     1       1.634   0.192  -0.038  0.00  0.00    +0.393 N 
ATOM      2  C   UNL     1       1.113   0.559  -1.362  0.00  0.00    -0.058 C 
ATOM      3  C   UNL     1       1.670   1.929  -1.765  0.00  0.00    +0.089 C 
ATOM      4  N   UNL     1       3.137   1.884  -1.665  0.00  0.00    -0.302 N 
ATOM      5  C   UNL     1       3.734   1.395  -0.413  0.00  0.00    +0.089 C 
ATOM      6  C   UNL     1       3.096   0.046  -0.063  0.00  0.00    -0.058 C 
ATOM      7  C   UNL     1       3.913   2.281  -2.693  0.00  0.00    +0.239 C 
ATOM      8  O   UNL     1       5.123   2.323  -2.562  0.00  0.00    -0.271 OA
ATOM      9  H   UNL     1       1.391   1.010   0.655  0.00  0.00    -0.080 HD
ENDROOT
BRANCH   7  10
ATOM     10  C   UNL     1       3.321   2.649  -3.925  0.00  0.00    +0.071 C 
ATOM     11  C   UNL     1       4.105   2.942  -4.993  0.00  0.00    +0.051 C 
BRANCH  11  12
ATOM     12  C   UNL     1       3.513   3.310  -6.226  0.00  0.00    +0.128 A 
ATOM     13  C   UNL     1       4.186   3.636  -7.385  0.00  0.00    +0.049 A 
ATOM     14  C   UNL     1       3.206   3.928  -8.346  0.00  0.00    +0.045 A 
ATOM     15  C   UNL     1       2.003   3.780  -7.748  0.00  0.00    +0.103 A 
ATOM     16  O   UNL     1       2.190   3.409  -6.474  0.00  0.00    -0.461 OA
ATOM     17  C   UNL     1       0.666   3.999  -8.408  0.00  0.00    +0.086 C 
ENDBRANCH  11  12
ENDBRANCH   7  10
BRANCH   1  18
ATOM     18  C   UNL     1       0.992  -1.031   0.460  0.00  0.00    +0.073 C 
BRANCH  18  19
ATOM     19  C   UNL     1      -0.503  -0.838   0.488  0.00  0.00    -0.050 A 
ATOM     20  C   UNL     1      -1.041   0.306   1.047  0.00  0.00    +0.004 A 
ATOM     21  C   UNL     1      -2.412   0.486   1.068  0.00  0.00    +0.020 A 
ATOM     22  C   UNL     1      -3.245  -0.484   0.539  0.00  0.00    +0.041 A 
ATOM     23  C   UNL     1      -2.705  -1.631  -0.016  0.00  0.00    +0.020 A 
ATOM     24  C   UNL     1      -1.335  -1.807  -0.041  0.00  0.00    +0.004 A 
ATOM     25 CL   UNL     1      -4.966  -0.262   0.571  0.00  0.00    -0.084 Cl
ENDBRANCH  18  19
BRANCH  18  26
ATOM     26  C   UNL     1       1.486  -1.327   1.853  0.00  0.00    +0.298 C 
ATOM     27  O   UNL     1       1.938  -0.438   2.535  0.00  0.00    -0.252 OA
BRANCH  26  28
ATOM     28  O   UNL     1       1.424  -2.578   2.335  0.00  0.00    -0.466 OA
BRANCH  28  30
ATOM     29  C   UNL     1       1.767  -4.265   4.057  0.00  0.00    +0.048 C 
ATOM     30  C   UNL     1       1.918  -2.789   3.684  0.00  0.00    +0.228 C 
ENDBRANCH  28  30
ENDBRANCH  26  28
ENDBRANCH  18  26
ENDBRANCH   1  18
TORSDOF 7
