REMARK  Name = ZINC06426008
REMARK  8 active torsions:
REMARK  status: ('A' for Active; 'I' for Inactive)
REMARK    1  A    between atoms: C_1  and  C_2
REMARK    2  A    between atoms: C_5  and  N_9
REMARK    3  A    between atoms: C_6  and  C_8
REMARK    4  A    between atoms: N_9  and  C_10
REMARK    5  A    between atoms: N_20  and  C_23
REMARK    6  A    between atoms: C_23  and  C_24
REMARK    7  A    between atoms: C_27  and  O_30
REMARK    8  A    between atoms: O_30  and  C_31
REMARK                            x       y       z     vdW  Elec       q    Type
REMARK                         _______ _______ _______ _____ _____    ______ ____
ROOT
ATOM      1  C   UNL     1       2.089   1.824   3.574  0.00  0.00    +0.085 C 
ATOM      2  C   UNL     1       3.430   1.516   3.628  0.00  0.00    +0.059 C 
ATOM      3  C   UNL     1       4.192   1.654   4.887  0.00  0.00    +0.000 A 
ATOM      4  C   UNL     1       3.593   2.097   6.061  0.00  0.00    +0.009 A 
ATOM      5  C   UNL     1       4.348   2.210   7.210  0.00  0.00    +0.001 A 
ATOM      6  C   UNL     1       5.696   1.884   7.203  0.00  0.00    +0.001 A 
ATOM      7  C   UNL     1       6.308   1.443   6.049  0.00  0.00    +0.013 A 
ATOM      8  C   UNL     1       5.563   1.323   4.876  0.00  0.00    +0.045 A 
ATOM      9  C   UNL     1       6.176   0.856   3.625  0.00  0.00    +0.254 C 
ATOM     10  O   UNL     1       7.358   0.569   3.609  0.00  0.00    -0.270 OA
ATOM     11  N   UNL     1       5.453   0.742   2.499  0.00  0.00    -0.230 N 
ATOM     12  C   UNL     1       4.144   1.034   2.440  0.00  0.00    +0.255 C 
ATOM     13  O   UNL     1       3.544   0.904   1.389  0.00  0.00    -0.269 OA
ENDROOT
BRANCH   1  14
ATOM     14  N   UNL     1       1.377   1.563   2.446  0.00  0.00    -0.320 N 
ATOM     15  H   UNL     1       1.888   1.185   1.548  0.00  0.00    +0.152 HD
BRANCH  14  20
ATOM     16  C   UNL     1      -4.229   2.422   2.368  0.00  0.00    +0.044 C 
ATOM     17  C   UNL     1      -2.739   2.193   2.389  0.00  0.00    -0.050 A 
ATOM     18  C   UNL     1      -2.016   2.459   3.537  0.00  0.00    +0.005 A 
ATOM     19  C   UNL     1      -0.651   2.252   3.560  0.00  0.00    +0.024 A 
ATOM     20  C   UNL     1      -0.004   1.775   2.426  0.00  0.00    +0.034 A 
ATOM     21  C   UNL     1      -0.733   1.509   1.274  0.00  0.00    -0.029 A 
ATOM     22  C   UNL     1      -2.098   1.724   1.257  0.00  0.00    +0.008 A 
ATOM     23  C   UNL     1      -0.036   0.991   0.043  0.00  0.00    +0.045 C 
ENDBRANCH  14  20
ENDBRANCH   1  14
BRANCH  11  24
ATOM     24  C   UNL     1       6.122   0.272   1.283  0.00  0.00    +0.152 C 
BRANCH  24  25
ATOM     25  C   UNL     1       6.029  -1.231   1.208  0.00  0.00    -0.029 A 
ATOM     26  C   UNL     1       7.021  -2.012   1.772  0.00  0.00    +0.009 A 
ATOM     27  C   UNL     1       6.936  -3.389   1.709  0.00  0.00    +0.046 A 
ATOM     28  C   UNL     1       5.860  -3.989   1.071  0.00  0.00    +0.120 A 
ATOM     29  C   UNL     1       4.869  -3.203   0.501  0.00  0.00    +0.046 A 
ATOM     30  C   UNL     1       4.956  -1.825   0.571  0.00  0.00    +0.009 A 
BRANCH  28  31
ATOM     31  O   UNL     1       5.778  -5.343   1.002  0.00  0.00    -0.495 OA
ATOM     32  C   UNL     1       6.834  -6.089   1.611  0.00  0.00    +0.277 C 
ENDBRANCH  28  31
ENDBRANCH  24  25
ENDBRANCH  11  24
TORSDOF 5
