REMARK  Name = ZINC32536274
REMARK  9 active torsions:
REMARK  status: ('A' for Active; 'I' for Inactive)
REMARK    1  A    between atoms: C_1  and  C_2
REMARK    2  A    between atoms: C_2  and  O_3
REMARK    3  A    between atoms: O_3  and  C_4
REMARK    4  A    between atoms: C_4  and  C_6
REMARK    5  A    between atoms: C_6  and  N_7
REMARK    6  A    between atoms: N_7  and  C_8
REMARK    7  A    between atoms: C_15  and  S_17
REMARK    8  A    between atoms: S_17  and  C_20
REMARK    9  A    between atoms: C_22  and  C_27
REMARK                            x       y       z     vdW  Elec       q    Type
REMARK                         _______ _______ _______ _____ _____    ______ ____
ROOT
ATOM      1  C   UNL     1      -1.395  -1.981   0.005  0.00  0.00    -0.023 C 
ATOM      2  C   UNL     1      -1.230  -2.485   1.452  0.00  0.00    +0.152 C 
ATOM      3  S   UNL     1      -2.681  -3.596   1.679  0.00  0.00    -0.031 S 
ATOM      4  O   UNL     1      -2.242  -4.831   2.227  0.00  0.00    -0.174 OA
ATOM      5  O   UNL     1      -3.726  -2.875   2.317  0.00  0.00    -0.174 OA
ATOM      6  C   UNL     1      -3.109  -3.839  -0.101  0.00  0.00    +0.190 C 
ATOM      7  C   UNL     1      -2.691  -2.451  -0.656  0.00  0.00    +0.144 C 
ENDROOT
BRANCH   1   8
ATOM      8  N   UNL     1      -1.376  -0.512   0.012  0.00  0.00    +0.390 N 
ATOM      9  H   UNL     1      -1.891  -0.158   0.917  0.00  0.00    -0.085 HD
ATOM     10  H   UNL     1      -1.908  -0.148  -0.879  0.00  0.00    -0.085 HD
BRANCH   8  11
ATOM     11  C   UNL     1       0.002  -0.004   0.002  0.00  0.00    +0.041 C 
BRANCH  11  12
ATOM     12  C   UNL     1      -0.018   1.503   0.010  0.00  0.00    +0.290 C 
ATOM     13  O   UNL     1      -1.073   2.093   0.018  0.00  0.00    -0.253 OA
BRANCH  12  14
ATOM     14  O   UNL     1       1.135   2.190   0.003  0.00  0.00    -0.466 OA
BRANCH  14  16
ATOM     15  C   UNL     1       2.445   4.242   0.002  0.00  0.00    +0.048 C 
ATOM     16  C   UNL     1       1.039   3.639   0.012  0.00  0.00    +0.228 C 
ENDBRANCH  14  16
ENDBRANCH  12  14
ENDBRANCH  11  12
ENDBRANCH   8  11
ENDBRANCH   1   8
BRANCH   7  17
ATOM     17  S   UNL     1      -2.438  -2.578  -2.448  0.00  0.00    +0.002 S 
ATOM     18  O   UNL     1      -2.249  -1.286  -3.009  0.00  0.00    -0.169 OA
ATOM     19  O   UNL     1      -1.535  -3.634  -2.741  0.00  0.00    -0.169 OA
BRANCH  17  20
ATOM     20  C   UNL     1      -3.988  -3.122  -3.086  0.00  0.00    +0.124 A 
ATOM     21  C   UNL     1      -4.719  -2.299  -3.922  0.00  0.00    +0.033 A 
ATOM     22  C   UNL     1      -5.935  -2.725  -4.423  0.00  0.00    -0.048 A 
ATOM     23  C   UNL     1      -6.421  -3.976  -4.089  0.00  0.00    +0.006 A 
ATOM     24  C   UNL     1      -5.692  -4.801  -3.253  0.00  0.00    +0.040 A 
ATOM     25  C   UNL     1      -4.472  -4.376  -2.755  0.00  0.00    +0.148 A 
ATOM     26  F   UNL     1      -3.756  -5.184  -1.942  0.00  0.00    -0.203 F 
ATOM     27  C   UNL     1      -6.731  -1.827  -5.334  0.00  0.00    +0.044 C 
ENDBRANCH  17  20
ENDBRANCH   7  17
TORSDOF 7
