REMARK  Name = ZINC39914608
REMARK  12 active torsions:
REMARK  status: ('A' for Active; 'I' for Inactive)
REMARK    1  A    between atoms: C_1  and  C_2
REMARK    2  A    between atoms: C_4  and  O_38
REMARK    3  A    between atoms: C_5  and  C_9
REMARK    4  A    between atoms: N_17  and  C_32
REMARK    5  A    between atoms: C_18  and  C_20
REMARK    6  A    between atoms: C_22  and  O_30
REMARK    7  A    between atoms: C_23  and  O_28
REMARK    8  A    between atoms: C_24  and  O_26
REMARK    9  A    between atoms: O_26  and  C_27
REMARK   10  A    between atoms: O_28  and  C_29
REMARK   11  A    between atoms: O_30  and  C_31
REMARK   12  A    between atoms: C_32  and  C_33
REMARK                            x       y       z     vdW  Elec       q    Type
REMARK                         _______ _______ _______ _____ _____    ______ ____
ROOT
ATOM      1  C   UNL     1      -0.271  -4.176   0.171  0.00  0.00    +0.102 A 
ATOM      2  C   UNL     1       0.020  -5.082   1.196  0.00  0.00    +0.035 A 
ATOM      3  C   UNL     1       0.132  -6.317   0.587  0.00  0.00    +0.126 A 
ATOM      4  N   UNL     1      -0.091  -6.106  -0.744  0.00  0.00    -0.272 N 
ATOM      5  H   UNL     1      -0.078  -6.794  -1.427  0.00  0.00    +0.189 HD
ATOM      6  N   UNL     1      -0.327  -4.860  -0.955  0.00  0.00    -0.173 NA
ATOM      7  C   UNL     1       0.437  -7.318   1.615  0.00  0.00    +0.266 C 
ATOM      8  O   UNL     1       0.597  -8.505   1.403  0.00  0.00    -0.268 OA
ATOM      9  N   UNL     1       0.515  -6.738   2.826  0.00  0.00    -0.278 N 
ATOM     10  C   UNL     1       0.263  -5.300   2.665  0.00  0.00    +0.142 C 
ENDROOT
BRANCH   1  15
ATOM     11  C   UNL     1      -1.098   1.497   0.765  0.00  0.00    +0.045 C 
ATOM     12  C   UNL     1      -0.881   0.014   0.607  0.00  0.00    -0.029 A 
ATOM     13  C   UNL     1      -0.848  -0.546  -0.656  0.00  0.00    +0.050 A 
ATOM     14  C   UNL     1      -0.650  -1.909  -0.807  0.00  0.00    +0.126 A 
ATOM     15  C   UNL     1      -0.483  -2.715   0.323  0.00  0.00    +0.045 A 
ATOM     16  C   UNL     1      -0.517  -2.142   1.591  0.00  0.00    +0.034 A 
ATOM     17  C   UNL     1      -0.711  -0.781   1.728  0.00  0.00    +0.045 A 
ATOM     18 CL   UNL     1      -0.747  -0.066   3.309  0.00  0.00    -0.083 Cl
BRANCH  14  19
ATOM     19  O   UNL     1      -0.618  -2.460  -2.048  0.00  0.00    -0.506 OA
ATOM     20  H   UNL     1       0.264  -2.489  -2.443  0.00  0.00    +0.292 HD
ENDBRANCH  14  19
ENDBRANCH   1  15
BRANCH  10  21
ATOM     21  C   UNL     1       1.464  -4.508   3.115  0.00  0.00    -0.015 A 
ATOM     22  C   UNL     1       2.711  -4.791   2.592  0.00  0.00    +0.055 A 
ATOM     23  C   UNL     1       3.819  -4.065   3.004  0.00  0.00    +0.165 A 
ATOM     24  C   UNL     1       3.672  -3.052   3.944  0.00  0.00    +0.204 A 
ATOM     25  C   UNL     1       2.416  -2.771   4.467  0.00  0.00    +0.165 A 
ATOM     26  C   UNL     1       1.313  -3.498   4.046  0.00  0.00    +0.055 A 
BRANCH  25  27
ATOM     27  O   UNL     1       2.268  -1.780   5.388  0.00  0.00    -0.491 OA
ATOM     28  C   UNL     1       0.975  -1.630   5.976  0.00  0.00    +0.277 C 
ENDBRANCH  25  27
BRANCH  24  29
ATOM     29  O   UNL     1       4.757  -2.337   4.351  0.00  0.00    -0.488 OA
ATOM     30  C   UNL     1       5.072  -1.157   3.610  0.00  0.00    +0.277 C 
ENDBRANCH  24  29
BRANCH  23  31
ATOM     31  O   UNL     1       5.046  -4.344   2.489  0.00  0.00    -0.491 OA
ATOM     32  C   UNL     1       5.141  -5.468   1.611  0.00  0.00    +0.277 C 
ENDBRANCH  23  31
ENDBRANCH  10  21
BRANCH   9  33
ATOM     33  C   UNL     1       0.803  -7.422   4.089  0.00  0.00    +0.183 C 
BRANCH  33  34
ATOM     34  C   UNL     1       2.292  -7.436   4.325  0.00  0.00    +0.122 A 
ATOM     35  C   UNL     1       2.977  -6.559   5.079  0.00  0.00    +0.046 A 
ATOM     36  C   UNL     1       4.336  -6.944   5.023  0.00  0.00    +0.041 A 
ATOM     37  C   UNL     1       4.400  -8.034   4.237  0.00  0.00    +0.195 A 
ATOM     38  O   UNL     1       3.158  -8.331   3.822  0.00  0.00    -0.466 OA
ENDBRANCH  33  34
ENDBRANCH   9  33
TORSDOF 8
