REMARK  Name = ZINC28308550
REMARK  8 active torsions:
REMARK  status: ('A' for Active; 'I' for Inactive)
REMARK    1  A    between atoms: C_1  and  C_2
REMARK    2  A    between atoms: C_5  and  N_8
REMARK    3  A    between atoms: N_10  and  C_29
REMARK    4  A    between atoms: C_13  and  C_16
REMARK    5  A    between atoms: C_16  and  C_17
REMARK    6  A    between atoms: N_19  and  C_20
REMARK    7  A    between atoms: C_23  and  C_26
REMARK    8  A    between atoms: C_26  and  C_28
REMARK                            x       y       z     vdW  Elec       q    Type
REMARK                         _______ _______ _______ _____ _____    ______ ____
ROOT
ATOM      1  N   UNL     1       1.055   3.800   0.344  0.00  0.00    -0.226 NA
ATOM      2  C   UNL     1       1.114   3.446  -0.918  0.00  0.00    +0.164 C 
ATOM      3  N   UNL     1       0.503   2.372  -1.531  0.00  0.00    -0.247 N 
ATOM      4  C   UNL     1       0.647   2.118  -2.821  0.00  0.00    +0.235 C 
ATOM      5  O   UNL     1       0.111   1.169  -3.354  0.00  0.00    -0.274 OA
ATOM      6  C   UNL     1       1.522   3.091  -3.594  0.00  0.00    +0.149 C 
ATOM      7  S   UNL     1       2.006   4.241  -2.247  0.00  0.00    -0.077 S 
ENDROOT
BRANCH   1  12
ATOM      8  C   UNL     1       3.855   8.366   2.129  0.00  0.00    +0.044 C 
ATOM      9  C   UNL     1       3.108   7.147   1.653  0.00  0.00    -0.050 A 
ATOM     10  C   UNL     1       1.800   6.941   2.055  0.00  0.00    +0.005 A 
ATOM     11  C   UNL     1       1.110   5.827   1.623  0.00  0.00    +0.028 A 
ATOM     12  C   UNL     1       1.734   4.908   0.777  0.00  0.00    +0.067 A 
ATOM     13  C   UNL     1       3.056   5.120   0.379  0.00  0.00    +0.028 A 
ATOM     14  C   UNL     1       3.732   6.240   0.815  0.00  0.00    +0.005 A 
ENDBRANCH   1  12
BRANCH   3  15
ATOM     15  C   UNL     1      -0.330   1.478  -0.723  0.00  0.00    +0.083 C 
ATOM     16  C   UNL     1       0.450   1.007   0.516  0.00  0.00    +0.023 C 
ATOM     17  C   UNL     1      -0.339   1.496   1.748  0.00  0.00    +0.002 C 
ATOM     18  C   UNL     1      -1.160   2.699   1.219  0.00  0.00    +0.002 C 
ATOM     19  C   UNL     1      -1.568   2.238  -0.202  0.00  0.00    +0.023 C 
ENDBRANCH   3  15
BRANCH   6  20
ATOM     20  C   UNL     1       2.743   2.384  -4.185  0.00  0.00    +0.120 C 
BRANCH  20  21
ATOM     21  C   UNL     1       3.616   3.392  -4.886  0.00  0.00    +0.219 C 
ATOM     22  O   UNL     1       3.294   4.561  -4.911  0.00  0.00    -0.275 OA
ATOM     23  N   UNL     1       4.756   2.995  -5.486  0.00  0.00    -0.285 N 
ATOM     24  H   UNL     1       5.011   1.926  -5.530  0.00  0.00    +0.155 HD
BRANCH  23  25
ATOM     25  C   UNL     1       5.612   3.939  -6.051  0.00  0.00    +0.033 A 
ATOM     26  C   UNL     1       6.990   3.752  -5.987  0.00  0.00    +0.024 A 
ATOM     27  C   UNL     1       7.835   4.676  -6.545  0.00  0.00    +0.013 A 
ATOM     28  C   UNL     1       7.311   5.813  -7.172  0.00  0.00    +0.017 A 
ATOM     29  C   UNL     1       5.924   5.999  -7.230  0.00  0.00    +0.013 A 
ATOM     30  C   UNL     1       5.086   5.068  -6.673  0.00  0.00    +0.024 A 
BRANCH  28  31
ATOM     31  C   UNL     1       8.212   6.808  -7.768  0.00  0.00    +0.160 C 
ATOM     32  O   UNL     1       7.756   7.792  -8.310  0.00  0.00    -0.292 OA
ATOM     33  C   UNL     1       9.704   6.605  -7.704  0.00  0.00    +0.091 C 
ENDBRANCH  28  31
ENDBRANCH  23  25
ENDBRANCH  20  21
ENDBRANCH   6  20
TORSDOF 6
