REMARK  Name = ZINC58952712
REMARK  8 active torsions:
REMARK  status: ('A' for Active; 'I' for Inactive)
REMARK    1  A    between atoms: C_1  and  C_2
REMARK    2  A    between atoms: C_4  and  S_10
REMARK    3  A    between atoms: C_5  and  C_9
REMARK    4  A    between atoms: S_10  and  C_11
REMARK    5  A    between atoms: C_11  and  C_12
REMARK    6  A    between atoms: N_14  and  C_15
REMARK    7  A    between atoms: C_15  and  C_16
REMARK    8  A    between atoms: C_26  and  C_29
REMARK                            x       y       z     vdW  Elec       q    Type
REMARK                         _______ _______ _______ _____ _____    ______ ____
ROOT
ATOM      1  C   UNL     1       0.037  -2.266  -5.364  0.00  0.00    +0.223 C 
ATOM      2  O   UNL     1       0.035  -3.473  -5.485  0.00  0.00    -0.275 OA
ATOM      3  N   UNL     1       0.015  -1.480  -6.459  0.00  0.00    -0.310 N 
ATOM      4  H   UNL     1       0.016  -0.514  -6.362  0.00  0.00    +0.149 HD
ENDROOT
BRANCH   1   5
ATOM      5  C   UNL     1       0.062  -1.647  -3.991  0.00  0.00    +0.170 C 
BRANCH   5   6
ATOM      6  S   UNL     1       0.087  -2.957  -2.737  0.00  0.00    -0.116 S 
BRANCH   6  10
ATOM      7  C   UNL     1       0.135   1.496   0.010  0.00  0.00    +0.045 C 
ATOM      8  C   UNL     1       0.135  -0.011   0.001  0.00  0.00    -0.035 A 
ATOM      9  C   UNL     1       0.114  -0.693  -1.200  0.00  0.00    +0.019 A 
ATOM     10  C   UNL     1       0.115  -2.083  -1.207  0.00  0.00    +0.012 A 
ATOM     11  C   UNL     1       0.137  -2.781  -0.006  0.00  0.00    -0.036 A 
ATOM     12  C   UNL     1       0.159  -2.093   1.191  0.00  0.00    +0.020 A 
ATOM     13  C   UNL     1       0.163  -0.709   1.195  0.00  0.00    +0.021 A 
ATOM     14 BR   UNL     1       0.200   0.230   2.836  0.00  0.00    -0.050 Br
ATOM     15  C   UNL     1       0.138  -4.288  -0.010  0.00  0.00    +0.045 C 
ENDBRANCH   6  10
ENDBRANCH   5   6
ENDBRANCH   1   5
BRANCH   3  16
ATOM     16  C   UNL     1      -0.009  -2.082  -7.794  0.00  0.00    +0.141 C 
BRANCH  16  17
ATOM     17  C   UNL     1      -0.030  -0.994  -8.836  0.00  0.00    -0.014 A 
ATOM     18  C   UNL     1      -1.238  -0.484  -9.294  0.00  0.00    +0.010 A 
ATOM     19  C   UNL     1      -1.213   0.514 -10.251  0.00  0.00    +0.042 A 
ATOM     20  C   UNL     1       0.015   0.972 -10.719  0.00  0.00    +0.099 A 
ATOM     21  N   UNL     1       1.145   0.460 -10.257  0.00  0.00    -0.349 N 
ATOM     22  C   UNL     1       1.152  -0.489  -9.340  0.00  0.00    +0.089 A 
ATOM     23  N   UNL     1       0.055   1.974 -11.681  0.00  0.00    -0.312 N 
ATOM     24  C   UNL     1       1.334   2.567 -12.104  0.00  0.00    +0.134 C 
ATOM     25  C   UNL     1       1.397   2.539 -13.636  0.00  0.00    +0.179 C 
ATOM     26  O   UNL     1       0.212   3.139 -14.166  0.00  0.00    -0.374 OA
ATOM     27  C   UNL     1      -0.994   2.450 -13.828  0.00  0.00    +0.132 C 
ATOM     28  C   UNL     1      -1.179   2.470 -12.311  0.00  0.00    +0.137 C 
ATOM     29  C   UNL     1      -2.183   3.141 -14.500  0.00  0.00    +0.039 C 
ATOM     30  H   UNL     1       1.990   0.794 -10.598  0.00  0.00    +0.167 HD
ENDBRANCH  16  17
ENDBRANCH   3  16
TORSDOF 5
