REMARK  Name = ZINC12603401
REMARK  12 active torsions:
REMARK  status: ('A' for Active; 'I' for Inactive)
REMARK    1  A    between atoms: C_1  and  C_2
REMARK    2  A    between atoms: C_3  and  C_17
REMARK    3  A    between atoms: C_4  and  C_16
REMARK    4  A    between atoms: N_5  and  C_7
REMARK    5  A    between atoms: C_10  and  C_13
REMARK    6  A    between atoms: C_13  and  C_14
REMARK    7  A    between atoms: C_13  and  C_15
REMARK    8  A    between atoms: C_20  and  N_67
REMARK    9  A    between atoms: C_24  and  C_25
REMARK   10  A    between atoms: C_24  and  N_67
REMARK   11  A    between atoms: C_30  and  C_31
REMARK   12  A    between atoms: C_30  and  N_67
REMARK                            x       y       z     vdW  Elec       q    Type
REMARK                         _______ _______ _______ _____ _____    ______ ____
ROOT
ATOM      1  C   UNL     1       0.434  -7.215  -1.722  0.00  0.00    +0.044 C 
ATOM      2  C   UNL     1       1.744  -7.982  -2.019  0.00  0.00    +0.001 C 
ATOM      3  C   UNL     1       1.317  -9.440  -1.722  0.00  0.00    -0.043 C 
ATOM      4  C   UNL     1       0.159  -9.314  -0.759  0.00  0.00    -0.046 C 
ATOM      5  C   UNL     1      -0.322  -8.101  -0.758  0.00  0.00    -0.025 C 
ENDROOT
BRANCH   1   8
ATOM      6  C   UNL     1       2.030  -6.767   0.979  0.00  0.00    +0.068 C 
ATOM      7  C   UNL     1       1.443  -5.686   0.109  0.00  0.00    +0.064 A 
ATOM      8  C   UNL     1       0.738  -5.885  -1.083  0.00  0.00    +0.003 A 
ATOM      9  C   UNL     1       0.374  -4.672  -1.559  0.00  0.00    +0.046 A 
ATOM     10  N   UNL     1       0.841  -3.736  -0.701  0.00  0.00    -0.236 N 
ATOM     11  N   UNL     1       1.505  -4.399   0.339  0.00  0.00    -0.171 NA
ATOM     12  C   UNL     1      -0.409  -4.410  -2.820  0.00  0.00    +0.066 C 
BRANCH  10  13
ATOM     13  C   UNL     1       0.682  -2.349  -0.827  0.00  0.00    +0.066 A 
ATOM     14  C   UNL     1       0.510  -1.563   0.304  0.00  0.00    +0.028 A 
ATOM     15  C   UNL     1       0.354  -0.196   0.177  0.00  0.00    +0.006 A 
ATOM     16  C   UNL     1       0.368   0.389  -1.076  0.00  0.00    -0.045 A 
ATOM     17  C   UNL     1       0.533  -0.392  -2.205  0.00  0.00    +0.006 A 
ATOM     18  C   UNL     1       0.696  -1.758  -2.084  0.00  0.00    +0.028 A 
BRANCH  16  19
ATOM     19  C   UNL     1       0.197   1.880  -1.212  0.00  0.00    +0.013 C 
ATOM     20  C   UNL     1       1.432   2.475  -1.891  0.00  0.00    +0.012 C 
ATOM     21  C   UNL     1      -1.042   2.176  -2.058  0.00  0.00    +0.012 C 
ENDBRANCH  16  19
ENDBRANCH  10  13
ENDBRANCH   1   8
BRANCH   3  22
ATOM     22  N   UNL     1       0.907 -10.108  -2.975  0.00  0.00    +0.393 N 
ATOM     23  H   UNL     1       1.698 -10.103  -3.630  0.00  0.00    -0.080 HD
BRANCH  22  24
ATOM     24  C   UNL     1       0.522 -11.508  -2.698  0.00  0.00    -0.002 C 
BRANCH  24  25
ATOM     25  C   UNL     1       0.840 -12.342  -3.913  0.00  0.00    +0.089 A 
ATOM     26  C   UNL     1       2.052 -12.824  -4.241  0.00  0.00    +0.042 A 
ATOM     27  C   UNL     1       1.893 -13.546  -5.446  0.00  0.00    +0.041 A 
ATOM     28  C   UNL     1       0.595 -13.456  -5.786  0.00  0.00    +0.195 A 
ATOM     29  O   UNL     1      -0.038 -12.725  -4.854  0.00  0.00    -0.470 OA
ENDBRANCH  24  25
ENDBRANCH  22  24
BRANCH  22  30
ATOM     30  C   UNL     1      -0.228  -9.384  -3.586  0.00  0.00    -0.002 C 
BRANCH  30  31
ATOM     31  C   UNL     1      -0.367  -9.825  -5.020  0.00  0.00    +0.089 A 
ATOM     32  C   UNL     1      -1.264 -10.711  -5.487  0.00  0.00    +0.042 A 
ATOM     33  C   UNL     1      -1.043 -10.825  -6.879  0.00  0.00    +0.041 A 
ATOM     34  C   UNL     1      -0.017 -10.007  -7.178  0.00  0.00    +0.195 A 
ATOM     35  O   UNL     1       0.388  -9.404  -6.048  0.00  0.00    -0.470 OA
ENDBRANCH  30  31
ENDBRANCH  22  30
ENDBRANCH   3  22
TORSDOF 8
