REMARK  Name = ZINC21223072
REMARK  9 active torsions:
REMARK  status: ('A' for Active; 'I' for Inactive)
REMARK    1  A    between atoms: C_1  and  C_2
REMARK    2  A    between atoms: C_5  and  C_8
REMARK    3  A    between atoms: C_13  and  C_23
REMARK    4  A    between atoms: C_27  and  O_33
REMARK    5  A    between atoms: C_28  and  O_29
REMARK    6  A    between atoms: O_29  and  C_30
REMARK    7  A    between atoms: C_30  and  C_31
REMARK    8  A    between atoms: C_30  and  C_32
REMARK    9  A    between atoms: O_33  and  C_34
REMARK                            x       y       z     vdW  Elec       q    Type
REMARK                         _______ _______ _______ _____ _____    ______ ____
ROOT
ATOM      1  C   UNL     1      -5.756   1.971   3.462  0.00  0.00    +0.032 C 
ATOM      2  C   UNL     1      -4.742   0.838   3.605  0.00  0.00    +0.059 C 
ATOM      3  C   UNL     1      -4.054   0.588   2.273  0.00  0.00    +0.017 C 
ATOM      4  C   UNL     1      -3.825   1.605   1.426  0.00  0.00    +0.037 C 
ATOM      5  C   UNL     1      -3.121   1.507   0.093  0.00  0.00    +0.140 C 
ATOM      6  N   UNL     1      -2.911   0.153  -0.375  0.00  0.00    -0.331 N 
ATOM      7  C   UNL     1      -2.083  -0.729   0.318  0.00  0.00    +0.049 A 
ATOM      8  C   UNL     1      -0.882  -1.163  -0.218  0.00  0.00    +0.025 A 
ATOM      9  C   UNL     1      -0.042  -1.954   0.548  0.00  0.00    +0.002 A 
ATOM     10  C   UNL     1      -0.397  -2.309   1.836  0.00  0.00    +0.002 A 
ATOM     11  C   UNL     1      -1.607  -1.893   2.367  0.00  0.00    +0.025 A 
ATOM     12  C   UNL     1      -2.455  -1.117   1.596  0.00  0.00    +0.052 A 
ATOM     13  N   UNL     1      -3.702  -0.704   2.051  0.00  0.00    -0.316 N 
ATOM     14  C   UNL     1      -4.260   2.913   1.748  0.00  0.00    +0.163 C 
ATOM     15  O   UNL     1      -4.027   3.815   0.968  0.00  0.00    -0.292 OA
ATOM     16  C   UNL     1      -4.996   3.225   3.016  0.00  0.00    +0.088 C 
ATOM     17  H   UNL     1      -3.409  -0.195  -1.292  0.00  0.00    +0.147 HD
ATOM     18  H   UNL     1      -4.428  -1.510   2.232  0.00  0.00    +0.152 HD
ENDROOT
BRANCH   1  23
ATOM     19  C   UNL     1      -8.331   2.947   8.543  0.00  0.00    +0.044 C 
ATOM     20  C   UNL     1      -7.659   2.692   7.218  0.00  0.00    -0.050 A 
ATOM     21  C   UNL     1      -8.414   2.322   6.121  0.00  0.00    +0.003 A 
ATOM     22  C   UNL     1      -7.798   2.088   4.905  0.00  0.00    +0.004 A 
ATOM     23  C   UNL     1      -6.428   2.225   4.787  0.00  0.00    -0.043 A 
ATOM     24  C   UNL     1      -5.672   2.591   5.886  0.00  0.00    +0.004 A 
ATOM     25  C   UNL     1      -6.289   2.828   7.100  0.00  0.00    +0.003 A 
ENDBRANCH   1  23
BRANCH   5  26
ATOM     26  C   UNL     1      -1.780   2.186   0.210  0.00  0.00    +0.023 A 
ATOM     27  C   UNL     1      -0.805   1.653   1.034  0.00  0.00    +0.009 A 
ATOM     28  C   UNL     1       0.427   2.269   1.139  0.00  0.00    +0.004 A 
ATOM     29  C   UNL     1       0.689   3.424   0.426  0.00  0.00    +0.049 A 
ATOM     30  C   UNL     1      -0.285   3.967  -0.396  0.00  0.00    +0.162 A 
ATOM     31  C   UNL     1      -1.526   3.346  -0.502  0.00  0.00    +0.168 A 
BRANCH  30  32
ATOM     32  O   UNL     1      -0.029   5.103  -1.099  0.00  0.00    -0.491 OA
ATOM     33  C   UNL     1       1.267   5.684  -0.942  0.00  0.00    +0.277 C 
ENDBRANCH  30  32
BRANCH  31  34
ATOM     34  O   UNL     1      -2.486   3.875  -1.308  0.00  0.00    -0.485 OA
BRANCH  34  35
ATOM     35  C   UNL     1      -2.425   3.540  -2.696  0.00  0.00    +0.168 C 
ATOM     36  C   UNL     1      -3.342   2.347  -2.973  0.00  0.00    +0.051 C 
ATOM     37  C   UNL     1      -2.880   4.739  -3.530  0.00  0.00    +0.051 C 
ENDBRANCH  34  35
ENDBRANCH  31  34
ENDBRANCH   5  26
TORSDOF 5
