REMARK  Name = ZINC09292965
REMARK  12 active torsions:
REMARK  status: ('A' for Active; 'I' for Inactive)
REMARK    1  A    between atoms: C_1  and  C_2
REMARK    2  A    between atoms: C_2  and  O_3
REMARK    3  A    between atoms: O_3  and  C_4
REMARK    4  A    between atoms: C_7  and  C_12
REMARK    5  A    between atoms: C_9  and  O_10
REMARK    6  A    between atoms: O_10  and  C_11
REMARK    7  A    between atoms: C_19  and  N_34
REMARK    8  A    between atoms: C_20  and  C_32
REMARK    9  A    between atoms: C_21  and  C_23
REMARK   10  A    between atoms: C_26  and  C_29
REMARK   11  A    between atoms: C_29  and  C_30
REMARK   12  A    between atoms: C_29  and  C_31
REMARK                            x       y       z     vdW  Elec       q    Type
REMARK                         _______ _______ _______ _____ _____    ______ ____
ROOT
ATOM      1  C   UNL     1       1.106  -6.021  -1.840  0.00  0.00    +0.074 A 
ATOM      2  C   UNL     1       1.454  -6.919  -0.887  0.00  0.00    +0.054 A 
ATOM      3  C   UNL     1       1.440  -8.202  -1.469  0.00  0.00    +0.245 A 
ATOM      4  N   UNL     1       1.097  -8.081  -2.720  0.00  0.00    -0.135 NA
ATOM      5  N   UNL     1       0.873  -6.722  -2.990  0.00  0.00    -0.273 N 
ATOM      6  H   UNL     1       0.602  -6.347  -3.843  0.00  0.00    +0.189 HD
ATOM      7  O   UNL     1       1.746  -9.319  -0.755  0.00  0.00    -0.421 OA
ATOM      8  C   UNL     1       1.801  -9.205   0.586  0.00  0.00    +0.201 C 
ATOM      9  C   UNL     1       1.832  -8.032   1.253  0.00  0.00    +0.098 C 
ATOM     10  C   UNL     1       1.813  -6.693   0.559  0.00  0.00    +0.102 C 
ENDROOT
BRANCH   1  14
ATOM     11  C   UNL     1       0.777  -1.811  -1.336  0.00  0.00    +0.162 A 
ATOM     12  C   UNL     1       0.242  -2.667  -0.385  0.00  0.00    +0.050 A 
ATOM     13  C   UNL     1       0.347  -4.033  -0.546  0.00  0.00    +0.014 A 
ATOM     14  C   UNL     1       0.992  -4.556  -1.667  0.00  0.00    +0.004 A 
ATOM     15  C   UNL     1       1.530  -3.695  -2.624  0.00  0.00    +0.059 A 
ATOM     16  C   UNL     1       1.417  -2.327  -2.460  0.00  0.00    +0.162 A 
BRANCH  16  17
ATOM     17  O   UNL     1       1.936  -1.485  -3.394  0.00  0.00    -0.491 OA
ATOM     18  C   UNL     1       2.579  -2.083  -4.521  0.00  0.00    +0.277 C 
ENDBRANCH  16  17
BRANCH  11  19
ATOM     19  O   UNL     1       0.671  -0.465  -1.174  0.00  0.00    -0.489 OA
BRANCH  19  21
ATOM     20  C   UNL     1      -0.019   1.526   0.010  0.00  0.00    +0.048 C 
ATOM     21  C   UNL     1       0.002  -0.004   0.002  0.00  0.00    +0.226 C 
ENDBRANCH  19  21
ENDBRANCH  11  19
ENDBRANCH   1  14
BRANCH  10  22
ATOM     22  C   UNL     1       3.174  -6.052   0.652  0.00  0.00    -0.035 A 
ATOM     23  C   UNL     1       4.279  -6.699   0.131  0.00  0.00    +0.005 A 
ATOM     24  C   UNL     1       5.527  -6.111   0.216  0.00  0.00    +0.004 A 
ATOM     25  C   UNL     1       5.670  -4.877   0.823  0.00  0.00    -0.045 A 
ATOM     26  C   UNL     1       4.565  -4.231   1.343  0.00  0.00    +0.004 A 
ATOM     27  C   UNL     1       3.316  -4.816   1.254  0.00  0.00    +0.005 A 
BRANCH  25  28
ATOM     28  C   UNL     1       7.032  -4.237   0.917  0.00  0.00    +0.013 C 
ATOM     29  C   UNL     1       7.014  -2.892   0.188  0.00  0.00    +0.012 C 
ATOM     30  C   UNL     1       7.391  -4.017   2.387  0.00  0.00    +0.012 C 
ENDBRANCH  25  28
ENDBRANCH  10  22
BRANCH   8  31
ATOM     31  N   UNL     1       1.827 -10.361   1.326  0.00  0.00    -0.328 N 
ATOM     32  H   UNL     1       1.806 -11.222   0.880  0.00  0.00    +0.145 HD
ATOM     33  H   UNL     1       1.867 -10.316   2.294  0.00  0.00    +0.145 HD
ENDBRANCH   8  31
BRANCH   9  34
ATOM     34  C   UNL     1       1.885  -8.060   2.683  0.00  0.00    +0.101 C 
ATOM     35  N   UNL     1       1.928  -8.082   3.818  0.00  0.00    -0.191 NA
ENDBRANCH   9  34
TORSDOF 8
