REMARK  Name = ZINC39911780
REMARK  12 active torsions:
REMARK  status: ('A' for Active; 'I' for Inactive)
REMARK    1  A    between atoms: C_1  and  C_2
REMARK    2  A    between atoms: C_2  and  C_3
REMARK    3  A    between atoms: C_3  and  N_4
REMARK    4  A    between atoms: C_5  and  C_24
REMARK    5  A    between atoms: C_8  and  C_15
REMARK    6  A    between atoms: C_17  and  C_23
REMARK    7  A    between atoms: C_19  and  C_22
REMARK    8  A    between atoms: C_20  and  O_21
REMARK    9  A    between atoms: C_27  and  C_30
REMARK   10  A    between atoms: C_30  and  C_31
REMARK   11  A    between atoms: C_30  and  C_32
REMARK   12  A    between atoms: C_30  and  C_33
REMARK                            x       y       z     vdW  Elec       q    Type
REMARK                         _______ _______ _______ _____ _____    ______ ____
ROOT
ATOM      1  N   UNL     1       0.762  -1.976   1.234  0.00  0.00    -0.285 N 
ATOM      2  C   UNL     1      -0.254  -2.853   1.829  0.00  0.00    +0.141 C 
ATOM      3  C   UNL     1       0.204  -4.261   1.563  0.00  0.00    +0.035 A 
ATOM      4  C   UNL     1      -0.044  -5.630   1.711  0.00  0.00    +0.102 A 
ATOM      5  N   UNL     1       0.949  -6.276   1.133  0.00  0.00    -0.173 NA
ATOM      6  N   UNL     1       1.800  -5.451   0.634  0.00  0.00    -0.272 N 
ATOM      7  H   UNL     1       2.608  -5.702   0.162  0.00  0.00    +0.189 HD
ATOM      8  C   UNL     1       1.394  -4.167   0.868  0.00  0.00    +0.126 A 
ATOM      9  C   UNL     1       1.711  -2.748   0.675  0.00  0.00    +0.265 C 
ATOM     10  O   UNL     1       2.694  -2.329   0.093  0.00  0.00    -0.268 OA
ENDROOT
BRANCH   4  11
ATOM     11  C   UNL     1      -1.211  -6.242   2.395  0.00  0.00    +0.044 A 
ATOM     12  C   UNL     1      -2.193  -5.434   2.961  0.00  0.00    +0.017 A 
ATOM     13  C   UNL     1      -3.276  -6.008   3.595  0.00  0.00    -0.049 A 
ATOM     14  C   UNL     1      -3.390  -7.385   3.671  0.00  0.00    +0.010 A 
ATOM     15  C   UNL     1      -2.421  -8.196   3.112  0.00  0.00    -0.008 A 
ATOM     16  C   UNL     1      -1.331  -7.633   2.468  0.00  0.00    +0.129 A 
ATOM     17  C   UNL     1      -2.551  -9.695   3.199  0.00  0.00    +0.047 C 
ATOM     18  C   UNL     1      -4.339  -5.133   4.207  0.00  0.00    +0.044 C 
BRANCH  16  19
ATOM     19  O   UNL     1      -0.380  -8.429   1.914  0.00  0.00    -0.506 OA
ATOM     20  H   UNL     1       0.341  -8.658   2.516  0.00  0.00    +0.292 HD
ENDBRANCH  16  19
ENDBRANCH   4  11
BRANCH   2  21
ATOM     21  C   UNL     1      -0.347  -2.607   3.312  0.00  0.00    -0.022 A 
ATOM     22  C   UNL     1       0.801  -2.389   4.050  0.00  0.00    +0.006 A 
ATOM     23  C   UNL     1       0.716  -2.163   5.411  0.00  0.00    +0.004 A 
ATOM     24  C   UNL     1      -0.518  -2.156   6.035  0.00  0.00    -0.042 A 
ATOM     25  C   UNL     1      -1.667  -2.374   5.297  0.00  0.00    +0.004 A 
ATOM     26  C   UNL     1      -1.582  -2.595   3.935  0.00  0.00    +0.006 A 
BRANCH  24  27
ATOM     27  C   UNL     1      -0.611  -1.911   7.519  0.00  0.00    -0.013 C 
ATOM     28  C   UNL     1      -0.023  -0.537   7.847  0.00  0.00    +0.015 C 
ATOM     29  C   UNL     1      -2.078  -1.955   7.952  0.00  0.00    +0.015 C 
ATOM     30  C   UNL     1       0.173  -2.992   8.264  0.00  0.00    +0.015 C 
ENDBRANCH  24  27
ENDBRANCH   2  21
BRANCH   1  31
ATOM     31  C   UNL     1       0.742  -0.511   1.242  0.00  0.00    +0.109 C 
BRANCH  31  33
ATOM     32  C   UNL     1      -0.019   1.526   0.010  0.00  0.00    +0.005 C 
ATOM     33  C   UNL     1       0.002  -0.004   0.002  0.00  0.00    +0.016 C 
ENDBRANCH  31  33
ENDBRANCH   1  31
TORSDOF 6
