REMARK  Name = ZINC62038737
REMARK  8 active torsions:
REMARK  status: ('A' for Active; 'I' for Inactive)
REMARK    1  A    between atoms: C_1  and  C_2
REMARK    2  A    between atoms: C_2  and  C_4
REMARK    3  A    between atoms: C_2  and  S_16
REMARK    4  A    between atoms: N_6  and  C_7
REMARK    5  A    between atoms: C_9  and  C_14
REMARK    6  A    between atoms: C_12  and  O_13
REMARK    7  A    between atoms: S_16  and  C_17
REMARK    8  A    between atoms: C_22  and  C_27
REMARK                            x       y       z     vdW  Elec       q    Type
REMARK                         _______ _______ _______ _____ _____    ______ ____
ROOT
ATOM      1  C   UNL     1      -2.363  -0.131  -1.534  0.00  0.00    +0.171 A 
ATOM      2  N   UNL     1      -1.604   0.557  -2.361  0.00  0.00    -0.185 NA
ATOM      3  C   UNL     1      -2.045   0.985  -3.548  0.00  0.00    +0.283 A 
ATOM      4  O   UNL     1      -1.309   1.620  -4.287  0.00  0.00    -0.265 OA
ATOM      5  C   UNL     1      -3.436   0.682  -3.958  0.00  0.00    +0.080 A 
ATOM      6  C   UNL     1      -4.138   1.036  -5.186  0.00  0.00    +0.004 A 
ATOM      7  C   UNL     1      -5.425   0.642  -5.337  0.00  0.00    +0.056 A 
ATOM      8  S   UNL     1      -5.763  -0.234  -3.821  0.00  0.00    -0.078 S 
ATOM      9  C   UNL     1      -4.185  -0.049  -3.035  0.00  0.00    +0.093 A 
ATOM     10  N   UNL     1      -3.650  -0.449  -1.849  0.00  0.00    -0.328 N 
ATOM     11  H   UNL     1      -4.188  -0.960  -1.224  0.00  0.00    +0.168 HD
ENDROOT
BRANCH   6  12
ATOM     12  C   UNL     1      -3.457   1.813  -6.249  0.00  0.00    -0.016 A 
ATOM     13  C   UNL     1      -2.772   2.985  -5.930  0.00  0.00    +0.010 A 
ATOM     14  C   UNL     1      -2.140   3.704  -6.923  0.00  0.00    +0.020 A 
ATOM     15  C   UNL     1      -2.183   3.263  -8.235  0.00  0.00    +0.041 A 
ATOM     16  C   UNL     1      -2.862   2.100  -8.558  0.00  0.00    +0.020 A 
ATOM     17  C   UNL     1      -3.493   1.371  -7.571  0.00  0.00    +0.010 A 
ATOM     18 CL   UNL     1      -1.386   4.173  -9.480  0.00  0.00    -0.084 Cl
ENDBRANCH   6  12
BRANCH   1  19
ATOM     19  S   UNL     1      -1.698  -0.657   0.011  0.00  0.00    -0.075 S 
BRANCH  19  21
ATOM     20  C   UNL     1      -0.026   1.508  -0.005  0.00  0.00    +0.029 C 
ATOM     21  C   UNL     1       0.002  -0.021  -0.004  0.00  0.00    +0.137 C 
BRANCH  21  22
ATOM     22  C   UNL     1       0.731  -0.509   1.221  0.00  0.00    +0.230 C 
ATOM     23  O   UNL     1       0.105  -0.894   2.186  0.00  0.00    -0.274 OA
ATOM     24  N   UNL     1       2.079  -0.519   1.244  0.00  0.00    -0.282 N 
ATOM     25  H   UNL     1       2.579  -0.273   0.450  0.00  0.00    +0.155 HD
BRANCH  24  26
ATOM     26  C   UNL     1       2.757  -0.883   2.415  0.00  0.00    +0.076 A 
ATOM     27  C   UNL     1       2.229  -1.853   3.246  0.00  0.00    +0.038 A 
ATOM     28  C   UNL     1       2.910  -2.214   4.414  0.00  0.00    +0.016 A 
ATOM     29  C   UNL     1       4.122  -1.590   4.735  0.00  0.00    +0.015 A 
ATOM     30  C   UNL     1       4.641  -0.625   3.902  0.00  0.00    +0.048 A 
ATOM     31  C   UNL     1       3.969  -0.270   2.739  0.00  0.00    +0.138 A 
BRANCH  31  32
ATOM     32  O   UNL     1       4.488   0.678   1.919  0.00  0.00    -0.505 OA
ATOM     33  H   UNL     1       4.203   1.578   2.129  0.00  0.00    +0.292 HD
ENDBRANCH  31  32
BRANCH  28  34
ATOM     34  C   UNL     1       2.355  -3.244   5.302  0.00  0.00    +0.258 C 
ATOM     35  O   UNL     1       2.947  -3.555   6.314  0.00  0.00    -0.296 OA
ENDBRANCH  28  34
ENDBRANCH  24  26
ENDBRANCH  21  22
ENDBRANCH  19  21
ENDBRANCH   1  19
TORSDOF 7
