REMARK  Name = ZINC36637320
REMARK  10 active torsions:
REMARK  status: ('A' for Active; 'I' for Inactive)
REMARK    1  A    between atoms: C_1  and  C_2
REMARK    2  A    between atoms: C_5  and  C_37
REMARK    3  A    between atoms: N_8  and  S_10
REMARK    4  A    between atoms: S_10  and  C_13
REMARK    5  A    between atoms: C_16  and  C_19
REMARK    6  A    between atoms: N_21  and  C_22
REMARK    7  A    between atoms: C_22  and  C_23
REMARK    8  A    between atoms: C_23  and  N_24
REMARK    9  A    between atoms: N_24  and  C_25
REMARK   10  A    between atoms: N_24  and  C_26
REMARK                            x       y       z     vdW  Elec       q    Type
REMARK                         _______ _______ _______ _____ _____    ______ ____
ROOT
ATOM      1  C   UNL     1       3.784  -4.146  -4.066  0.00  0.00    +0.252 C 
ATOM      2  O   UNL     1       3.468  -5.194  -4.595  0.00  0.00    -0.270 OA
ATOM      3  N   UNL     1       4.625  -3.301  -4.694  0.00  0.00    -0.248 N 
ATOM      4  C   UNL     1       5.021  -3.559  -5.996  0.00  0.00    +0.168 A 
ATOM      5  N   UNL     1       5.829  -2.865  -6.763  0.00  0.00    -0.224 NA
ATOM      6  C   UNL     1       6.130  -3.239  -8.027  0.00  0.00    +0.080 A 
ATOM      7  C   UNL     1       6.978  -2.586  -8.951  0.00  0.00    +0.032 A 
ATOM      8  C   UNL     1       7.176  -3.102 -10.205  0.00  0.00    +0.040 A 
ATOM      9  C   UNL     1       6.556  -4.277 -10.613  0.00  0.00    +0.125 A 
ATOM     10  C   UNL     1       5.720  -4.941  -9.732  0.00  0.00    +0.055 A 
ATOM     11  C   UNL     1       5.516  -4.431  -8.475  0.00  0.00    +0.043 A 
ATOM     12  S   UNL     1       4.568  -4.925  -7.056  0.00  0.00    -0.052 S 
ATOM     13  F   UNL     1       6.768  -4.764 -11.855  0.00  0.00    -0.205 F 
ENDROOT
BRANCH   1  17
ATOM     14  C   UNL     1       2.238  -3.148  -0.238  0.00  0.00    +0.106 A 
ATOM     15  C   UNL     1       1.470  -3.888  -1.120  0.00  0.00    +0.029 A 
ATOM     16  C   UNL     1       1.966  -4.216  -2.365  0.00  0.00    +0.015 A 
ATOM     17  C   UNL     1       3.246  -3.799  -2.734  0.00  0.00    +0.037 A 
ATOM     18  C   UNL     1       4.016  -3.052  -1.840  0.00  0.00    +0.015 A 
ATOM     19  C   UNL     1       3.505  -2.727  -0.600  0.00  0.00    +0.029 A 
BRANCH  14  20
ATOM     20  S   UNL     1       1.596  -2.734   1.350  0.00  0.00    +0.061 S 
ATOM     21  O   UNL     1       2.716  -2.497   2.191  0.00  0.00    -0.153 OA
ATOM     22  O   UNL     1       0.607  -3.707   1.654  0.00  0.00    -0.153 OA
BRANCH  20  28
ATOM     23  C   UNL     1       1.928   2.245   0.419  0.00  0.00    +0.009 C 
ATOM     24  C   UNL     1       1.306   0.870   0.170  0.00  0.00    +0.002 C 
ATOM     25  C   UNL     1      -0.195   1.027  -0.087  0.00  0.00    +0.009 C 
ATOM     26  C   UNL     1      -0.812  -0.345  -0.370  0.00  0.00    +0.002 C 
ATOM     27  C   UNL     1      -0.623  -1.247   0.854  0.00  0.00    +0.112 C 
ATOM     28  N   UNL     1       0.805  -1.287   1.196  0.00  0.00    -0.176 NA
ATOM     29  C   UNL     1       1.520  -0.019   1.399  0.00  0.00    +0.112 C 
ATOM     30  C   UNL     1      -2.305  -0.183  -0.660  0.00  0.00    +0.009 C 
ENDBRANCH  20  28
ENDBRANCH  14  20
ENDBRANCH   1  17
BRANCH   3  31
ATOM     31  C   UNL     1       5.121  -2.110  -4.000  0.00  0.00    +0.097 C 
BRANCH  31  32
ATOM     32  C   UNL     1       6.561  -2.348  -3.543  0.00  0.00    -0.060 C 
BRANCH  32  33
ATOM     33  N   UNL     1       7.101  -1.112  -2.961  0.00  0.00    +0.377 N 
ATOM     34  C   UNL     1       6.358  -0.783  -1.737  0.00  0.00    -0.097 C 
ATOM     35  C   UNL     1       8.521  -1.304  -2.635  0.00  0.00    -0.097 C 
ATOM     36  H   UNL     1       7.007  -0.358  -3.624  0.00  0.00    -0.083 HD
ENDBRANCH  32  33
ENDBRANCH  31  32
ENDBRANCH   3  31
TORSDOF 6
