REMARK  Name = ZINC32622867
REMARK  12 active torsions:
REMARK  status: ('A' for Active; 'I' for Inactive)
REMARK    1  A    between atoms: C_1  and  C_2
REMARK    2  A    between atoms: C_2  and  C_3
REMARK    3  A    between atoms: C_3  and  C_4
REMARK    4  A    between atoms: C_4  and  O_5
REMARK    5  A    between atoms: O_5  and  C_6
REMARK    6  A    between atoms: C_9  and  C_12
REMARK    7  A    between atoms: N_27  and  C_28
REMARK    8  A    between atoms: C_28  and  C_29
REMARK    9  A    between atoms: C_29  and  C_30
REMARK   10  A    between atoms: C_30  and  N_31
REMARK   11  A    between atoms: N_31  and  C_32
REMARK   12  A    between atoms: N_31  and  C_33
REMARK                            x       y       z     vdW  Elec       q    Type
REMARK                         _______ _______ _______ _____ _____    ______ ____
ROOT
ATOM      1  C   UNL     1      -2.127   2.550   9.936  0.00  0.00    +0.144 C 
ATOM      2  C   UNL     1      -3.341   1.716  10.250  0.00  0.00    +0.072 A 
ATOM      3  C   UNL     1      -3.539   0.273  10.416  0.00  0.00    +0.199 A 
ATOM      4  O   UNL     1      -2.618  -0.516  10.304  0.00  0.00    -0.287 OA
ATOM      5  C   UNL     1      -4.911  -0.176  10.726  0.00  0.00    +0.066 A 
ATOM      6  C   UNL     1      -5.211  -1.526  10.903  0.00  0.00    +0.035 A 
ATOM      7  C   UNL     1      -6.505  -1.902  11.191  0.00  0.00    +0.042 A 
ATOM      8  C   UNL     1      -7.503  -0.941  11.303  0.00  0.00    +0.023 A 
ATOM      9  C   UNL     1      -7.218   0.395  11.130  0.00  0.00    +0.048 A 
ATOM     10  C   UNL     1      -5.917   0.798  10.838  0.00  0.00    +0.140 A 
ATOM     11  O   UNL     1      -5.627   2.101  10.668  0.00  0.00    -0.450 OA
ATOM     12  C   UNL     1      -4.393   2.560  10.383  0.00  0.00    +0.199 A 
ATOM     13  C   UNL     1      -3.909   3.946  10.164  0.00  0.00    +0.283 C 
ATOM     14  O   UNL     1      -4.604   4.941  10.214  0.00  0.00    -0.267 OA
ATOM     15  N   UNL     1      -2.590   3.942   9.905  0.00  0.00    -0.284 N 
ATOM     16 CL   UNL     1      -6.891  -3.580  11.415  0.00  0.00    -0.084 Cl
ENDROOT
BRANCH   1  20
ATOM     17  C   UNL     1      -0.524   1.444   6.133  0.00  0.00    +0.121 A 
ATOM     18  C   UNL     1      -1.662   2.233   6.204  0.00  0.00    +0.046 A 
ATOM     19  C   UNL     1      -2.182   2.585   7.435  0.00  0.00    +0.009 A 
ATOM     20  C   UNL     1      -1.562   2.160   8.595  0.00  0.00    -0.022 A 
ATOM     21  C   UNL     1      -0.423   1.378   8.527  0.00  0.00    +0.009 A 
ATOM     22  C   UNL     1       0.097   1.019   7.298  0.00  0.00    +0.046 A 
BRANCH  17  23
ATOM     23  O   UNL     1      -0.014   1.092   4.923  0.00  0.00    -0.492 OA
BRANCH  23  24
ATOM     24  C   UNL     1      -0.705   1.566   3.765  0.00  0.00    +0.229 C 
BRANCH  24  25
ATOM     25  C   UNL     1       0.011   1.072   2.506  0.00  0.00    +0.041 C 
BRANCH  25  27
ATOM     26  C   UNL     1      -0.013   1.086   0.008  0.00  0.00    +0.004 C 
ATOM     27  C   UNL     1      -0.729   1.579   1.267  0.00  0.00    -0.000 C 
ENDBRANCH  25  27
ENDBRANCH  24  25
ENDBRANCH  23  24
ENDBRANCH  17  23
ENDBRANCH   1  20
BRANCH  15  28
ATOM     28  C   UNL     1      -1.761   5.120   9.637  0.00  0.00    +0.107 C 
BRANCH  28  29
ATOM     29  C   UNL     1      -1.749   5.406   8.134  0.00  0.00    +0.000 C 
BRANCH  29  30
ATOM     30  C   UNL     1      -0.883   6.636   7.855  0.00  0.00    -0.078 C 
BRANCH  30  31
ATOM     31  N   UNL     1      -0.872   6.910   6.412  0.00  0.00    +0.376 N 
ATOM     32  C   UNL     1      -2.206   7.308   5.942  0.00  0.00    -0.097 C 
ATOM     33  C   UNL     1       0.130   7.931   6.078  0.00  0.00    -0.097 C 
ATOM     34  H   UNL     1      -0.594   5.980   5.894  0.00  0.00    -0.083 HD
ENDBRANCH  30  31
ENDBRANCH  29  30
ENDBRANCH  28  29
ENDBRANCH  15  28
TORSDOF 9
