REMARK  Name = ZINC31052933
REMARK  9 active torsions:
REMARK  status: ('A' for Active; 'I' for Inactive)
REMARK    1  A    between atoms: C_1  and  C_2
REMARK    2  A    between atoms: C_5  and  C_34
REMARK    3  A    between atoms: C_6  and  C_8
REMARK    4  A    between atoms: C_8  and  C_10
REMARK    5  A    between atoms: C_8  and  N_11
REMARK    6  A    between atoms: C_12  and  C_14
REMARK    7  A    between atoms: N_19  and  C_21
REMARK    8  A    between atoms: C_21  and  C_22
REMARK    9  A    between atoms: C_24  and  C_27
REMARK                            x       y       z     vdW  Elec       q    Type
REMARK                         _______ _______ _______ _____ _____    ______ ____
ROOT
ATOM      1  C   UNL     1       5.689   9.652   2.867  0.00  0.00    +0.058 C 
ATOM      2  C   UNL     1       6.276   8.547   3.750  0.00  0.00    +0.009 C 
ATOM      3  C   UNL     1       5.393   7.300   3.649  0.00  0.00    -0.018 C 
ATOM      4  C   UNL     1       5.302   6.863   2.185  0.00  0.00    -0.078 C 
ATOM      5  N   UNL     1       4.734   7.954   1.382  0.00  0.00    +0.386 N 
ATOM      6  C   UNL     1       5.589   9.147   1.426  0.00  0.00    -0.065 C 
ATOM      7  H   UNL     1       3.762   8.222   1.821  0.00  0.00    -0.081 HD
ENDROOT
BRANCH   1   9
ATOM      8  N   UNL     1       6.820  11.482   4.088  0.00  0.00    -0.309 N 
ATOM      9  C   UNL     1       6.584  10.864   2.914  0.00  0.00    +0.215 C 
ATOM     10  O   UNL     1       7.092  11.283   1.896  0.00  0.00    -0.276 OA
ATOM     11  H   UNL     1       6.359  11.101   5.012  0.00  0.00    +0.149 HD
BRANCH   8  12
ATOM     12  C   UNL     1       7.689  12.660   4.135  0.00  0.00    +0.100 C 
ATOM     13  C   UNL     1       9.148  12.213   4.245  0.00  0.00    +0.033 C 
BRANCH  12  19
ATOM     14  C   UNL     1       5.733  13.060   8.724  0.00  0.00    +0.044 C 
ATOM     15  C   UNL     1       6.395  13.694   7.527  0.00  0.00    -0.050 A 
ATOM     16  C   UNL     1       6.671  15.049   7.526  0.00  0.00    +0.003 A 
ATOM     17  C   UNL     1       7.277  15.630   6.429  0.00  0.00    +0.004 A 
ATOM     18  C   UNL     1       7.607  14.857   5.331  0.00  0.00    -0.046 A 
ATOM     19  C   UNL     1       7.330  13.502   5.331  0.00  0.00    -0.024 A 
ATOM     20  C   UNL     1       6.719  12.922   6.427  0.00  0.00    +0.009 A 
ATOM     21  C   UNL     1       8.267  15.490   4.134  0.00  0.00    +0.044 C 
ENDBRANCH  12  19
ENDBRANCH   8  12
ENDBRANCH   1   9
BRANCH   5  22
ATOM     22  C   UNL     1       4.502   7.522  -0.003  0.00  0.00    +0.022 C 
BRANCH  22  23
ATOM     23  C   UNL     1       3.835   6.171  -0.004  0.00  0.00    +0.211 A 
ATOM     24  N   UNL     1       2.546   5.941   0.004  0.00  0.00    -0.193 NA
ATOM     25  C   UNL     1       2.417   4.595   0.003  0.00  0.00    +0.202 A 
ATOM     26  N   UNL     1       3.625   4.092  -0.012  0.00  0.00    -0.056 NA
ATOM     27  O   UNL     1       4.447   4.983  -0.016  0.00  0.00    -0.340 OA
BRANCH  25  28
ATOM     28  C   UNL     1       1.145   3.830   0.012  0.00  0.00    +0.024 A 
ATOM     29  C   UNL     1      -0.075   4.504   0.027  0.00  0.00    +0.012 A 
ATOM     30  C   UNL     1      -1.255   3.789   0.034  0.00  0.00    +0.002 A 
ATOM     31  C   UNL     1      -1.230   2.406   0.021  0.00  0.00    +0.020 A 
ATOM     32  C   UNL     1      -0.021   1.732   0.012  0.00  0.00    +0.042 A 
ATOM     33  C   UNL     1       1.166   2.438   0.004  0.00  0.00    +0.031 A 
ATOM     34 CL   UNL     1       0.002  -0.004   0.002  0.00  0.00    -0.084 Cl
ENDBRANCH  25  28
ENDBRANCH  22  23
ENDBRANCH   5  22
TORSDOF 6
