REMARK  Name = ZINC67082138
REMARK  8 active torsions:
REMARK  status: ('A' for Active; 'I' for Inactive)
REMARK    1  A    between atoms: C_1  and  C_2
REMARK    2  A    between atoms: C_2  and  C_3
REMARK    3  A    between atoms: C_3  and  C_5
REMARK    4  A    between atoms: C_3  and  N_15
REMARK    5  A    between atoms: N_18  and  C_19
REMARK    6  A    between atoms: C_22  and  C_24
REMARK    7  A    between atoms: C_29  and  O_30
REMARK    8  A    between atoms: O_30  and  C_31
REMARK                            x       y       z     vdW  Elec       q    Type
REMARK                         _______ _______ _______ _____ _____    ______ ____
ROOT
ATOM      1  N   UNL     1      -2.105  -0.148  -1.230  0.00  0.00    -0.290 N 
ATOM      2  C   UNL     1      -2.690   1.062  -1.334  0.00  0.00    +0.300 C 
ATOM      3  O   UNL     1      -2.659   1.834  -0.395  0.00  0.00    -0.253 OA
ATOM      4  N   UNL     1      -3.308   1.416  -2.478  0.00  0.00    -0.296 N 
ATOM      5  H   UNL     1      -2.130  -0.764  -1.980  0.00  0.00    +0.151 HD
ATOM      6  H   UNL     1      -3.333   0.800  -3.227  0.00  0.00    +0.151 HD
ENDROOT
BRANCH   4   7
ATOM      7  C   UNL     1      -3.943   2.732  -2.590  0.00  0.00    +0.083 C 
ATOM      8  C   UNL     1      -5.328   2.795  -3.238  0.00  0.00    +0.033 C 
ATOM      9  C   UNL     1      -4.104   3.321  -3.992  0.00  0.00    +0.045 C 
BRANCH   9  10
ATOM     10  C   UNL     1      -3.596   2.505  -5.153  0.00  0.00    -0.001 A 
ATOM     11  C   UNL     1      -4.119   1.249  -5.395  0.00  0.00    +0.007 A 
ATOM     12  C   UNL     1      -3.653   0.499  -6.459  0.00  0.00    +0.001 A 
ATOM     13  C   UNL     1      -2.664   1.004  -7.284  0.00  0.00    +0.004 A 
ATOM     14  C   UNL     1      -2.139   2.259  -7.046  0.00  0.00    +0.046 A 
ATOM     15  C   UNL     1      -2.608   3.016  -5.981  0.00  0.00    +0.124 A 
BRANCH  15  16
ATOM     16  O   UNL     1      -2.097   4.253  -5.748  0.00  0.00    -0.495 OA
ATOM     17  C   UNL     1      -1.083   4.715  -6.642  0.00  0.00    +0.277 C 
ENDBRANCH  15  16
ENDBRANCH   9  10
ENDBRANCH   4   7
BRANCH   1  18
ATOM     18  C   UNL     1      -1.433  -0.534   0.013  0.00  0.00    +0.140 C 
BRANCH  18  19
ATOM     19  C   UNL     1      -1.414  -2.036   0.129  0.00  0.00    +0.129 A 
ATOM     20  N   UNL     1      -2.066  -2.753   1.083  0.00  0.00    -0.340 N 
ATOM     21  H   UNL     1      -2.616  -2.393   1.796  0.00  0.00    +0.167 HD
ATOM     22  C   UNL     1      -1.800  -4.087   0.848  0.00  0.00    +0.066 A 
ATOM     23  C   UNL     1      -2.174  -5.271   1.469  0.00  0.00    +0.028 A 
ATOM     24  C   UNL     1      -1.723  -6.475   0.970  0.00  0.00    +0.002 A 
ATOM     25  C   UNL     1      -0.899  -6.510  -0.146  0.00  0.00    +0.002 A 
ATOM     26  C   UNL     1      -0.521  -5.355  -0.769  0.00  0.00    +0.030 A 
ATOM     27  C   UNL     1      -0.966  -4.123  -0.282  0.00  0.00    +0.089 A 
ATOM     28  N   UNL     1      -0.775  -2.837  -0.673  0.00  0.00    -0.231 NA
ENDBRANCH  18  19
BRANCH  18  30
ATOM     29  C   UNL     1      -0.019   1.526   0.010  0.00  0.00    +0.006 C 
ATOM     30  C   UNL     1       0.002  -0.004   0.002  0.00  0.00    +0.027 C 
ENDBRANCH  18  30
ENDBRANCH   1  18
TORSDOF 6
