REMARK  Name = ZINC58845884
REMARK  9 active torsions:
REMARK  status: ('A' for Active; 'I' for Inactive)
REMARK    1  A    between atoms: C_1  and  C_2
REMARK    2  A    between atoms: C_6  and  N_8
REMARK    3  A    between atoms: N_8  and  S_9
REMARK    4  A    between atoms: S_9  and  C_12
REMARK    5  A    between atoms: C_25  and  C_28
REMARK    6  A    between atoms: C_31  and  O_34
REMARK    7  A    between atoms: O_34  and  C_35
REMARK    8  A    between atoms: C_35  and  C_36
REMARK    9  A    between atoms: C_35  and  C_37
REMARK                            x       y       z     vdW  Elec       q    Type
REMARK                         _______ _______ _______ _____ _____    ______ ____
ROOT
ATOM      1  C   UNL     1       3.237  -3.813   1.100  0.00  0.00    +0.109 A 
ATOM      2  C   UNL     1       4.088  -3.791   0.009  0.00  0.00    +0.030 A 
ATOM      3  C   UNL     1       5.359  -3.270   0.143  0.00  0.00    +0.025 A 
ATOM      4  C   UNL     1       5.782  -2.767   1.369  0.00  0.00    +0.031 A 
ATOM      5  C   UNL     1       4.926  -2.777   2.459  0.00  0.00    -0.018 A 
ATOM      6  C   UNL     1       3.651  -3.306   2.314  0.00  0.00    +0.034 A 
ATOM      7  C   UNL     1       5.330  -2.210   3.778  0.00  0.00    +0.049 C 
ATOM      8  C   UNL     1       5.665  -3.286   4.779  0.00  0.00    -0.023 C 
ATOM      9  C   UNL     1       6.656  -2.901   5.544  0.00  0.00    -0.030 C 
ATOM     10  C   UNL     1       7.127  -1.516   5.160  0.00  0.00    +0.033 C 
ATOM     11  C   UNL     1       6.568  -1.317   3.732  0.00  0.00    +0.029 C 
ATOM     12  C   UNL     1       7.618  -1.781   2.744  0.00  0.00    +0.105 C 
ATOM     13  N   UNL     1       7.071  -2.262   1.493  0.00  0.00    -0.336 N 
ATOM     14  H   UNL     1       7.640  -2.254   0.707  0.00  0.00    +0.147 HD
ENDROOT
BRANCH  12  15
ATOM     15  C   UNL     1       8.437  -2.868   3.391  0.00  0.00    -0.027 A 
ATOM     16  C   UNL     1       7.952  -4.162   3.440  0.00  0.00    +0.009 A 
ATOM     17  C   UNL     1       8.700  -5.160   4.032  0.00  0.00    +0.046 A 
ATOM     18  C   UNL     1       9.940  -4.864   4.579  0.00  0.00    +0.121 A 
ATOM     19  C   UNL     1      10.426  -3.565   4.528  0.00  0.00    +0.046 A 
ATOM     20  C   UNL     1       9.676  -2.571   3.930  0.00  0.00    +0.009 A 
BRANCH  18  21
ATOM     21  O   UNL     1      10.679  -5.844   5.163  0.00  0.00    -0.489 OA
BRANCH  21  22
ATOM     22  C   UNL     1      10.068  -7.130   5.285  0.00  0.00    +0.167 C 
ATOM     23  C   UNL     1      10.267  -7.915   3.987  0.00  0.00    +0.051 C 
ATOM     24  C   UNL     1      10.712  -7.892   6.445  0.00  0.00    +0.051 C 
ENDBRANCH  21  22
ENDBRANCH  18  21
ENDBRANCH  12  15
BRANCH   1  25
ATOM     25  S   UNL     1       1.617  -4.486   0.936  0.00  0.00    +0.072 S 
ATOM     26  O   UNL     1       1.208  -4.882   2.237  0.00  0.00    -0.150 OA
ATOM     27  O   UNL     1       1.662  -5.393  -0.158  0.00  0.00    -0.150 OA
BRANCH  25  28
ATOM     28  N   UNL     1       0.616  -3.247   0.482  0.00  0.00    -0.216 N 
ATOM     29  H   UNL     1      -0.091  -2.952   1.077  0.00  0.00    +0.174 HD
BRANCH  28  35
ATOM     30  C   UNL     1       0.888   0.872  -2.185  0.00  0.00    +0.044 C 
ATOM     31  C   UNL     1       0.927  -0.631  -2.080  0.00  0.00    -0.049 A 
ATOM     32  C   UNL     1       1.136  -1.397  -3.212  0.00  0.00    +0.003 A 
ATOM     33  C   UNL     1       1.172  -2.776  -3.120  0.00  0.00    +0.002 A 
ATOM     34  C   UNL     1       1.000  -3.393  -1.896  0.00  0.00    +0.024 A 
ATOM     35  C   UNL     1       0.790  -2.627  -0.757  0.00  0.00    +0.048 A 
ATOM     36  C   UNL     1       0.760  -1.241  -0.852  0.00  0.00    +0.027 A 
ENDBRANCH  28  35
ENDBRANCH  25  28
ENDBRANCH   1  25
TORSDOF 6
