REMARK  Name = ZINC36546786
REMARK  14 active torsions:
REMARK  status: ('A' for Active; 'I' for Inactive)
REMARK    1  A    between atoms: C_1  and  C_2
REMARK    2  A    between atoms: C_2  and  C_3
REMARK    3  A    between atoms: C_3  and  C_4
REMARK    4  A    between atoms: C_4  and  N_5
REMARK    5  A    between atoms: C_6  and  C_8
REMARK    6  A    between atoms: C_8  and  C_10
REMARK    7  A    between atoms: C_8  and  N_19
REMARK    8  A    between atoms: C_11  and  O_18
REMARK    9  A    between atoms: C_13  and  O_17
REMARK   10  A    between atoms: C_15  and  O_16
REMARK   11  A    between atoms: N_19  and  C_20
REMARK   12  A    between atoms: C_27  and  C_29
REMARK   13  A    between atoms: C_30  and  C_31
REMARK   14  A    between atoms: C_30  and  C_32
REMARK                            x       y       z     vdW  Elec       q    Type
REMARK                         _______ _______ _______ _____ _____    ______ ____
ROOT
ATOM      1  C   UNL     1      -4.798  -4.093   0.243  0.00  0.00    +0.204 C 
ENDROOT
BRANCH   1   2
ATOM      2  C   UNL     1      -6.003  -3.540   0.959  0.00  0.00    +0.065 A 
ATOM      3  C   UNL     1      -6.211  -3.836   2.297  0.00  0.00    +0.129 A 
ATOM      4  C   UNL     1      -7.320  -3.327   2.956  0.00  0.00    +0.091 A 
ATOM      5  C   UNL     1      -8.220  -2.520   2.276  0.00  0.00    +0.124 A 
ATOM      6  C   UNL     1      -8.012  -2.223   0.938  0.00  0.00    +0.091 A 
ATOM      7  C   UNL     1      -6.901  -2.729   0.281  0.00  0.00    +0.129 A 
BRANCH   7   8
ATOM      8  O   UNL     1      -6.694  -2.433  -1.030  0.00  0.00    -0.506 OA
ATOM      9  H   UNL     1      -7.100  -3.060  -1.643  0.00  0.00    +0.292 HD
ENDBRANCH   7   8
BRANCH   5  10
ATOM     10  O   UNL     1      -9.307  -2.022   2.922  0.00  0.00    -0.507 OA
ATOM     11  H   UNL     1      -9.157  -1.163   3.340  0.00  0.00    +0.292 HD
ENDBRANCH   5  10
BRANCH   3  12
ATOM     12  O   UNL     1      -5.329  -4.627   2.963  0.00  0.00    -0.506 OA
ATOM     13  H   UNL     1      -4.656  -4.137   3.455  0.00  0.00    +0.292 HD
ENDBRANCH   3  12
ENDBRANCH   1   2
BRANCH   1  15
ATOM     14  N   UNL     1      -3.247  -2.167   0.236  0.00  0.00    -0.313 N 
ATOM     15  C   UNL     1      -3.558  -3.384   0.724  0.00  0.00    +0.239 C 
ATOM     16  O   UNL     1      -2.841  -3.909   1.549  0.00  0.00    -0.273 OA
ATOM     17  H   UNL     1      -3.820  -1.747  -0.424  0.00  0.00    +0.149 HD
BRANCH  14  18
ATOM     18  C   UNL     1      -2.041  -1.477   0.704  0.00  0.00    +0.104 C 
BRANCH  18  19
ATOM     19  C   UNL     1      -1.922  -0.125  -0.001  0.00  0.00    +0.018 C 
BRANCH  19  21
ATOM     20  C   UNL     1      -0.543   1.948  -0.218  0.00  0.00    +0.004 C 
ATOM     21  C   UNL     1      -0.663   0.595   0.487  0.00  0.00    -0.002 C 
ENDBRANCH  19  21
ENDBRANCH  18  19
ENDBRANCH  14  18
ENDBRANCH   1  15
BRANCH   1  22
ATOM     22  N   UNL     1      -4.680  -5.527   0.522  0.00  0.00    -0.250 N 
ATOM     23  C   UNL     1      -5.736  -6.341   0.325  0.00  0.00    +0.245 C 
ATOM     24  O   UNL     1      -5.681  -7.504   0.676  0.00  0.00    -0.270 OA
BRANCH  22  25
ATOM     25  C   UNL     1      -3.471  -6.050   0.993  0.00  0.00    +0.056 A 
ATOM     26  C   UNL     1      -3.336  -6.391   2.332  0.00  0.00    +0.025 A 
ATOM     27  C   UNL     1      -2.141  -6.908   2.794  0.00  0.00    +0.002 A 
ATOM     28  C   UNL     1      -1.081  -7.087   1.925  0.00  0.00    +0.002 A 
ATOM     29  C   UNL     1      -1.211  -6.748   0.591  0.00  0.00    +0.022 A 
ATOM     30  C   UNL     1      -2.406  -6.236   0.120  0.00  0.00    +0.062 A 
ATOM     31 CL   UNL     1      -2.572  -5.818  -1.556  0.00  0.00    -0.082 Cl
ENDBRANCH  22  25
BRANCH  23  32
ATOM     32  C   UNL     1      -6.955  -5.822  -0.315  0.00  0.00    +0.066 C 
ATOM     33  C   UNL     1      -8.035  -6.593  -0.410  0.00  0.00    -0.071 C 
ATOM     34  C   UNL     1      -7.957  -8.050  -0.033  0.00  0.00    +0.039 C 
ATOM     35  C   UNL     1      -9.336  -6.009  -0.896  0.00  0.00    +0.039 C 
ENDBRANCH  23  32
ENDBRANCH   1  22
TORSDOF 11
