REMARK  Name = ZINC38905809
REMARK  4 active torsions:
REMARK  status: ('A' for Active; 'I' for Inactive)
REMARK    1  A    between atoms: C_4  and  N_7
REMARK    2  A    between atoms: N_7  and  C_8
REMARK    3  A    between atoms: C_8  and  C_9
REMARK    4  A    between atoms: C_21  and  C_23
REMARK                            x       y       z     vdW  Elec       q    Type
REMARK                         _______ _______ _______ _____ _____    ______ ____
ROOT
ATOM      1  N   UNL     1       3.603  -0.544   0.541  0.00  0.00    -0.266 N 
ATOM      2  C   UNL     1       4.684   0.094   0.049  0.00  0.00    +0.251 C 
ATOM      3  O   UNL     1       4.565   1.201  -0.440  0.00  0.00    -0.270 OA
ENDROOT
BRANCH   2   4
ATOM      4  C   UNL     1       6.011  -0.552   0.103  0.00  0.00    +0.037 A 
ATOM      5  C   UNL     1       6.112  -1.943   0.159  0.00  0.00    +0.014 A 
ATOM      6  C   UNL     1       7.354  -2.540   0.210  0.00  0.00    +0.021 A 
ATOM      7  C   UNL     1       8.500  -1.762   0.205  0.00  0.00    +0.041 A 
ATOM      8  C   UNL     1       8.407  -0.381   0.149  0.00  0.00    +0.021 A 
ATOM      9  C   UNL     1       7.170   0.227   0.092  0.00  0.00    +0.014 A 
ATOM     10 CL   UNL     1      10.061  -2.521   0.269  0.00  0.00    -0.084 Cl
ENDBRANCH   2   4
BRANCH   1  14
ATOM     11  C   UNL     1      -0.119   1.325   0.498  0.00  0.00    +0.000 A 
ATOM     12  C   UNL     1       0.944   1.888  -0.185  0.00  0.00    +0.002 A 
ATOM     13  C   UNL     1       2.179   1.271  -0.172  0.00  0.00    +0.023 A 
ATOM     14  C   UNL     1       2.354   0.083   0.527  0.00  0.00    +0.037 A 
ATOM     15  C   UNL     1       1.284  -0.479   1.211  0.00  0.00    +0.023 A 
ATOM     16  C   UNL     1       0.051   0.143   1.195  0.00  0.00    +0.002 A 
ENDBRANCH   1  14
BRANCH   1  17
ATOM     17  C   UNL     1       3.738  -1.895   1.091  0.00  0.00    +0.131 C 
BRANCH  17  18
ATOM     18  C   UNL     1       3.394  -2.922   0.010  0.00  0.00    +0.116 C 
ATOM     19  C   UNL     1       3.754  -4.296   0.542  0.00  0.00    -0.003 C 
ATOM     20  C   UNL     1       2.756  -5.223   0.604  0.00  0.00    -0.007 A 
ATOM     21  C   UNL     1       3.017  -6.574   1.104  0.00  0.00    +0.009 A 
ATOM     22  C   UNL     1       1.993  -7.464   1.148  0.00  0.00    +0.001 A 
ATOM     23  C   UNL     1       0.709  -7.117   0.728  0.00  0.00    +0.002 A 
ATOM     24  C   UNL     1       0.403  -5.881   0.253  0.00  0.00    +0.024 A 
ATOM     25  C   UNL     1       1.391  -4.883   0.167  0.00  0.00    +0.040 A 
ATOM     26  N   UNL     1       1.079  -3.675  -0.299  0.00  0.00    -0.284 N 
ATOM     27  C   UNL     1       1.958  -2.694  -0.407  0.00  0.00    +0.226 C 
ATOM     28  O   UNL     1       1.614  -1.611  -0.840  0.00  0.00    -0.275 OA
ATOM     29  H   UNL     1       0.163  -3.507  -0.572  0.00  0.00    +0.155 HD
ENDBRANCH  17  18
ENDBRANCH   1  17
TORSDOF 4
