REMARK  Name = ZINC15946070
REMARK  11 active torsions:
REMARK  status: ('A' for Active; 'I' for Inactive)
REMARK    1  A    between atoms: C_1  and  C_2
REMARK    2  A    between atoms: C_5  and  N_9
REMARK    3  A    between atoms: C_6  and  C_8
REMARK    4  A    between atoms: C_10  and  C_12
REMARK    5  A    between atoms: C_16  and  N_17
REMARK    6  A    between atoms: C_18  and  C_20
REMARK    7  A    between atoms: C_20  and  N_76
REMARK    8  A    between atoms: C_28  and  C_32
REMARK    9  A    between atoms: C_32  and  C_33
REMARK   10  A    between atoms: C_32  and  C_34
REMARK   11  A    between atoms: C_32  and  C_35
REMARK                            x       y       z     vdW  Elec       q    Type
REMARK                         _______ _______ _______ _____ _____    ______ ____
ROOT
ATOM      1  C   UNL     1      -1.135  -5.435   4.767  0.00  0.00    +0.069 A 
ATOM      2  C   UNL     1      -0.743  -5.810   6.115  0.00  0.00    -0.023 A 
ATOM      3  C   UNL     1      -0.087  -4.856   6.810  0.00  0.00    -0.004 A 
ATOM      4  S   UNL     1       0.023  -3.482   5.699  0.00  0.00    -0.077 S 
ATOM      5  C   UNL     1      -0.792  -4.163   4.330  0.00  0.00    +0.084 A 
ATOM      6  C   UNL     1       0.429  -4.954   8.212  0.00  0.00    +0.046 C 
ATOM      7  C   UNL     1      -0.225  -6.170   8.884  0.00  0.00    -0.000 C 
ATOM      8  C   UNL     1      -0.119  -7.371   7.941  0.00  0.00    +0.009 C 
ATOM      9  C   UNL     1      -1.040  -7.169   6.736  0.00  0.00    +0.037 C 
ENDROOT
BRANCH   1  11
ATOM     10  N   UNL     1      -3.208  -6.382   3.905  0.00  0.00    -0.281 N 
ATOM     11  C   UNL     1      -1.861  -6.367   3.899  0.00  0.00    +0.251 C 
ATOM     12  O   UNL     1      -1.246  -7.126   3.172  0.00  0.00    -0.270 OA
ATOM     13  H   UNL     1      -3.699  -5.726   4.424  0.00  0.00    +0.155 HD
BRANCH  10  18
ATOM     14  C   UNL     1      -6.013 -10.285   0.892  0.00  0.00    +0.044 C 
ATOM     15  C   UNL     1      -5.268  -9.248   1.692  0.00  0.00    -0.050 A 
ATOM     16  C   UNL     1      -4.061  -8.757   1.230  0.00  0.00    +0.005 A 
ATOM     17  C   UNL     1      -3.375  -7.806   1.961  0.00  0.00    +0.024 A 
ATOM     18  C   UNL     1      -3.900  -7.345   3.162  0.00  0.00    +0.037 A 
ATOM     19  C   UNL     1      -5.110  -7.845   3.625  0.00  0.00    -0.029 A 
ATOM     20  C   UNL     1      -5.793  -8.791   2.886  0.00  0.00    +0.008 A 
ATOM     21  C   UNL     1      -5.679  -7.351   4.930  0.00  0.00    +0.045 C 
ENDBRANCH  10  18
ENDBRANCH   1  11
BRANCH   5  22
ATOM     22  N   UNL     1      -1.046  -3.577   3.099  0.00  0.00    -0.281 N 
ATOM     23  C   UNL     1      -0.637  -2.316   2.856  0.00  0.00    +0.201 C 
ATOM     24  O   UNL     1      -0.048  -1.693   3.714  0.00  0.00    -0.278 OA
ATOM     25  H   UNL     1      -1.517  -4.075   2.413  0.00  0.00    +0.155 HD
BRANCH  23  26
ATOM     26  C   UNL     1      -0.912  -1.679   1.518  0.00  0.00    +0.019 C 
BRANCH  26  33
ATOM     27  C   UNL     1       1.144  -0.394   1.617  0.00  0.00    -0.078 C 
ATOM     28  C   UNL     1       1.728   0.786   0.880  0.00  0.00    -0.019 C 
ATOM     29  C   UNL     1       1.989   1.971   1.826  0.00  0.00    -0.002 C 
ATOM     30  C   UNL     1       0.847   2.159   2.844  0.00  0.00    -0.002 C 
ATOM     31  C   UNL     1      -0.516   1.981   2.225  0.00  0.00    -0.019 C 
ATOM     32  C   UNL     1      -0.960   0.512   2.400  0.00  0.00    -0.078 C 
ATOM     33  N   UNL     1      -0.339  -0.324   1.434  0.00  0.00    +0.385 N 
ATOM     34  H   UNL     1      -0.533   0.062   0.502  0.00  0.00    -0.081 HD
ENDBRANCH  26  33
ENDBRANCH  23  26
ENDBRANCH   5  22
BRANCH   7  35
ATOM     35  C   UNL     1       0.499  -6.482  10.196  0.00  0.00    -0.035 C 
ATOM     36  C   UNL     1       0.406  -5.273  11.130  0.00  0.00    +0.011 C 
ATOM     37  C   UNL     1      -0.155  -7.693  10.863  0.00  0.00    +0.011 C 
ATOM     38  C   UNL     1       1.969  -6.790   9.906  0.00  0.00    +0.011 C 
ENDBRANCH   7  35
TORSDOF 6
