REMARK  Name = ZINC34095348
REMARK  6 active torsions:
REMARK  status: ('A' for Active; 'I' for Inactive)
REMARK    1  A    between atoms: C_1  and  C_2
REMARK    2  A    between atoms: C_4  and  C_39
REMARK    3  A    between atoms: C_6  and  N_8
REMARK    4  A    between atoms: C_16  and  C_22
REMARK    5  A    between atoms: C_27  and  C_32
REMARK    6  A    between atoms: C_29  and  C_31
REMARK                            x       y       z     vdW  Elec       q    Type
REMARK                         _______ _______ _______ _____ _____    ______ ____
ROOT
ATOM      1  N   UNL     1       0.052  -2.797   2.393  0.00  0.00    -0.268 N 
ATOM      2  C   UNL     1       0.044  -2.179   3.756  0.00  0.00    +0.153 C 
ATOM      3  C   UNL     1       0.667  -3.257   4.587  0.00  0.00    +0.116 C 
ATOM      4  C   UNL     1       2.154  -3.417   4.327  0.00  0.00    +0.008 C 
ATOM      5  C   UNL     1       2.558  -4.388   5.133  0.00  0.00    +0.004 C 
ATOM      6  C   UNL     1       1.287  -4.866   5.847  0.00  0.00    +0.155 C 
ATOM      7  O   UNL     1       0.514  -3.597   5.945  0.00  0.00    -0.359 OA
ATOM      8  C   UNL     1       0.536  -5.647   4.700  0.00  0.00    +0.127 C 
ATOM      9  C   UNL     1      -0.094  -4.481   3.937  0.00  0.00    +0.128 C 
ATOM     10  C   UNL     1       0.071  -4.166   2.507  0.00  0.00    +0.227 C 
ATOM     11  O   UNL     1       0.200  -4.965   1.603  0.00  0.00    -0.275 OA
ENDROOT
BRANCH   8  12
ATOM     12  C   UNL     1       1.507  -6.417   3.844  0.00  0.00    +0.256 C 
ATOM     13  O   UNL     1       2.019  -5.887   2.881  0.00  0.00    -0.270 OA
ATOM     14  N   UNL     1       1.806  -7.696   4.147  0.00  0.00    -0.179 N 
ATOM     15  C   UNL     1       2.679  -8.499   3.447  0.00  0.00    +0.169 A 
ATOM     16  C   UNL     1       2.693  -9.744   4.103  0.00  0.00    +0.072 A 
ATOM     17  C   UNL     1       3.501 -10.769   3.607  0.00  0.00    +0.070 A 
ATOM     18  C   UNL     1       4.260 -10.512   2.481  0.00  0.00    +0.036 A 
ATOM     19  C   UNL     1       4.196  -9.261   1.887  0.00  0.00    +0.041 A 
ATOM     20  N   UNL     1       3.427  -8.308   2.370  0.00  0.00    -0.232 NA
ATOM     21  C   UNL     1       5.025  -8.986   0.659  0.00  0.00    +0.065 C 
ATOM     22  C   UNL     1       1.772  -9.626   5.237  0.00  0.00    +0.149 A 
ATOM     23  N   UNL     1       1.283  -8.415   5.227  0.00  0.00    -0.147 NA
ATOM     24  N   UNL     1       1.476 -10.624   6.163  0.00  0.00    -0.341 N 
ATOM     25  H   UNL     1       1.896 -11.495   6.088  0.00  0.00    +0.144 HD
ATOM     26  H   UNL     1       0.849 -10.448   6.882  0.00  0.00    +0.144 HD
BRANCH  17  27
ATOM     27  C   UNL     1       3.545 -12.117   4.281  0.00  0.00    +0.418 C 
ATOM     28  F   UNL     1       4.426 -12.955   3.589  0.00  0.00    -0.166 F 
ATOM     29  F   UNL     1       3.985 -11.964   5.600  0.00  0.00    -0.166 F 
ATOM     30  F   UNL     1       2.265 -12.681   4.278  0.00  0.00    -0.166 F 
ENDBRANCH  17  27
ENDBRANCH   8  12
BRANCH   1  36
ATOM     31  C   UNL     1      -0.018   1.503   0.010  0.00  0.00    +0.044 C 
ATOM     32  C   UNL     1       0.002  -0.004   0.002  0.00  0.00    -0.048 A 
ATOM     33  C   UNL     1       0.006  -0.688  -1.200  0.00  0.00    +0.006 A 
ATOM     34  C   UNL     1       0.025  -2.071  -1.212  0.00  0.00    -0.048 A 
ATOM     35  C   UNL     1       0.041  -2.773  -0.022  0.00  0.00    +0.027 A 
ATOM     36  C   UNL     1       0.037  -2.089   1.186  0.00  0.00    +0.037 A 
ATOM     37  C   UNL     1       0.023  -0.700   1.195  0.00  0.00    +0.027 A 
ATOM     38  C   UNL     1       0.028  -2.812  -2.524  0.00  0.00    +0.044 C 
ENDBRANCH   1  36
TORSDOF 3
