REMARK  Name = ZINC35789106
REMARK  14 active torsions:
REMARK  status: ('A' for Active; 'I' for Inactive)
REMARK    1  A    between atoms: C_1  and  C_2
REMARK    2  A    between atoms: C_3  and  C_21
REMARK    3  A    between atoms: C_4  and  O_13
REMARK    4  A    between atoms: N_5  and  C_7
REMARK    5  A    between atoms: O_13  and  C_14
REMARK    6  A    between atoms: C_21  and  N_22
REMARK    7  A    between atoms: N_22  and  C_23
REMARK    8  A    between atoms: N_22  and  C_36
REMARK    9  A    between atoms: C_23  and  C_24
REMARK   10  A    between atoms: C_24  and  C_26
REMARK   11  A    between atoms: C_24  and  O_35
REMARK   12  A    between atoms: C_26  and  O_27
REMARK   13  A    between atoms: O_27  and  C_28
REMARK   14  A    between atoms: C_28  and  C_29
REMARK                            x       y       z     vdW  Elec       q    Type
REMARK                         _______ _______ _______ _____ _____    ______ ____
ROOT
ATOM      1  C   UNL     1      -2.091   1.179  -0.540  0.00  0.00    +0.068 C 
ATOM      2  C   UNL     1      -1.535  -0.217  -0.417  0.00  0.00    +0.065 A 
ATOM      3  C   UNL     1      -1.103  -1.021  -1.476  0.00  0.00    +0.021 A 
ATOM      4  C   UNL     1      -0.674  -2.201  -0.957  0.00  0.00    +0.225 A 
ATOM      5  N   UNL     1      -0.834  -2.136   0.393  0.00  0.00    -0.200 N 
ATOM      6  N   UNL     1      -1.370  -0.879   0.700  0.00  0.00    -0.168 NA
ENDROOT
BRANCH   5   7
ATOM      7  C   UNL     1      -0.514  -3.144   1.312  0.00  0.00    +0.069 A 
ATOM      8  C   UNL     1      -0.811  -4.470   1.022  0.00  0.00    +0.028 A 
ATOM      9  C   UNL     1      -0.494  -5.461   1.930  0.00  0.00    +0.002 A 
ATOM     10  C   UNL     1       0.118  -5.135   3.127  0.00  0.00    +0.000 A 
ATOM     11  C   UNL     1       0.414  -3.816   3.418  0.00  0.00    +0.002 A 
ATOM     12  C   UNL     1       0.106  -2.821   2.512  0.00  0.00    +0.028 A 
ENDBRANCH   5   7
BRANCH   4  13
ATOM     13  O   UNL     1      -0.177  -3.253  -1.656  0.00  0.00    -0.435 OA
BRANCH  13  14
ATOM     14  C   UNL     1      -1.059  -4.149  -2.174  0.00  0.00    +0.165 A 
ATOM     15  C   UNL     1      -2.423  -3.943  -2.031  0.00  0.00    +0.049 A 
ATOM     16  C   UNL     1      -3.318  -4.854  -2.559  0.00  0.00    +0.004 A 
ATOM     17  C   UNL     1      -2.855  -5.972  -3.228  0.00  0.00    +0.003 A 
ATOM     18  C   UNL     1      -1.496  -6.181  -3.373  0.00  0.00    +0.042 A 
ATOM     19  C   UNL     1      -0.596  -5.269  -2.852  0.00  0.00    +0.165 A 
ATOM     20  F   UNL     1       0.732  -5.471  -2.997  0.00  0.00    -0.202 F 
ENDBRANCH  13  14
ENDBRANCH   4  13
BRANCH   3  21
ATOM     21  C   UNL     1      -1.113  -0.645  -2.936  0.00  0.00    -0.035 C 
BRANCH  21  22
ATOM     22  N   UNL     1       0.162  -0.003  -3.284  0.00  0.00    +0.386 N 
ATOM     23  H   UNL     1       0.324   0.779  -2.669  0.00  0.00    -0.081 HD
BRANCH  22  24
ATOM     24  C   UNL     1       1.255  -0.974  -3.140  0.00  0.00    -0.068 C 
ATOM     25  C   UNL     1       2.210  -0.792  -1.959  0.00  0.00    -0.017 C 
ATOM     26  C   UNL     1       2.680  -0.474  -3.380  0.00  0.00    -0.017 C 
ENDBRANCH  22  24
BRANCH  22  27
ATOM     27  C   UNL     1       0.108   0.470  -4.674  0.00  0.00    -0.044 C 
BRANCH  27  28
ATOM     28  C   UNL     1      -0.228  -0.702  -5.599  0.00  0.00    +0.124 C 
BRANCH  28  29
ATOM     29  O   UNL     1       0.856  -1.633  -5.601  0.00  0.00    -0.391 OA
ATOM     30  H   UNL     1       1.695  -1.260  -5.905  0.00  0.00    +0.210 HD
ENDBRANCH  28  29
BRANCH  28  31
ATOM     31  C   UNL     1      -0.455  -0.181  -7.020  0.00  0.00    +0.189 C 
BRANCH  31  32
ATOM     32  O   UNL     1      -0.881  -1.256  -7.859  0.00  0.00    -0.373 OA
BRANCH  32  33
ATOM     33  C   UNL     1      -1.123  -0.875  -9.215  0.00  0.00    +0.195 C 
BRANCH  33  34
ATOM     34  C   UNL     1      -1.565  -2.080 -10.004  0.00  0.00    -0.022 A 
ATOM     35  C   UNL     1      -0.626  -2.877 -10.632  0.00  0.00    +0.006 A 
ATOM     36  C   UNL     1      -1.032  -3.983 -11.357  0.00  0.00    +0.000 A 
ATOM     37  C   UNL     1      -2.376  -4.292 -11.452  0.00  0.00    +0.000 A 
ATOM     38  C   UNL     1      -3.314  -3.495 -10.823  0.00  0.00    +0.000 A 
ATOM     39  C   UNL     1      -2.908  -2.392 -10.095  0.00  0.00    +0.006 A 
ENDBRANCH  33  34
ENDBRANCH  32  33
ENDBRANCH  31  32
ENDBRANCH  28  31
ENDBRANCH  27  28
ENDBRANCH  22  27
ENDBRANCH  21  22
ENDBRANCH   3  21
TORSDOF 13
