REMARK  Name = ZINC63249507
REMARK  8 active torsions:
REMARK  status: ('A' for Active; 'I' for Inactive)
REMARK    1  A    between atoms: C_1  and  C_2
REMARK    2  A    between atoms: C_5  and  C_8
REMARK    3  A    between atoms: N_10  and  C_11
REMARK    4  A    between atoms: C_11  and  C_18
REMARK    5  A    between atoms: C_12  and  C_13
REMARK    6  A    between atoms: N_20  and  C_21
REMARK    7  A    between atoms: C_21  and  C_22
REMARK    8  A    between atoms: C_22  and  C_23
REMARK                            x       y       z     vdW  Elec       q    Type
REMARK                         _______ _______ _______ _____ _____    ______ ____
ROOT
ATOM      1  C   UNL     1      -0.016  -6.329   1.311  0.00  0.00    +0.100 C 
ATOM      2  C   UNL     1       0.012  -7.078   0.177  0.00  0.00    +0.074 C 
ENDROOT
BRANCH   2   3
ATOM      3  C   UNL     1      -0.030  -6.447  -1.090  0.00  0.00    +0.130 A 
ATOM      4  C   UNL     1      -0.112  -7.081  -2.312  0.00  0.00    +0.049 A 
ATOM      5  C   UNL     1      -0.128  -6.071  -3.287  0.00  0.00    +0.042 A 
ATOM      6  C   UNL     1      -0.056  -4.888  -2.638  0.00  0.00    +0.195 A 
ATOM      7  O   UNL     1      -0.004  -5.117  -1.317  0.00  0.00    -0.463 OA
ENDBRANCH   2   3
BRANCH   1  10
ATOM      8  C   UNL     1       1.015  -4.246   1.821  0.00  0.00    +0.248 C 
ATOM      9  O   UNL     1       1.936  -4.843   2.344  0.00  0.00    -0.270 OA
ATOM     10  N   UNL     1       0.018  -4.932   1.228  0.00  0.00    -0.277 N 
ATOM     11  H   UNL     1      -0.676  -4.458   0.745  0.00  0.00    +0.155 HD
BRANCH   8  16
ATOM     12  C   UNL     1       0.916   1.507   1.871  0.00  0.00    +0.044 C 
ATOM     13  C   UNL     1       0.942   0.000   1.858  0.00  0.00    -0.050 A 
ATOM     14  C   UNL     1       1.934  -0.677   2.544  0.00  0.00    +0.004 A 
ATOM     15  C   UNL     1       1.963  -2.057   2.536  0.00  0.00    +0.013 A 
ATOM     16  C   UNL     1       0.990  -2.768   1.834  0.00  0.00    +0.037 A 
ATOM     17  C   UNL     1      -0.009  -2.078   1.143  0.00  0.00    +0.013 A 
ATOM     18  C   UNL     1      -0.029  -0.699   1.163  0.00  0.00    +0.004 A 
ENDBRANCH   8  16
ENDBRANCH   1  10
BRANCH   1  19
ATOM     19  C   UNL     1      -0.082  -6.984   2.620  0.00  0.00    +0.258 C 
ATOM     20  O   UNL     1      -0.107  -6.313   3.636  0.00  0.00    -0.269 OA
ATOM     21  N   UNL     1      -0.115  -8.329   2.700  0.00  0.00    -0.310 N 
ATOM     22  H   UNL     1      -0.095  -8.863   1.891  0.00  0.00    +0.149 HD
BRANCH  21  23
ATOM     23  C   UNL     1      -0.181  -8.984   4.009  0.00  0.00    +0.109 C 
BRANCH  23  24
ATOM     24  C   UNL     1      -0.207 -10.502   3.819  0.00  0.00    +0.052 C 
BRANCH  24  25
ATOM     25  C   UNL     1      -0.275 -11.175   5.166  0.00  0.00    -0.040 C 
ATOM     26  C   UNL     1      -1.387 -11.604   5.806  0.00  0.00    -0.001 A 
ATOM     27  C   UNL     1      -2.811 -11.572   5.453  0.00  0.00    +0.010 A 
ATOM     28  C   UNL     1      -3.712 -12.090   6.318  0.00  0.00    +0.001 A 
ATOM     29  C   UNL     1      -3.321 -12.656   7.539  0.00  0.00    +0.002 A 
ATOM     30  C   UNL     1      -2.032 -12.721   7.933  0.00  0.00    +0.026 A 
ATOM     31  C   UNL     1      -1.000 -12.207   7.101  0.00  0.00    +0.043 A 
ATOM     32  N   UNL     1       0.301 -12.153   7.256  0.00  0.00    -0.380 N 
ATOM     33  C   UNL     1       0.887 -11.514   6.072  0.00  0.00    +0.144 C 
ATOM     34  H   UNL     1       0.794 -12.483   8.023  0.00  0.00    +0.160 HD
ENDBRANCH  24  25
ENDBRANCH  23  24
ENDBRANCH  21  23
ENDBRANCH   1  19
TORSDOF 7
