REMARK  Name = ZINC04820955
REMARK  10 active torsions:
REMARK  status: ('A' for Active; 'I' for Inactive)
REMARK    1  A    between atoms: C_1  and  C_2
REMARK    2  A    between atoms: C_2  and  C_3
REMARK    3  A    between atoms: C_2  and  C_4
REMARK    4  A    between atoms: C_2  and  C_5
REMARK    5  A    between atoms: C_12  and  N_16
REMARK    6  A    between atoms: C_13  and  C_14
REMARK    7  A    between atoms: C_17  and  C_19
REMARK    8  A    between atoms: C_19  and  N_47
REMARK    9  A    between atoms: C_20  and  N_47
REMARK   10  A    between atoms: C_21  and  N_47
REMARK                            x       y       z     vdW  Elec       q    Type
REMARK                         _______ _______ _______ _____ _____    ______ ____
ROOT
ATOM      1  C   UNL     1      -0.117   6.375   0.416  0.00  0.00    -0.000 C 
ATOM      2  C   UNL     1      -1.365   6.051  -0.410  0.00  0.00    +0.009 C 
ATOM      3  C   UNL     1      -1.959   4.717   0.045  0.00  0.00    +0.037 C 
ATOM      4  C   UNL     1      -0.861   3.661   0.030  0.00  0.00    -0.018 A 
ATOM      5  C   UNL     1       0.444   4.013   0.019  0.00  0.00    -0.004 A 
ATOM      6  S   UNL     1       1.326   2.479   0.003  0.00  0.00    -0.077 S 
ATOM      7  C   UNL     1      -0.017   1.384   0.010  0.00  0.00    +0.090 A 
ATOM      8  C   UNL     1      -1.115   2.231   0.019  0.00  0.00    +0.084 A 
ATOM      9  C   UNL     1       1.004   5.402   0.022  0.00  0.00    +0.047 C 
ENDROOT
BRANCH   1  11
ATOM     10  C   UNL     1       0.633   7.965  -1.358  0.00  0.00    +0.011 C 
ATOM     11  C   UNL     1       0.327   7.811   0.133  0.00  0.00    -0.035 C 
ATOM     12  C   UNL     1      -0.791   8.778   0.527  0.00  0.00    +0.011 C 
ATOM     13  C   UNL     1       1.583   8.126   0.947  0.00  0.00    +0.011 C 
ENDBRANCH   1  11
BRANCH   7  14
ATOM     14  N   UNL     1       0.002  -0.004   0.002  0.00  0.00    -0.281 N 
ATOM     15  C   UNL     1       1.178  -0.662  -0.012  0.00  0.00    +0.201 C 
ATOM     16  O   UNL     1       2.220  -0.041  -0.018  0.00  0.00    -0.278 OA
ATOM     17  H   UNL     1      -0.831  -0.500   0.007  0.00  0.00    +0.155 HD
BRANCH  15  18
ATOM     18  C   UNL     1       1.199  -2.169  -0.021  0.00  0.00    +0.018 C 
BRANCH  18  21
ATOM     19  C   UNL     1       3.279  -2.288   1.213  0.00  0.00    -0.096 C 
ATOM     20  C   UNL     1       2.654  -4.086  -0.282  0.00  0.00    -0.096 C 
ATOM     21  N   UNL     1       2.604  -2.626  -0.057  0.00  0.00    +0.382 N 
ATOM     22  H   UNL     1       3.088  -2.153  -0.829  0.00  0.00    -0.082 HD
ENDBRANCH  18  21
ENDBRANCH  15  18
ENDBRANCH   7  14
BRANCH   8  23
ATOM     23  C   UNL     1      -2.451   1.714   0.021  0.00  0.00    +0.102 C 
ATOM     24  N   UNL     1      -3.510   1.304   0.023  0.00  0.00    -0.191 NA
ENDBRANCH   8  23
TORSDOF 5
