REMARK  Name = ZINC14967135
REMARK  9 active torsions:
REMARK  status: ('A' for Active; 'I' for Inactive)
REMARK    1  A    between atoms: C_1  and  C_2
REMARK    2  A    between atoms: C_4  and  C_8
REMARK    3  A    between atoms: N_6  and  C_7
REMARK    4  A    between atoms: N_10  and  C_11
REMARK    5  A    between atoms: C_11  and  C_12
REMARK    6  A    between atoms: C_17  and  C_23
REMARK    7  A    between atoms: C_27  and  C_29
REMARK    8  A    between atoms: C_29  and  O_31
REMARK    9  A    between atoms: O_31  and  C_32
REMARK                            x       y       z     vdW  Elec       q    Type
REMARK                         _______ _______ _______ _____ _____    ______ ____
ROOT
ATOM      1  C   UNL     1      -0.019   1.526   0.010  0.00  0.00    +0.195 C 
ATOM      2  C   UNL     1      -0.587   2.059   1.347  0.00  0.00    +0.085 C 
ATOM      3  C   UNL     1       0.257   3.298   1.575  0.00  0.00    -0.000 A 
ATOM      4  C   UNL     1       0.099   4.380   2.408  0.00  0.00    +0.016 A 
ATOM      5  C   UNL     1       1.040   5.409   2.398  0.00  0.00    -0.016 A 
ATOM      6  C   UNL     1       2.135   5.330   1.540  0.00  0.00    +0.032 A 
ATOM      7  C   UNL     1       2.289   4.240   0.711  0.00  0.00    +0.083 A 
ATOM      8  C   UNL     1       1.351   3.207   0.723  0.00  0.00    +0.143 A 
ATOM      9  O   UNL     1       1.319   2.053   0.001  0.00  0.00    -0.485 OA
ATOM     10 CL   UNL     1       3.657   4.153  -0.354  0.00  0.00    -0.080 Cl
ENDROOT
BRANCH   5  11
ATOM     11  C   UNL     1       0.876   6.580   3.295  0.00  0.00    -0.017 A 
ATOM     12  C   UNL     1      -0.225   6.658   4.148  0.00  0.00    +0.008 A 
ATOM     13  C   UNL     1      -0.378   7.745   4.987  0.00  0.00    +0.001 A 
ATOM     14  C   UNL     1       0.552   8.765   4.981  0.00  0.00    +0.015 A 
ATOM     15  C   UNL     1       1.657   8.701   4.128  0.00  0.00    +0.060 A 
ATOM     16  C   UNL     1       1.817   7.604   3.283  0.00  0.00    +0.023 A 
BRANCH  15  17
ATOM     17  C   UNL     1       2.651   9.794   4.121  0.00  0.00    +0.339 C 
ATOM     18  O   UNL     1       3.611   9.737   3.378  0.00  0.00    -0.245 OA
BRANCH  17  19
ATOM     19  O   UNL     1       2.494  10.853   4.938  0.00  0.00    -0.464 OA
ATOM     20  C   UNL     1       3.510  11.889   4.878  0.00  0.00    +0.280 C 
ENDBRANCH  17  19
ENDBRANCH  15  17
ENDBRANCH   5  11
BRANCH   1  21
ATOM     21  C   UNL     1       0.002  -0.004   0.002  0.00  0.00    +0.149 C 
BRANCH  21  24
ATOM     22  C   UNL     1       0.791  -1.799  -1.445  0.00  0.00    +0.264 C 
ATOM     23  O   UNL     1       0.368  -2.599  -0.633  0.00  0.00    -0.268 OA
ATOM     24  N   UNL     1       0.657  -0.477  -1.220  0.00  0.00    -0.307 N 
ATOM     25  H   UNL     1       0.995   0.162  -1.868  0.00  0.00    +0.149 HD
BRANCH  22  29
ATOM     26  C   UNL     1       2.749  -4.750  -5.070  0.00  0.00    +0.065 C 
ATOM     27  C   UNL     1       2.299  -3.572  -4.245  0.00  0.00    +0.037 A 
ATOM     28  C   UNL     1       1.669  -3.624  -3.048  0.00  0.00    +0.057 A 
ATOM     29  C   UNL     1       1.451  -2.276  -2.677  0.00  0.00    +0.147 A 
ATOM     30  N   UNL     1       1.954  -1.526  -3.638  0.00  0.00    -0.167 NA
ATOM     31  N   UNL     1       2.453  -2.268  -4.560  0.00  0.00    -0.271 N 
ATOM     32  C   UNL     1       3.096  -1.771  -5.779  0.00  0.00    +0.172 C 
ENDBRANCH  22  29
ENDBRANCH  21  24
ENDBRANCH   1  21
TORSDOF 6
