REMARK  Name = ZINC39353151
REMARK  6 active torsions:
REMARK  status: ('A' for Active; 'I' for Inactive)
REMARK    1  A    between atoms: C_1  and  O_2
REMARK    2  A    between atoms: O_2  and  C_3
REMARK    3  A    between atoms: C_4  and  C_11
REMARK    4  A    between atoms: N_12  and  N_13
REMARK    5  A    between atoms: C_14  and  C_16
REMARK    6  A    between atoms: C_19  and  C_22
REMARK                            x       y       z     vdW  Elec       q    Type
REMARK                         _______ _______ _______ _____ _____    ______ ____
ROOT
ATOM      1  N   UNL     1       0.614   0.298   3.715  0.00  0.00    -0.205 N 
ATOM      2  C   UNL     1       1.806   0.926   3.714  0.00  0.00    +0.263 C 
ATOM      3  O   UNL     1       2.340   1.212   2.663  0.00  0.00    -0.271 OA
ATOM      4  H   UNL     1       0.187   0.069   4.555  0.00  0.00    +0.177 HD
ENDROOT
BRANCH   2   5
ATOM      5  C   UNL     1       2.477   1.272   5.019  0.00  0.00    +0.240 C 
ATOM      6  C   UNL     1       1.914   2.564   5.584  0.00  0.00    +0.041 C 
ATOM      7  C   UNL     1       2.978   3.389   5.623  0.00  0.00    +0.092 C 
ATOM      8  N   UNL     1       4.087   2.756   5.157  0.00  0.00    -0.153 NA
ATOM      9  N   UNL     1       3.899   1.586   4.805  0.00  0.00    -0.170 NA
BRANCH   7  10
ATOM     10  C   UNL     1       2.944   4.792   6.106  0.00  0.00    +0.002 A 
ATOM     11  C   UNL     1       1.751   5.343   6.568  0.00  0.00    +0.010 A 
ATOM     12  C   UNL     1       1.725   6.649   7.016  0.00  0.00    +0.001 A 
ATOM     13  C   UNL     1       2.881   7.409   7.007  0.00  0.00    +0.000 A 
ATOM     14  C   UNL     1       4.068   6.866   6.549  0.00  0.00    +0.001 A 
ATOM     15  C   UNL     1       4.106   5.561   6.103  0.00  0.00    +0.010 A 
ENDBRANCH   7  10
ENDBRANCH   2   5
BRANCH   1  17
ATOM     16  C   UNL     1      -1.158  -0.628   2.502  0.00  0.00    +0.142 C 
ATOM     17  N   UNL     1      -0.009  -0.024   2.502  0.00  0.00    -0.188 NA
BRANCH  16  19
ATOM     18  C   UNL     1      -1.200  -0.637   0.010  0.00  0.00    +0.143 A 
ATOM     19  C   UNL     1      -1.813  -0.967   1.226  0.00  0.00    +0.038 A 
ATOM     20  C   UNL     1      -3.049  -1.617   1.223  0.00  0.00    +0.028 A 
ATOM     21  C   UNL     1      -3.657  -1.932   0.025  0.00  0.00    +0.020 A 
ATOM     22  C   UNL     1      -3.047  -1.605  -1.175  0.00  0.00    +0.034 A 
ATOM     23  C   UNL     1      -1.827  -0.955  -1.184  0.00  0.00    +0.061 A 
ATOM     24 BR   UNL     1      -1.008  -0.507  -2.829  0.00  0.00    -0.046 Br
ATOM     25 BR   UNL     1      -5.330  -2.813   0.021  0.00  0.00    -0.050 Br
BRANCH  18  27
ATOM     26  C   UNL     1      -0.017   1.425   0.010  0.00  0.00    +0.277 C 
ATOM     27  O   UNL     1       0.002  -0.004   0.002  0.00  0.00    -0.493 OA
ENDBRANCH  18  27
ENDBRANCH  16  19
ENDBRANCH   1  17
TORSDOF 5
