REMARK  Name = ZINC35569266
REMARK  5 active torsions:
REMARK  status: ('A' for Active; 'I' for Inactive)
REMARK    1  A    between atoms: C_14  and  C_15
REMARK    2  A    between atoms: C_17  and  C_29
REMARK    3  A    between atoms: C_19  and  C_24
REMARK    4  A    between atoms: C_19  and  O_28
REMARK    5  A    between atoms: C_29  and  C_31
REMARK                            x       y       z     vdW  Elec       q    Type
REMARK                         _______ _______ _______ _____ _____    ______ ____
ROOT
ATOM      1  C   UNL     1       4.985   0.276  -0.045  0.00  0.00    +0.121 C 
ATOM      2  C   UNL     1       5.606   0.241  -1.445  0.00  0.00    +0.145 C 
ATOM      3  C   UNL     1       6.952   0.972  -1.401  0.00  0.00    +0.243 C 
ATOM      4  N   UNL     1       7.793   0.366  -0.367  0.00  0.00    -0.264 N 
ATOM      5  C   UNL     1       7.258  -0.217   0.715  0.00  0.00    +0.302 C 
ATOM      6  O   UNL     1       8.002  -0.696   1.549  0.00  0.00    -0.253 OA
ATOM      7  N   UNL     1       5.933  -0.291   0.916  0.00  0.00    -0.292 N 
ATOM      8  H   UNL     1       8.758   0.387  -0.467  0.00  0.00    +0.153 HD
ATOM      9  H   UNL     1       5.596  -0.730   1.713  0.00  0.00    +0.151 HD
ENDROOT
BRANCH   1  23
ATOM     10  C   UNL     1      -0.016   1.353   0.009  0.00  0.00    +0.001 A 
ATOM     11  C   UNL     1       1.160   2.103   0.002  0.00  0.00    +0.001 A 
ATOM     12  C   UNL     1       2.383   1.513  -0.013  0.00  0.00    +0.009 A 
ATOM     13  C   UNL     1       2.476   0.104  -0.021  0.00  0.00    -0.012 A 
ATOM     14  C   UNL     1       1.239  -0.684  -0.013  0.00  0.00    -0.017 A 
ATOM     15  C   UNL     1       0.002  -0.004   0.002  0.00  0.00    +0.008 A 
ATOM     16  C   UNL     1       1.295  -2.076  -0.022  0.00  0.00    +0.017 A 
ATOM     17  C   UNL     1       2.534  -2.715  -0.038  0.00  0.00    -0.017 A 
ATOM     18  C   UNL     1       2.627  -4.123  -0.047  0.00  0.00    +0.008 A 
ATOM     19  C   UNL     1       3.850  -4.713  -0.063  0.00  0.00    +0.001 A 
ATOM     20  C   UNL     1       5.027  -3.963  -0.070  0.00  0.00    +0.001 A 
ATOM     21  C   UNL     1       5.008  -2.606  -0.061  0.00  0.00    +0.009 A 
ATOM     22  C   UNL     1       3.770  -1.927  -0.045  0.00  0.00    -0.012 A 
ATOM     23  C   UNL     1       3.715  -0.534  -0.037  0.00  0.00    -0.011 A 
ENDBRANCH   1  23
BRANCH   3  24
ATOM     24  C   UNL     1       7.645   0.852  -2.759  0.00  0.00    +0.436 C 
ATOM     25  F   UNL     1       6.837   1.425  -3.747  0.00  0.00    -0.166 F 
ATOM     26  F   UNL     1       8.874   1.520  -2.717  0.00  0.00    -0.166 F 
ATOM     27  F   UNL     1       7.858  -0.499  -3.056  0.00  0.00    -0.166 F 
ENDBRANCH   3  24
BRANCH   3  28
ATOM     28  O   UNL     1       6.737   2.351  -1.093  0.00  0.00    -0.364 OA
ATOM     29  H   UNL     1       7.548   2.876  -1.049  0.00  0.00    +0.212 HD
ENDBRANCH   3  28
BRANCH   2  30
ATOM     30  C   UNL     1       4.686   0.926  -2.424  0.00  0.00    +0.179 C 
ATOM     31  O   UNL     1       3.966   1.829  -2.050  0.00  0.00    -0.291 OA
BRANCH  30  32
ATOM     32  C   UNL     1       4.662   0.517  -3.775  0.00  0.00    +0.055 A 
ATOM     33  C   UNL     1       3.901   1.014  -4.829  0.00  0.00    +0.019 A 
ATOM     34  C   UNL     1       4.098   0.406  -6.043  0.00  0.00    +0.008 A 
ATOM     35  C   UNL     1       4.995  -0.609  -6.136  0.00  0.00    +0.046 A 
ATOM     36  S   UNL     1       5.605  -0.766  -4.578  0.00  0.00    -0.094 S 
ENDBRANCH  30  32
ENDBRANCH   2  30
TORSDOF 5
