REMARK  Name = ZINC62855645
REMARK  5 active torsions:
REMARK  status: ('A' for Active; 'I' for Inactive)
REMARK    1  A    between atoms: C_1  and  C_2
REMARK    2  A    between atoms: C_2  and  C_8
REMARK    3  A    between atoms: N_10  and  C_11
REMARK    4  A    between atoms: C_14  and  S_18
REMARK    5  A    between atoms: S_18  and  N_21
REMARK                            x       y       z     vdW  Elec       q    Type
REMARK                         _______ _______ _______ _____ _____    ______ ____
ROOT
ATOM      1  C   UNL     1      -1.414  -0.522   0.014  0.00  0.00    +0.221 C 
ATOM      2  O   UNL     1      -1.792  -1.233   0.920  0.00  0.00    -0.275 OA
ATOM      3  N   UNL     1      -2.254  -0.207  -0.992  0.00  0.00    -0.284 N 
ATOM      4  H   UNL     1      -1.973   0.413  -1.683  0.00  0.00    +0.155 HD
ENDROOT
BRANCH   1   6
ATOM      5  C   UNL     1      -0.034   1.539   0.021  0.00  0.00    +0.019 C 
ATOM      6  C   UNL     1      -0.003   0.010   0.012  0.00  0.00    +0.029 C 
ATOM      7  C   UNL     1       0.726  -0.479  -1.243  0.00  0.00    +0.012 C 
ATOM      8  C   UNL     1       0.820  -2.007  -1.204  0.00  0.00    -0.018 C 
ATOM      9  C   UNL     1       1.528  -2.437   0.083  0.00  0.00    -0.083 C 
ATOM     10  N   UNL     1       0.767  -1.962   1.246  0.00  0.00    +0.380 N 
ATOM     11  C   UNL     1       0.735  -0.495   1.254  0.00  0.00    -0.067 C 
ATOM     12  H   UNL     1      -0.175  -2.318   1.198  0.00  0.00    -0.086 HD
ATOM     13  H   UNL     1       1.207  -2.292   2.092  0.00  0.00    -0.086 HD
ENDBRANCH   1   6
BRANCH   3  14
ATOM     14  C   UNL     1      -3.532  -0.776  -1.040  0.00  0.00    +0.048 A 
ATOM     15  C   UNL     1      -4.223  -1.035   0.137  0.00  0.00    +0.026 A 
ATOM     16  C   UNL     1      -5.484  -1.595   0.087  0.00  0.00    +0.030 A 
ATOM     17  C   UNL     1      -6.060  -1.899  -1.134  0.00  0.00    +0.106 A 
ATOM     18  C   UNL     1      -5.375  -1.643  -2.307  0.00  0.00    +0.045 A 
ATOM     19  C   UNL     1      -4.115  -1.077  -2.264  0.00  0.00    +0.041 A 
ATOM     20 BR   UNL     1      -3.182  -0.720  -3.870  0.00  0.00    -0.048 Br
BRANCH  17  21
ATOM     21  S   UNL     1      -7.669  -2.614  -1.193  0.00  0.00    +0.056 S 
ATOM     22  O   UNL     1      -7.760  -3.307  -2.430  0.00  0.00    -0.153 OA
ATOM     23  O   UNL     1      -7.873  -3.258   0.058  0.00  0.00    -0.153 OA
BRANCH  21  24
ATOM     24  N   UNL     1      -8.756  -1.368  -1.267  0.00  0.00    -0.204 NA
ATOM     25  H   UNL     1      -8.443  -0.450  -1.271  0.00  0.00    +0.144 HD
ATOM     26  H   UNL     1      -9.707  -1.556  -1.307  0.00  0.00    +0.144 HD
ENDBRANCH  21  24
ENDBRANCH  17  21
ENDBRANCH   3  14
TORSDOF 4
