REMARK  Name = ZINC66538458
REMARK  8 active torsions:
REMARK  status: ('A' for Active; 'I' for Inactive)
REMARK    1  A    between atoms: C_1  and  C_2
REMARK    2  A    between atoms: C_5  and  N_11
REMARK    3  A    between atoms: C_6  and  N_8
REMARK    4  A    between atoms: C_12  and  C_14
REMARK    5  A    between atoms: C_14  and  N_15
REMARK    6  A    between atoms: N_15  and  C_16
REMARK    7  A    between atoms: N_15  and  C_19
REMARK    8  A    between atoms: C_16  and  C_17
REMARK                            x       y       z     vdW  Elec       q    Type
REMARK                         _______ _______ _______ _____ _____    ______ ____
ROOT
ATOM      1  N   UNL     1      -0.289  -4.135  -0.182  0.00  0.00    -0.283 N 
ATOM      2  C   UNL     1      -0.213  -4.829  -1.334  0.00  0.00    +0.231 C 
ATOM      3  O   UNL     1      -0.142  -4.242  -2.393  0.00  0.00    -0.274 OA
ATOM      4  H   UNL     1      -0.273  -4.602   0.668  0.00  0.00    +0.155 HD
ENDROOT
BRANCH   1   9
ATOM      5  C   UNL     1      -0.709   1.522  -0.302  0.00  0.00    +0.044 C 
ATOM      6  C   UNL     1      -0.597   0.019  -0.270  0.00  0.00    -0.048 A 
ATOM      7  C   UNL     1       0.197  -0.634  -1.195  0.00  0.00    +0.005 A 
ATOM      8  C   UNL     1       0.301  -2.010  -1.169  0.00  0.00    +0.026 A 
ATOM      9  C   UNL     1      -0.393  -2.740  -0.211  0.00  0.00    +0.064 A 
ATOM     10  C   UNL     1      -1.189  -2.081   0.716  0.00  0.00    +0.148 A 
ATOM     11  C   UNL     1      -1.285  -0.703   0.688  0.00  0.00    +0.038 A 
BRANCH  10  12
ATOM     12  N   UNL     1      -1.929  -2.854   1.738  0.00  0.00    +0.058 N 
ATOM     13  O   UNL     1      -2.683  -2.288   2.496  0.00  0.00    -0.126 OA
ATOM     14  O   UNL     1      -1.781  -4.051   1.816  0.00  0.00    -0.126 OA
ENDBRANCH  10  12
ENDBRANCH   1   9
BRANCH   2  15
ATOM     15  C   UNL     1      -0.215  -6.336  -1.307  0.00  0.00    +0.181 C 
BRANCH  15  16
ATOM     16  N   UNL     1      -0.123  -6.850  -2.680  0.00  0.00    -0.278 NA
BRANCH  16  17
ATOM     17  C   UNL     1       0.116  -8.300  -2.685  0.00  0.00    +0.080 C 
ATOM     18  C   UNL     1       1.508  -8.589  -2.101  0.00  0.00    +0.043 C 
ATOM     19  C   UNL     1       1.610 -10.117  -1.827  0.00  0.00    +0.167 C 
ATOM     20  S   UNL     1      -0.069 -10.450  -1.145  0.00  0.00    -0.029 S 
ATOM     21  O   UNL     1      -0.024 -10.336   0.271  0.00  0.00    -0.174 OA
ATOM     22  O   UNL     1      -0.580 -11.637  -1.735  0.00  0.00    -0.174 OA
ATOM     23  C   UNL     1      -0.969  -9.002  -1.833  0.00  0.00    +0.184 C 
ENDBRANCH  16  17
BRANCH  16  24
ATOM     24  C   UNL     1      -1.329  -6.513  -3.450  0.00  0.00    +0.174 C 
BRANCH  24  25
ATOM     25  C   UNL     1      -1.058  -6.686  -4.886  0.00  0.00    -0.090 C 
ATOM     26  C   UNL     1      -0.842  -6.824  -6.032  0.00  0.00    +0.005 C 
ENDBRANCH  24  25
ENDBRANCH  16  24
ENDBRANCH  15  16
ENDBRANCH   2  15
TORSDOF 7
