REMARK  Name = ZINC63569261
REMARK  8 active torsions:
REMARK  status: ('A' for Active; 'I' for Inactive)
REMARK    1  A    between atoms: C_1  and  C_2
REMARK    2  A    between atoms: C_2  and  C_3
REMARK    3  A    between atoms: C_4  and  C_27
REMARK    4  A    between atoms: C_7  and  N_26
REMARK    5  A    between atoms: C_8  and  C_12
REMARK    6  A    between atoms: N_14  and  C_15
REMARK    7  A    between atoms: C_15  and  C_16
REMARK    8  A    between atoms: C_16  and  C_17
REMARK                            x       y       z     vdW  Elec       q    Type
REMARK                         _______ _______ _______ _____ _____    ______ ____
ROOT
ATOM      1  C   UNL     1      -7.054  -2.596  -1.948  0.00  0.00    +0.253 C 
ATOM      2  O   UNL     1      -7.910  -2.916  -1.143  0.00  0.00    -0.270 OA
ATOM      3  N   UNL     1      -7.306  -2.684  -3.269  0.00  0.00    -0.311 N 
ATOM      4  H   UNL     1      -6.624  -2.429  -3.911  0.00  0.00    +0.149 HD
ENDROOT
BRANCH   1  10
ATOM      5  C   UNL     1      -1.412  -0.526   0.013  0.00  0.00    +0.045 A 
ATOM      6  C   UNL     1      -2.049  -0.765   1.222  0.00  0.00    -0.028 A 
ATOM      7  C   UNL     1      -3.338  -1.241   1.246  0.00  0.00    +0.017 A 
ATOM      8  C   UNL     1      -4.005  -1.482   0.019  0.00  0.00    +0.029 A 
ATOM      9  C   UNL     1      -5.355  -1.978  -0.199  0.00  0.00    +0.053 A 
ATOM     10  C   UNL     1      -5.793  -2.133  -1.496  0.00  0.00    +0.097 A 
ATOM     11  S   UNL     1      -4.393  -1.614  -2.469  0.00  0.00    -0.062 S 
ATOM     12  C   UNL     1      -3.270  -1.206  -1.156  0.00  0.00    +0.111 A 
ATOM     13  N   UNL     1      -2.037  -0.746  -1.127  0.00  0.00    -0.244 NA
ATOM     14  C   UNL     1      -1.322  -0.503   2.516  0.00  0.00    +0.045 C 
BRANCH   9  15
ATOM     15  N   UNL     1      -6.181  -2.287   0.872  0.00  0.00    -0.356 N 
ATOM     16  H   UNL     1      -5.861  -2.173   1.781  0.00  0.00    +0.142 HD
ATOM     17  H   UNL     1      -7.080  -2.617   0.713  0.00  0.00    +0.142 HD
ENDBRANCH   9  15
BRANCH   5  19
ATOM     18  C   UNL     1      -0.019   1.526   0.010  0.00  0.00    +0.010 C 
ATOM     19  C   UNL     1       0.002  -0.004   0.002  0.00  0.00    +0.052 C 
ENDBRANCH   5  19
ENDBRANCH   1  10
BRANCH   3  20
ATOM     20  C   UNL     1      -8.609  -3.162  -3.736  0.00  0.00    +0.109 C 
BRANCH  20  21
ATOM     21  C   UNL     1      -8.633  -3.164  -5.266  0.00  0.00    +0.052 C 
BRANCH  21  22
ATOM     22  C   UNL     1      -9.974  -3.657  -5.747  0.00  0.00    -0.040 C 
ATOM     23  C   UNL     1     -11.040  -2.902  -6.096  0.00  0.00    -0.001 A 
ATOM     24  C   UNL     1     -11.262  -1.451  -6.131  0.00  0.00    +0.010 A 
ATOM     25  C   UNL     1     -12.465  -0.981  -6.535  0.00  0.00    +0.001 A 
ATOM     26  C   UNL     1     -13.501  -1.843  -6.920  0.00  0.00    +0.002 A 
ATOM     27  C   UNL     1     -13.372  -3.187  -6.915  0.00  0.00    +0.026 A 
ATOM     28  C   UNL     1     -12.150  -3.790  -6.508  0.00  0.00    +0.043 A 
ATOM     29  N   UNL     1     -11.785  -5.045  -6.417  0.00  0.00    -0.380 N 
ATOM     30  C   UNL     1     -10.397  -5.096  -5.942  0.00  0.00    +0.144 C 
ATOM     31  H   UNL     1     -12.338  -5.813  -6.632  0.00  0.00    +0.160 HD
ENDBRANCH  21  22
ENDBRANCH  20  21
ENDBRANCH   3  20
TORSDOF 6
