REMARK  Name = ZINC36587041
REMARK  19 active torsions:
REMARK  status: ('A' for Active; 'I' for Inactive)
REMARK    1  A    between atoms: C_1  and  C_2
REMARK    2  A    between atoms: C_2  and  C_3
REMARK    3  A    between atoms: C_2  and  C_4
REMARK    4  A    between atoms: C_2  and  C_5
REMARK    5  A    between atoms: C_5  and  C_6
REMARK    6  A    between atoms: C_6  and  C_7
REMARK    7  A    between atoms: C_6  and  C_8
REMARK    8  A    between atoms: C_6  and  N_9
REMARK    9  A    between atoms: C_10  and  C_12
REMARK   10  A    between atoms: C_12  and  C_14
REMARK   11  A    between atoms: C_12  and  N_23
REMARK   12  A    between atoms: C_17  and  N_20
REMARK   13  A    between atoms: N_23  and  C_34
REMARK   14  A    between atoms: C_24  and  C_26
REMARK   15  A    between atoms: C_30  and  O_33
REMARK   16  A    between atoms: C_31  and  O_32
REMARK   17  A    between atoms: C_34  and  C_35
REMARK   18  A    between atoms: C_34  and  C_36
REMARK   19  A    between atoms: C_34  and  C_37
REMARK                            x       y       z     vdW  Elec       q    Type
REMARK                         _______ _______ _______ _____ _____    ______ ____
ROOT
ATOM      1  C   UNL     1       5.935   0.567  -3.113  0.00  0.00    +0.193 C 
ENDROOT
BRANCH   1   2
ATOM      2  C   UNL     1       5.409   1.923  -2.718  0.00  0.00    -0.018 A 
ATOM      3  C   UNL     1       6.128   3.062  -3.033  0.00  0.00    +0.008 A 
ATOM      4  C   UNL     1       5.646   4.305  -2.670  0.00  0.00    +0.033 A 
ATOM      5  C   UNL     1       4.446   4.411  -1.993  0.00  0.00    +0.126 A 
ATOM      6  C   UNL     1       3.727   3.273  -1.679  0.00  0.00    +0.033 A 
ATOM      7  C   UNL     1       4.206   2.029  -2.045  0.00  0.00    +0.008 A 
BRANCH   5   8
ATOM      8  N   UNL     1       3.930   5.743  -1.604  0.00  0.00    +0.056 N 
ATOM      9  O   UNL     1       4.559   6.738  -1.878  0.00  0.00    -0.126 OA
ATOM     10  O   UNL     1       2.880   5.835  -1.011  0.00  0.00    -0.126 OA
ENDBRANCH   5   8
ENDBRANCH   1   2
BRANCH   1  12
ATOM     11  N   UNL     1       6.248  -0.263  -0.804  0.00  0.00    -0.308 N 
ATOM     12  C   UNL     1       6.794   0.018  -2.003  0.00  0.00    +0.239 C 
ATOM     13  O   UNL     1       7.978  -0.170  -2.190  0.00  0.00    -0.273 OA
ATOM     14  H   UNL     1       5.301  -0.112  -0.655  0.00  0.00    +0.149 HD
BRANCH  11  15
ATOM     15  C   UNL     1       7.083  -0.796   0.275  0.00  0.00    +0.030 C 
ATOM     16  C   UNL     1       8.343   0.061   0.416  0.00  0.00    +0.031 C 
ATOM     17  C   UNL     1       7.481  -2.237  -0.053  0.00  0.00    +0.031 C 
BRANCH  15  18
ATOM     18  C   UNL     1       6.299  -0.770   1.588  0.00  0.00    +0.031 C 
BRANCH  18  20
ATOM     19  C   UNL     1       4.367   0.596   0.785  0.00  0.00    +0.010 C 
ATOM     20  C   UNL     1       5.576   0.571   1.723  0.00  0.00    -0.036 C 
ATOM     21  C   UNL     1       6.532   1.706   1.353  0.00  0.00    +0.010 C 
ATOM     22  C   UNL     1       5.104   0.753   3.167  0.00  0.00    +0.010 C 
ENDBRANCH  18  20
ENDBRANCH  15  18
ENDBRANCH  11  15
ENDBRANCH   1  12
BRANCH   1  23
ATOM     23  N   UNL     1       6.734   0.690  -4.335  0.00  0.00    -0.277 N 
ATOM     24  C   UNL     1       7.977   1.207  -4.277  0.00  0.00    +0.252 C 
ATOM     25  O   UNL     1       8.526   1.353  -3.202  0.00  0.00    -0.270 OA
BRANCH  24  26
ATOM     26  C   UNL     1       8.672   1.596  -5.519  0.00  0.00    +0.082 A 
ATOM     27  C   UNL     1       8.336   0.988  -6.732  0.00  0.00    +0.017 A 
ATOM     28  C   UNL     1       8.988   1.353  -7.890  0.00  0.00    +0.005 A 
ATOM     29  C   UNL     1       9.976   2.324  -7.860  0.00  0.00    +0.049 A 
ATOM     30  C   UNL     1      10.320   2.935  -6.667  0.00  0.00    +0.159 A 
ATOM     31  C   UNL     1       9.668   2.580  -5.490  0.00  0.00    +0.171 A 
BRANCH  31  32
ATOM     32  O   UNL     1       9.998   3.181  -4.318  0.00  0.00    -0.503 OA
ATOM     33  H   UNL     1      10.704   2.734  -3.832  0.00  0.00    +0.292 HD
ENDBRANCH  31  32
BRANCH  30  34
ATOM     34  O   UNL     1      11.292   3.886  -6.645  0.00  0.00    -0.503 OA
ATOM     35  H   UNL     1      10.965   4.785  -6.783  0.00  0.00    +0.292 HD
ENDBRANCH  30  34
ENDBRANCH  24  26
BRANCH  23  36
ATOM     36  C   UNL     1       6.182   0.251  -5.618  0.00  0.00    +0.030 C 
ATOM     37  C   UNL     1       4.703  -0.103  -5.444  0.00  0.00    +0.031 C 
ATOM     38  C   UNL     1       6.318   1.378  -6.644  0.00  0.00    +0.031 C 
ATOM     39  C   UNL     1       6.946  -0.980  -6.108  0.00  0.00    +0.031 C 
ENDBRANCH  23  36
ENDBRANCH   1  23
TORSDOF 11
