REMARK  Name = ZINC39661214
REMARK  3 active torsions:
REMARK  status: ('A' for Active; 'I' for Inactive)
REMARK    1  A    between atoms: C_3  and  C_9
REMARK    2  A    between atoms: C_13  and  C_22
REMARK    3  A    between atoms: N_24  and  C_25
REMARK                            x       y       z     vdW  Elec       q    Type
REMARK                         _______ _______ _______ _____ _____    ______ ____
ROOT
ATOM      1  C   UNL     1       3.424   2.106   0.072  0.00  0.00    +0.249 C 
ATOM      2  O   UNL     1       4.459   1.468   0.072  0.00  0.00    -0.270 OA
ATOM      3  N   UNL     1       3.457   3.444  -0.084  0.00  0.00    -0.296 N 
ATOM      4  C   UNL     1       2.323   4.395  -0.005  0.00  0.00    +0.121 C 
ATOM      5  C   UNL     1       2.899   5.628   0.727  0.00  0.00    +0.100 C 
ATOM      6  C   UNL     1       4.415   5.559   0.480  0.00  0.00    -0.004 C 
ATOM      7  C   UNL     1       4.635   4.297  -0.368  0.00  0.00    +0.115 C 
ATOM      8  C   UNL     1       4.884   6.796  -0.280  0.00  0.00    -0.010 C 
ATOM      9  C   UNL     1       6.403   6.732  -0.463  0.00  0.00    -0.082 C 
ATOM     10  N   UNL     1       7.053   6.665   0.851  0.00  0.00    +0.379 N 
ATOM     11  C   UNL     1       6.669   5.425   1.537  0.00  0.00    -0.082 C 
ATOM     12  C   UNL     1       5.161   5.434   1.805  0.00  0.00    -0.010 C 
ATOM     13  H   UNL     1       8.055   6.684   0.730  0.00  0.00    -0.086 HD
ATOM     14  H   UNL     1       6.769   7.457   1.407  0.00  0.00    -0.086 HD
ENDROOT
BRANCH   1  17
ATOM     15  C   UNL     1      -0.214   1.234  -0.248  0.00  0.00    +0.002 A 
ATOM     16  C   UNL     1       0.991   1.885  -0.411  0.00  0.00    +0.016 A 
ATOM     17  C   UNL     1       2.131   1.413   0.243  0.00  0.00    +0.073 A 
ATOM     18  C   UNL     1       2.042   0.283   1.061  0.00  0.00    +0.154 A 
ATOM     19  C   UNL     1       0.826  -0.360   1.215  0.00  0.00    +0.077 A 
ATOM     20  C   UNL     1      -0.297   0.115   0.562  0.00  0.00    +0.023 A 
ATOM     21 CL   UNL     1       0.710  -1.764   2.230  0.00  0.00    -0.081 Cl
ATOM     22  F   UNL     1       3.139  -0.181   1.698  0.00  0.00    -0.203 F 
ENDBRANCH   1  17
BRANCH   5  23
ATOM     23  C   UNL     1       2.328   6.897   0.148  0.00  0.00    +0.219 C 
ATOM     24  O   UNL     1       2.035   6.948  -1.028  0.00  0.00    -0.275 OA
ATOM     25  N   UNL     1       2.143   7.974   0.936  0.00  0.00    -0.304 N 
ATOM     26  H   UNL     1       2.377   7.933   1.876  0.00  0.00    +0.149 HD
BRANCH  25  27
ATOM     27  C   UNL     1       1.588   9.207   0.373  0.00  0.00    +0.151 C 
ATOM     28  C   UNL     1       0.872   9.982   1.481  0.00  0.00    +0.042 C 
ATOM     29  C   UNL     1       0.814  11.468   1.054  0.00  0.00    +0.079 C 
ATOM     30  S   UNL     1       2.328  11.621   0.029  0.00  0.00    -0.086 S 
ATOM     31  C   UNL     1       2.706  10.011  -0.247  0.00  0.00    +0.209 C 
ATOM     32  O   UNL     1       3.680   9.581  -0.828  0.00  0.00    -0.283 OA
ENDBRANCH  25  27
ENDBRANCH   5  23
TORSDOF 3
