REMARK  Name = ZINC08963373
REMARK  8 active torsions:
REMARK  status: ('A' for Active; 'I' for Inactive)
REMARK    1  A    between atoms: C_1  and  N_2
REMARK    2  A    between atoms: C_9  and  C_11
REMARK    3  A    between atoms: C_11  and  C_13
REMARK    4  A    between atoms: C_11  and  N_57
REMARK    5  A    between atoms: C_13  and  N_14
REMARK    6  A    between atoms: C_15  and  C_17
REMARK    7  A    between atoms: C_17  and  O_18
REMARK    8  A    between atoms: O_18  and  C_19
REMARK                            x       y       z     vdW  Elec       q    Type
REMARK                         _______ _______ _______ _____ _____    ______ ____
ROOT
ATOM      1  C   UNL     1       2.488   0.824  -0.082  0.00  0.00    -0.020 C 
ENDROOT
BRANCH   1  10
ATOM      2  C   UNL     1       7.304   5.080  -0.770  0.00  0.00    +0.129 C 
ATOM      3  N   UNL     1       7.293   3.833   0.006  0.00  0.00    -0.332 N 
ATOM      4  C   UNL     1       7.432   4.108   1.452  0.00  0.00    +0.109 C 
ATOM      5  C   UNL     1       6.636   2.948   2.095  0.00  0.00    +0.056 C 
ATOM      6  C   UNL     1       5.651   2.572   1.006  0.00  0.00    -0.025 A 
ATOM      7  C   UNL     1       6.096   3.132  -0.186  0.00  0.00    +0.033 A 
ATOM      8  C   UNL     1       5.349   2.938  -1.347  0.00  0.00    +0.023 A 
ATOM      9  C   UNL     1       4.190   2.190  -1.309  0.00  0.00    +0.004 A 
ATOM     10  C   UNL     1       3.756   1.638  -0.118  0.00  0.00    -0.059 A 
ATOM     11  C   UNL     1       4.490   1.829   1.039  0.00  0.00    +0.007 A 
ENDBRANCH   1  10
BRANCH   1  16
ATOM     12  C   UNL     1       3.570  -0.940  -1.365  0.00  0.00    -0.078 C 
ATOM     13  C   UNL     1       3.074  -2.048  -2.328  0.00  0.00    -0.020 C 
ATOM     14  C   UNL     1       1.585  -2.203  -1.939  0.00  0.00    -0.020 C 
ATOM     15  C   UNL     1       1.209  -0.877  -1.254  0.00  0.00    -0.078 C 
ATOM     16  N   UNL     1       2.408  -0.040  -1.298  0.00  0.00    +0.385 N 
ATOM     17  H   UNL     1       2.384   0.557  -2.134  0.00  0.00    -0.081 HD
ENDBRANCH   1  16
BRANCH   1  18
ATOM     18  C   UNL     1       1.281   1.762  -0.035  0.00  0.00    +0.093 C 
BRANCH  18  19
ATOM     19  N   UNL     1       1.288   2.506   1.227  0.00  0.00    -0.314 N 
ATOM     20  C   UNL     1       0.372   3.470   1.447  0.00  0.00    +0.251 C 
ATOM     21  O   UNL     1      -0.455   3.725   0.598  0.00  0.00    -0.272 OA
ATOM     22  H   UNL     1       1.950   2.302   1.906  0.00  0.00    +0.149 HD
BRANCH  20  23
ATOM     23  C   UNL     1       0.376   4.230   2.748  0.00  0.00    +0.324 C 
BRANCH  23  24
ATOM     24  O   UNL     1      -0.682   5.190   2.741  0.00  0.00    -0.481 OA
BRANCH  24  25
ATOM     25  C   UNL     1      -0.819   5.966   3.850  0.00  0.00    +0.140 A 
ATOM     26  C   UNL     1       0.048   5.805   4.921  0.00  0.00    +0.048 A 
ATOM     27  C   UNL     1      -0.093   6.594   6.046  0.00  0.00    +0.023 A 
ATOM     28  C   UNL     1      -1.097   7.544   6.106  0.00  0.00    +0.043 A 
ATOM     29  C   UNL     1      -1.963   7.706   5.039  0.00  0.00    +0.043 A 
ATOM     30  C   UNL     1      -1.822   6.923   3.909  0.00  0.00    +0.084 A 
ATOM     31 CL   UNL     1      -2.904   7.132   2.567  0.00  0.00    -0.080 Cl
ATOM     32 CL   UNL     1      -1.271   8.534   7.522  0.00  0.00    -0.083 Cl
ENDBRANCH  24  25
ENDBRANCH  23  24
ENDBRANCH  20  23
ENDBRANCH  18  19
ENDBRANCH   1  18
TORSDOF 7
