REMARK  Name = ZINC39468738
REMARK  10 active torsions:
REMARK  status: ('A' for Active; 'I' for Inactive)
REMARK    1  A    between atoms: C_1  and  C_2
REMARK    2  A    between atoms: N_7  and  C_9
REMARK    3  A    between atoms: C_9  and  C_10
REMARK    4  A    between atoms: C_16  and  C_18
REMARK    5  A    between atoms: C_18  and  C_20
REMARK    6  A    between atoms: C_18  and  S_21
REMARK    7  A    between atoms: S_21  and  C_22
REMARK    8  A    between atoms: C_22  and  C_23
REMARK    9  A    between atoms: C_28  and  C_35
REMARK   10  A    between atoms: C_29  and  C_34
REMARK                            x       y       z     vdW  Elec       q    Type
REMARK                         _______ _______ _______ _____ _____    ______ ____
ROOT
ATOM      1  C   UNL     1       1.321  -3.966   2.518  0.00  0.00    +0.034 A 
ATOM      2  C   UNL     1       2.332  -4.755   2.078  0.00  0.00    +0.070 A 
ATOM      3  S   UNL     1       1.653  -6.375   2.398  0.00  0.00    -0.060 S 
ATOM      4  C   UNL     1       0.179  -5.886   3.047  0.00  0.00    +0.165 A 
ATOM      5  N   UNL     1       0.255  -4.573   3.005  0.00  0.00    -0.231 NA
ATOM      6  N   UNL     1      -0.862  -6.677   3.518  0.00  0.00    -0.264 N 
ATOM      7  C   UNL     1      -0.756  -8.020   3.486  0.00  0.00    +0.231 C 
ATOM      8  O   UNL     1       0.248  -8.539   3.046  0.00  0.00    -0.274 OA
ATOM      9  H   UNL     1      -1.665  -6.262   3.870  0.00  0.00    +0.157 HD
ENDROOT
BRANCH   7  10
ATOM     10  C   UNL     1      -1.885  -8.877   3.997  0.00  0.00    +0.130 C 
ATOM     11  C   UNL     1      -2.916  -9.079   2.884  0.00  0.00    +0.029 C 
BRANCH  10  12
ATOM     12  S   UNL     1      -1.233 -10.489   4.517  0.00  0.00    -0.141 S 
BRANCH  12  13
ATOM     13  C   UNL     1      -2.670 -11.331   5.237  0.00  0.00    +0.143 C 
BRANCH  13  14
ATOM     14  C   UNL     1      -2.261 -12.700   5.715  0.00  0.00    +0.133 C 
ATOM     15  N   UNL     1      -1.011 -13.065   5.561  0.00  0.00    -0.161 NA
ATOM     16  C   UNL     1      -0.551 -14.258   5.952  0.00  0.00    +0.271 C 
ATOM     17  O   UNL     1       0.619 -14.564   5.793  0.00  0.00    -0.268 OA
ATOM     18  C   UNL     1      -1.518 -15.205   6.592  0.00  0.00    +0.071 C 
ATOM     19  C   UNL     1      -1.287 -16.441   7.058  0.00  0.00    -0.045 C 
ATOM     20  C   UNL     1      -2.449 -17.194   7.665  0.00  0.00    +0.076 C 
ATOM     21  S   UNL     1      -3.815 -15.976   7.486  0.00  0.00    -0.098 S 
ATOM     22  C   UNL     1      -2.893 -14.675   6.707  0.00  0.00    +0.111 C 
ATOM     23  N   UNL     1      -3.182 -13.470   6.274  0.00  0.00    -0.227 NA
ATOM     24  C   UNL     1      -2.746 -18.471   6.876  0.00  0.00    +0.024 C 
ATOM     25  C   UNL     1       0.086 -17.059   6.981  0.00  0.00    +0.041 C 
ENDBRANCH  13  14
ENDBRANCH  12  13
ENDBRANCH  10  12
ENDBRANCH   7  10
BRANCH   1  26
ATOM     26  C   UNL     1       1.413  -2.463   2.461  0.00  0.00    -0.022 C 
BRANCH  26  32
ATOM     27  C   UNL     1      -0.019   1.526   0.010  0.00  0.00    +0.005 C 
ATOM     28  C   UNL     1       0.002  -0.004   0.002  0.00  0.00    -0.031 C 
ATOM     29  C   UNL     1       0.721  -0.499  -1.257  0.00  0.00    -0.001 C 
ATOM     30  C   UNL     1       0.805  -2.027  -1.217  0.00  0.00    -0.018 C 
ATOM     31  C   UNL     1       1.518  -2.460   0.066  0.00  0.00    -0.078 C 
ATOM     32  N   UNL     1       0.768  -1.979   1.233  0.00  0.00    +0.384 N 
ATOM     33  C   UNL     1       0.744  -0.512   1.240  0.00  0.00    -0.075 C 
ATOM     34  H   UNL     1      -0.177  -2.330   1.192  0.00  0.00    -0.081 HD
ENDBRANCH  26  32
ENDBRANCH   1  26
TORSDOF 6
