REMARK  Name = ZINC58394794
REMARK  4 active torsions:
REMARK  status: ('A' for Active; 'I' for Inactive)
REMARK    1  A    between atoms: C_5  and  C_13
REMARK    2  A    between atoms: C_8  and  N_10
REMARK    3  A    between atoms: C_18  and  C_21
REMARK    4  A    between atoms: C_21  and  C_22
REMARK                            x       y       z     vdW  Elec       q    Type
REMARK                         _______ _______ _______ _____ _____    ______ ____
ROOT
ATOM      1  C   UNL     1       5.984   0.754  -0.051  0.00  0.00    +0.265 C 
ATOM      2  O   UNL     1       4.777   0.747   0.101  0.00  0.00    -0.268 OA
ATOM      3  N   UNL     1       6.656  -0.409  -0.166  0.00  0.00    -0.296 N 
ATOM      4  C   UNL     1       5.934  -1.683  -0.283  0.00  0.00    +0.108 C 
ATOM      5  C   UNL     1       6.447  -2.642   0.796  0.00  0.00    +0.023 C 
ATOM      6  C   UNL     1       7.968  -2.769   0.678  0.00  0.00    +0.001 C 
ATOM      7  C   UNL     1       8.614  -1.400   0.901  0.00  0.00    +0.023 C 
ATOM      8  C   UNL     1       8.125  -0.426  -0.182  0.00  0.00    +0.108 C 
ENDROOT
BRANCH   1  13
ATOM      9  C   UNL     1       8.406   6.281  -0.129  0.00  0.00    +0.003 A 
ATOM     10  C   UNL     1       7.237   5.612   0.094  0.00  0.00    +0.010 A 
ATOM     11  C   UNL     1       7.199   4.217  -0.026  0.00  0.00    +0.005 A 
ATOM     12  C   UNL     1       6.173   3.255   0.135  0.00  0.00    +0.043 A 
ATOM     13  C   UNL     1       6.710   2.032  -0.111  0.00  0.00    +0.127 A 
ATOM     14  N   UNL     1       8.047   2.179  -0.424  0.00  0.00    -0.240 NA
ATOM     15  C   UNL     1       8.368   3.515  -0.378  0.00  0.00    +0.102 A 
ATOM     16  C   UNL     1       9.548   4.220  -0.601  0.00  0.00    +0.152 A 
ATOM     17  C   UNL     1       9.560   5.591  -0.476  0.00  0.00    +0.035 A 
BRANCH  16  18
ATOM     18  N   UNL     1      10.786   3.497  -0.971  0.00  0.00    +0.059 N 
ATOM     19  O   UNL     1      11.809   4.111  -1.165  0.00  0.00    -0.126 OA
ATOM     20  O   UNL     1      10.773   2.293  -1.080  0.00  0.00    -0.126 OA
ENDBRANCH  16  18
ENDBRANCH   1  13
BRANCH   6  21
ATOM     21  C   UNL     1       8.480  -3.753   1.731  0.00  0.00    +0.099 C 
BRANCH  21  22
ATOM     22  C   UNL     1       9.959  -3.972   1.536  0.00  0.00    +0.211 C 
ATOM     23  O   UNL     1      10.544  -3.397   0.643  0.00  0.00    -0.276 OA
ATOM     24  N   UNL     1      10.630  -4.806   2.355  0.00  0.00    -0.329 N 
ATOM     25  H   UNL     1      10.161  -5.265   3.070  0.00  0.00    +0.145 HD
ATOM     26  H   UNL     1      11.581  -4.947   2.230  0.00  0.00    +0.145 HD
ENDBRANCH  21  22
ENDBRANCH   6  21
TORSDOF 4
