REMARK  Name = ZINC44253653
REMARK  8 active torsions:
REMARK  status: ('A' for Active; 'I' for Inactive)
REMARK    1  A    between atoms: C_3  and  O_17
REMARK    2  A    between atoms: C_4  and  C_10
REMARK    3  A    between atoms: C_6  and  N_7
REMARK    4  A    between atoms: C_10  and  C_12
REMARK    5  A    between atoms: C_10  and  N_16
REMARK    6  A    between atoms: C_12  and  C_13
REMARK    7  A    between atoms: O_17  and  C_18
REMARK    8  A    between atoms: C_18  and  C_19
REMARK                            x       y       z     vdW  Elec       q    Type
REMARK                         _______ _______ _______ _____ _____    ______ ____
ROOT
ATOM      1  C   UNL     1      -0.017   1.378   0.010  0.00  0.00    +0.036 A 
ATOM      2  C   UNL     1       1.170   2.086   0.002  0.00  0.00    +0.048 A 
ATOM      3  C   UNL     1       2.380   1.409  -0.013  0.00  0.00    +0.123 A 
ATOM      4  C   UNL     1       2.396   0.022  -0.021  0.00  0.00    -0.018 A 
ATOM      5  C   UNL     1       1.208  -0.681  -0.013  0.00  0.00    +0.038 A 
ATOM      6  C   UNL     1       0.002  -0.004   0.002  0.00  0.00    +0.127 A 
ENDROOT
BRANCH   6   7
ATOM      7  N   UNL     1      -1.270  -0.760   0.011  0.00  0.00    +0.056 N 
ATOM      8  O   UNL     1      -2.325  -0.169   0.024  0.00  0.00    -0.126 OA
ATOM      9  O   UNL     1      -1.255  -1.969   0.004  0.00  0.00    -0.126 OA
ENDBRANCH   6   7
BRANCH   4  10
ATOM     10  C   UNL     1       3.710  -0.717  -0.038  0.00  0.00    -0.032 C 
BRANCH  10  11
ATOM     11  N   UNL     1       3.515  -2.048  -0.628  0.00  0.00    +0.383 N 
ATOM     12  H   UNL     1       2.845  -2.565  -0.079  0.00  0.00    -0.089 HD
ATOM     13  H   UNL     1       3.172  -1.950  -1.572  0.00  0.00    -0.089 HD
ATOM     14  H   UNL     1       4.394  -2.543  -0.639  0.00  0.00    -0.089 HD
ENDBRANCH  10  11
BRANCH  10  15
ATOM     15  C   UNL     1       4.230  -0.865   1.394  0.00  0.00    +0.084 C 
BRANCH  15  16
ATOM     16  C   UNL     1       5.599  -1.494   1.368  0.00  0.00    +0.209 C 
ATOM     17  O   UNL     1       6.109  -1.794   0.309  0.00  0.00    -0.276 OA
ATOM     18  N   UNL     1       6.258  -1.723   2.521  0.00  0.00    -0.329 N 
ATOM     19  H   UNL     1       5.850  -1.483   3.368  0.00  0.00    +0.145 HD
ATOM     20  H   UNL     1       7.139  -2.127   2.505  0.00  0.00    +0.145 HD
ENDBRANCH  15  16
ENDBRANCH  10  15
ENDBRANCH   4  10
BRANCH   3  21
ATOM     21  O   UNL     1       3.548   2.104  -0.021  0.00  0.00    -0.487 OA
BRANCH  21  22
ATOM     22  C   UNL     1       3.456   3.530  -0.013  0.00  0.00    +0.268 C 
BRANCH  22  23
ATOM     23  C   UNL     1       4.841   4.123  -0.023  0.00  0.00    +0.033 A 
ATOM     24  C   UNL     1       5.947   3.296  -0.044  0.00  0.00    +0.030 A 
ATOM     25  C   UNL     1       7.218   3.840  -0.052  0.00  0.00    +0.042 A 
ATOM     26  C   UNL     1       7.385   5.213  -0.039  0.00  0.00    +0.029 A 
ATOM     27  C   UNL     1       6.281   6.045  -0.019  0.00  0.00    +0.022 A 
ATOM     28  C   UNL     1       5.005   5.501  -0.018  0.00  0.00    +0.135 A 
ATOM     29  O   UNL     1       3.910   6.308  -0.012  0.00  0.00    -0.465 OA
ATOM     30  C   UNL     1       4.117   7.675   0.353  0.00  0.00    +0.394 C 
ATOM     31  O   UNL     1       5.244   8.178  -0.374  0.00  0.00    -0.339 OA
ATOM     32  C   UNL     1       6.473   7.540  -0.001  0.00  0.00    +0.202 C 
ATOM     33 CL   UNL     1       8.607   2.799  -0.079  0.00  0.00    -0.084 Cl
ENDBRANCH  22  23
ENDBRANCH  21  22
ENDBRANCH   3  21
TORSDOF 8
