REMARK  Name = ZINC13541177
REMARK  2 active torsions:
REMARK  status: ('A' for Active; 'I' for Inactive)
REMARK    1  A    between atoms: C_4  and  C_7
REMARK    2  A    between atoms: C_10  and  C_21
REMARK                            x       y       z     vdW  Elec       q    Type
REMARK                         _______ _______ _______ _____ _____    ______ ____
ROOT
ATOM      1  C   UNL     1       3.711  -0.707  -0.038  0.00  0.00    +0.126 C 
ATOM      2  C   UNL     1       3.791  -1.596  -1.284  0.00  0.00    +0.086 C 
ATOM      3  C   UNL     1       2.950  -2.830  -1.121  0.00  0.00    +0.054 C 
ATOM      4  N   UNL     1       2.794  -3.428   0.029  0.00  0.00    -0.218 NA
ATOM      5  C   UNL     1       3.356  -2.877   1.140  0.00  0.00    +0.210 A 
ATOM      6  N   UNL     1       3.812  -1.569   1.144  0.00  0.00    -0.302 N 
ATOM      7  C   UNL     1       4.317  -1.318   2.382  0.00  0.00    +0.069 A 
ATOM      8  C   UNL     1       4.916  -0.200   2.954  0.00  0.00    +0.028 A 
ATOM      9  C   UNL     1       5.318  -0.309   4.275  0.00  0.00    +0.002 A 
ATOM     10  C   UNL     1       5.138  -1.472   5.005  0.00  0.00    +0.002 A 
ATOM     11  C   UNL     1       4.551  -2.589   4.466  0.00  0.00    +0.028 A 
ATOM     12  C   UNL     1       4.134  -2.510   3.131  0.00  0.00    +0.066 A 
ATOM     13  N   UNL     1       3.538  -3.408   2.323  0.00  0.00    -0.324 N 
ATOM     14  H   UNL     1       3.283  -4.309   2.578  0.00  0.00    +0.169 HD
ENDROOT
BRANCH   3  15
ATOM     15  C   UNL     1       2.275  -3.386  -2.303  0.00  0.00    -0.003 A 
ATOM     16  C   UNL     1       2.425  -2.773  -3.552  0.00  0.00    +0.011 A 
ATOM     17  C   UNL     1       1.790  -3.300  -4.656  0.00  0.00    +0.016 A 
ATOM     18  C   UNL     1       1.005  -4.434  -4.531  0.00  0.00    +0.018 A 
ATOM     19  C   UNL     1       0.851  -5.047  -3.298  0.00  0.00    +0.016 A 
ATOM     20  C   UNL     1       1.484  -4.534  -2.186  0.00  0.00    +0.011 A 
ATOM     21 BR   UNL     1       0.137  -5.150  -6.051  0.00  0.00    -0.050 Br
ENDBRANCH   3  15
BRANCH   1  25
ATOM     22  C   UNL     1      -0.017   1.378   0.010  0.00  0.00    +0.000 A 
ATOM     23  C   UNL     1       1.171   2.086   0.002  0.00  0.00    +0.000 A 
ATOM     24  C   UNL     1       2.377   1.411  -0.013  0.00  0.00    +0.006 A 
ATOM     25  C   UNL     1       2.396   0.029  -0.020  0.00  0.00    -0.024 A 
ATOM     26  C   UNL     1       1.208  -0.679  -0.012  0.00  0.00    +0.006 A 
ATOM     27  C   UNL     1       0.002  -0.004   0.002  0.00  0.00    +0.000 A 
ENDBRANCH   1  25
TORSDOF 2
