REMARK  Name = ZINC39362579
REMARK  7 active torsions:
REMARK  status: ('A' for Active; 'I' for Inactive)
REMARK    1  A    between atoms: C_1  and  C_2
REMARK    2  A    between atoms: C_5  and  N_9
REMARK    3  A    between atoms: C_10  and  C_12
REMARK    4  A    between atoms: C_15  and  C_17
REMARK    5  A    between atoms: N_22  and  C_23
REMARK    6  A    between atoms: C_23  and  C_24
REMARK    7  A    between atoms: C_28  and  O_30
REMARK                            x       y       z     vdW  Elec       q    Type
REMARK                         _______ _______ _______ _____ _____    ______ ____
ROOT
ATOM      1  C   UNL     1       4.769  -3.116  -1.710  0.00  0.00    +0.074 A 
ATOM      2  C   UNL     1       5.500  -2.187  -2.434  0.00  0.00    +0.021 A 
ATOM      3  C   UNL     1       6.732  -2.608  -2.873  0.00  0.00    +0.010 A 
ATOM      4  C   UNL     1       7.141  -3.867  -2.580  0.00  0.00    -0.023 A 
ATOM      5  S   UNL     1       5.872  -4.516  -1.692  0.00  0.00    -0.090 S 
ENDROOT
BRANCH   4   6
ATOM      6  C   UNL     1       8.441  -4.529  -2.958  0.00  0.00    -0.030 C 
ATOM      7  C   UNL     1       8.218  -5.479  -4.154  0.00  0.00    -0.012 C 
ATOM      8  C   UNL     1       9.132  -6.686  -3.816  0.00  0.00    -0.020 C 
ATOM      9  C   UNL     1       8.998  -6.759  -2.275  0.00  0.00    -0.078 C 
ATOM     10  N   UNL     1       8.934  -5.346  -1.833  0.00  0.00    +0.387 N 
ATOM     11  H   UNL     1       8.302  -5.262  -1.051  0.00  0.00    -0.080 HD
BRANCH  10  12
ATOM     12  C   UNL     1      10.272  -4.886  -1.438  0.00  0.00    -0.042 C 
BRANCH  12  13
ATOM     13  C   UNL     1      10.720  -5.640  -0.212  0.00  0.00    -0.060 A 
ATOM     14  C   UNL     1      10.426  -5.149   1.047  0.00  0.00    +0.002 A 
ATOM     15  C   UNL     1      10.836  -5.838   2.173  0.00  0.00    +0.004 A 
ATOM     16  C   UNL     1      11.540  -7.020   2.043  0.00  0.00    +0.045 A 
ATOM     17  C   UNL     1      11.836  -7.514   0.782  0.00  0.00    +0.117 A 
ATOM     18  C   UNL     1      11.418  -6.824  -0.347  0.00  0.00    +0.047 A 
BRANCH  17  19
ATOM     19  O   UNL     1      12.529  -8.677   0.651  0.00  0.00    -0.507 OA
ATOM     20  H   UNL     1      11.970  -9.465   0.613  0.00  0.00    +0.292 HD
ENDBRANCH  17  19
ENDBRANCH  12  13
ENDBRANCH  10  12
ENDBRANCH   4   6
BRANCH   1  22
ATOM     21  N   UNL     1       2.756  -1.825  -1.237  0.00  0.00    -0.276 N 
ATOM     22  C   UNL     1       3.438  -2.981  -1.109  0.00  0.00    +0.253 C 
ATOM     23  O   UNL     1       2.949  -3.912  -0.496  0.00  0.00    -0.270 OA
ATOM     24  H   UNL     1       3.146  -1.083  -1.725  0.00  0.00    +0.152 HD
BRANCH  21  28
ATOM     25  C   UNL     1      -0.019   1.526   0.010  0.00  0.00    +0.052 C 
ATOM     26  C   UNL     1       0.002  -0.004   0.002  0.00  0.00    +0.194 C 
ATOM     27  N   UNL     1       0.726  -0.505  -1.194  0.00  0.00    -0.256 NA
ATOM     28  C   UNL     1       1.426  -1.690  -0.637  0.00  0.00    +0.287 C 
ATOM     29  N   UNL     1       1.537  -1.418   0.802  0.00  0.00    -0.151 NA
ATOM     30  N   UNL     1       0.769  -0.511   1.147  0.00  0.00    -0.170 NA
ATOM     31  H   UNL     1       0.081  -0.774  -1.921  0.00  0.00    +0.128 HD
ENDBRANCH  21  28
ENDBRANCH   1  22
TORSDOF 6
