REMARK  Name = ZINC33121152
REMARK  14 active torsions:
REMARK  status: ('A' for Active; 'I' for Inactive)
REMARK    1  A    between atoms: C_1  and  C_2
REMARK    2  A    between atoms: C_2  and  C_3
REMARK    3  A    between atoms: C_3  and  C_4
REMARK    4  A    between atoms: C_4  and  N_5
REMARK    5  A    between atoms: N_5  and  C_6
REMARK    6  A    between atoms: C_6  and  C_7
REMARK    7  A    between atoms: C_8  and  C_10
REMARK    8  A    between atoms: C_12  and  N_22
REMARK    9  A    between atoms: C_15  and  N_16
REMARK   10  A    between atoms: N_22  and  S_23
REMARK   11  A    between atoms: S_23  and  C_26
REMARK   12  A    between atoms: C_29  and  C_32
REMARK   13  A    between atoms: C_32  and  C_33
REMARK   14  A    between atoms: C_32  and  C_34
REMARK                            x       y       z     vdW  Elec       q    Type
REMARK                         _______ _______ _______ _____ _____    ______ ____
ROOT
ATOM      1  C   UNL     1       2.346   0.230   0.775  0.00  0.00    +0.060 A 
ATOM      2  C   UNL     1       2.212   1.601   1.009  0.00  0.00    +0.039 A 
ATOM      3  C   UNL     1       3.066   2.236   1.893  0.00  0.00    +0.049 A 
ATOM      4  C   UNL     1       4.058   1.513   2.550  0.00  0.00    +0.026 A 
ATOM      5  C   UNL     1       4.198   0.160   2.325  0.00  0.00    +0.026 A 
ATOM      6  C   UNL     1       3.345  -0.493   1.444  0.00  0.00    +0.042 A 
ENDROOT
BRANCH   6   7
ATOM      7  N   UNL     1       3.484  -1.860   1.223  0.00  0.00    -0.333 N 
ATOM      8  C   UNL     1       4.737  -2.363   1.802  0.00  0.00    +0.086 C 
ATOM      9  C   UNL     1       4.890  -3.849   1.469  0.00  0.00    -0.063 C 
ATOM     10  N   UNL     1       3.735  -4.588   1.998  0.00  0.00    +0.381 N 
ATOM     11  C   UNL     1       2.481  -4.085   1.418  0.00  0.00    -0.063 C 
ATOM     12  C   UNL     1       2.329  -2.599   1.751  0.00  0.00    +0.086 C 
ATOM     13  H   UNL     1       3.837  -5.655   1.748  0.00  0.00    -0.086 HD
ATOM     14  H   UNL     1       3.692  -4.469   3.090  0.00  0.00    -0.086 HD
ENDBRANCH   6   7
BRANCH   1  16
ATOM     15  N   UNL     1       0.109  -0.432   0.046  0.00  0.00    -0.298 N 
ATOM     16  C   UNL     1       1.440  -0.454  -0.165  0.00  0.00    +0.248 C 
ATOM     17  O   UNL     1       1.893  -1.038  -1.130  0.00  0.00    -0.270 OA
BRANCH  15  18
ATOM     18  C   UNL     1      -0.445   0.358   1.149  0.00  0.00    +0.104 C 
ATOM     19  C   UNL     1      -0.611  -0.534   2.381  0.00  0.00    +0.024 C 
ENDBRANCH  15  18
BRANCH  15  20
ATOM     20  C   UNL     1      -0.784  -1.197  -0.828  0.00  0.00    +0.108 C 
BRANCH  20  21
ATOM     21  C   UNL     1      -1.215  -0.323  -2.008  0.00  0.00    +0.019 C 
BRANCH  21  23
ATOM     22  C   UNL     1      -2.578  -0.249  -4.100  0.00  0.00    +0.004 C 
ATOM     23  C   UNL     1      -2.147  -1.122  -2.920  0.00  0.00    -0.002 C 
ENDBRANCH  21  23
ENDBRANCH  20  21
ENDBRANCH  15  20
ENDBRANCH   1  16
BRANCH   3  24
ATOM     24  N   UNL     1       2.932   3.610   2.128  0.00  0.00    -0.216 N 
ATOM     25  H   UNL     1       2.800   4.302   1.284  0.00  0.00    +0.174 HD
BRANCH  24  26
ATOM     26  S   UNL     1       2.974   4.193   3.678  0.00  0.00    +0.072 S 
ATOM     27  O   UNL     1       4.153   3.672   4.276  0.00  0.00    -0.150 OA
ATOM     28  O   UNL     1       2.714   5.587   3.595  0.00  0.00    -0.150 OA
BRANCH  26  29
ATOM     29  C   UNL     1       1.614   3.477   4.540  0.00  0.00    +0.109 A 
ATOM     30  C   UNL     1       0.364   4.064   4.469  0.00  0.00    +0.029 A 
ATOM     31  C   UNL     1      -0.703   3.501   5.142  0.00  0.00    +0.006 A 
ATOM     32  C   UNL     1      -0.520   2.355   5.893  0.00  0.00    -0.045 A 
ATOM     33  C   UNL     1       0.731   1.771   5.969  0.00  0.00    +0.006 A 
ATOM     34  C   UNL     1       1.798   2.332   5.293  0.00  0.00    +0.029 A 
BRANCH  32  35
ATOM     35  C   UNL     1      -1.683   1.743   6.630  0.00  0.00    +0.013 C 
ATOM     36  C   UNL     1      -2.243   2.755   7.631  0.00  0.00    +0.012 C 
ATOM     37  C   UNL     1      -2.775   1.358   5.629  0.00  0.00    +0.012 C 
ENDBRANCH  32  35
ENDBRANCH  26  29
ENDBRANCH  24  26
ENDBRANCH   3  24
TORSDOF 10
