REMARK  Name = ZINC40476298
REMARK  9 active torsions:
REMARK  status: ('A' for Active; 'I' for Inactive)
REMARK    1  A    between atoms: C_1  and  C_2
REMARK    2  A    between atoms: C_2  and  C_3
REMARK    3  A    between atoms: C_3  and  C_4
REMARK    4  A    between atoms: C_4  and  C_5
REMARK    5  A    between atoms: C_5  and  S_6
REMARK    6  A    between atoms: S_6  and  C_7
REMARK    7  A    between atoms: C_18  and  C_20
REMARK    8  A    between atoms: C_30  and  C_32
REMARK    9  A    between atoms: C_30  and  C_33
REMARK                            x       y       z     vdW  Elec       q    Type
REMARK                         _______ _______ _______ _____ _____    ______ ____
ROOT
ATOM      1  C   UNL     1       2.326  -4.741  -4.025  0.00  0.00    +0.171 A 
ATOM      2  N   UNL     1       2.516  -6.051  -4.348  0.00  0.00    -0.302 N 
ATOM      3  H   UNL     1       2.184  -6.747  -3.761  0.00  0.00    +0.171 HD
ATOM      4  C   UNL     1       3.164  -6.381  -5.485  0.00  0.00    +0.258 A 
ATOM      5  O   UNL     1       3.342  -7.551  -5.783  0.00  0.00    -0.267 OA
ATOM      6  C   UNL     1       3.630  -5.356  -6.317  0.00  0.00    +0.069 A 
ATOM      7  C   UNL     1       3.408  -4.041  -5.944  0.00  0.00    +0.135 A 
ATOM      8  N   UNL     1       2.757  -3.772  -4.807  0.00  0.00    -0.208 NA
ATOM      9  N   UNL     1       3.853  -3.016  -6.755  0.00  0.00    -0.302 N 
ATOM     10  C   UNL     1       4.151  -3.246  -8.070  0.00  0.00    +0.017 C 
ATOM     11  C   UNL     1       4.393  -4.496  -8.518  0.00  0.00    +0.024 C 
ATOM     12  C   UNL     1       4.359  -5.681  -7.586  0.00  0.00    +0.092 C 
ATOM     13  C   UNL     1       4.684  -4.736  -9.873  0.00  0.00    +0.162 C 
ATOM     14  O   UNL     1       4.905  -5.872 -10.242  0.00  0.00    -0.292 OA
ATOM     15  C   UNL     1       4.728  -3.614 -10.874  0.00  0.00    +0.086 C 
ATOM     16  C   UNL     1       3.787  -2.497 -10.411  0.00  0.00    -0.023 C 
ATOM     17  C   UNL     1       4.207  -2.062  -9.005  0.00  0.00    +0.058 C 
ATOM     18  C   UNL     1       3.891  -1.308 -11.369  0.00  0.00    +0.011 C 
ATOM     19  C   UNL     1       2.348  -3.015 -10.381  0.00  0.00    +0.011 C 
ATOM     20  H   UNL     1       3.954  -2.123  -6.389  0.00  0.00    +0.153 HD
ENDROOT
BRANCH  12  21
ATOM     21  C   UNL     1       5.771  -6.087  -7.254  0.00  0.00    -0.035 A 
ATOM     22  C   UNL     1       6.607  -5.206  -6.593  0.00  0.00    +0.006 A 
ATOM     23  C   UNL     1       7.902  -5.578  -6.288  0.00  0.00    +0.020 A 
ATOM     24  C   UNL     1       8.363  -6.834  -6.644  0.00  0.00    +0.041 A 
ATOM     25  C   UNL     1       7.526  -7.715  -7.305  0.00  0.00    +0.020 A 
ATOM     26  C   UNL     1       6.229  -7.344  -7.604  0.00  0.00    +0.006 A 
ATOM     27 CL   UNL     1       9.990  -7.302  -6.262  0.00  0.00    -0.084 Cl
ENDBRANCH  12  21
BRANCH   1  28
ATOM     28  S   UNL     1       1.480  -4.335  -2.534  0.00  0.00    -0.088 S 
BRANCH  28  29
ATOM     29  C   UNL     1       1.455  -2.521  -2.524  0.00  0.00    +0.077 C 
BRANCH  29  30
ATOM     30  C   UNL     1       0.739  -2.027  -1.265  0.00  0.00    +0.011 C 
BRANCH  30  31
ATOM     31  C   UNL     1       0.718  -0.497  -1.257  0.00  0.00    +0.001 C 
BRANCH  31  33
ATOM     32  C   UNL     1      -0.019   1.526   0.010  0.00  0.00    +0.004 C 
ATOM     33  C   UNL     1       0.002  -0.004   0.002  0.00  0.00    -0.003 C 
ENDBRANCH  31  33
ENDBRANCH  30  31
ENDBRANCH  29  30
ENDBRANCH  28  29
ENDBRANCH   1  28
TORSDOF 6
