REMARK  Name = ZINC63385918
REMARK  12 active torsions:
REMARK  status: ('A' for Active; 'I' for Inactive)
REMARK    1  A    between atoms: C_1  and  C_2
REMARK    2  A    between atoms: C_3  and  O_33
REMARK    3  A    between atoms: C_11  and  C_16
REMARK    4  A    between atoms: C_13  and  C_15
REMARK    5  A    between atoms: C_16  and  C_17
REMARK    6  A    between atoms: N_19  and  C_20
REMARK    7  A    between atoms: C_20  and  C_22
REMARK    8  A    between atoms: C_20  and  C_23
REMARK    9  A    between atoms: C_23  and  C_24
REMARK   10  A    between atoms: O_33  and  C_34
REMARK   11  A    between atoms: C_34  and  C_35
REMARK   12  A    between atoms: C_35  and  C_37
REMARK                            x       y       z     vdW  Elec       q    Type
REMARK                         _______ _______ _______ _____ _____    ______ ____
ROOT
ATOM      1  C   UNL     1      -0.018   1.503   0.010  0.00  0.00    +0.051 C 
ATOM      2  C   UNL     1       0.002  -0.004   0.002  0.00  0.00    +0.034 A 
ATOM      3  C   UNL     1       0.006  -0.688  -1.202  0.00  0.00    +0.127 A 
ATOM      4  C   UNL     1       0.024  -2.076  -1.207  0.00  0.00    +0.046 A 
ATOM      5  C   UNL     1       0.035  -2.768  -0.013  0.00  0.00    +0.011 A 
ATOM      6  C   UNL     1       0.029  -2.088   1.195  0.00  0.00    -0.001 A 
ATOM      7  C   UNL     1       0.023  -0.704   1.203  0.00  0.00    +0.141 A 
ATOM      8  O   UNL     1       0.043   0.007   2.363  0.00  0.00    -0.425 OA
ATOM      9  C   UNL     1      -0.146  -0.671   3.513  0.00  0.00    +0.317 C 
ATOM     10  O   UNL     1      -0.826  -0.225   4.407  0.00  0.00    -0.250 OA
ATOM     11  C   UNL     1       0.534  -2.020   3.631  0.00  0.00    +0.114 C 
ATOM     12  C   UNL     1       0.029  -2.891   2.471  0.00  0.00    +0.034 C 
ATOM     13  C   UNL     1      -1.390  -3.381   2.763  0.00  0.00    +0.013 C 
ENDROOT
BRANCH  11  14
ATOM     14  C   UNL     1       2.052  -1.846   3.542  0.00  0.00    +0.111 C 
BRANCH  14  15
ATOM     15  C   UNL     1       2.537  -1.055   4.729  0.00  0.00    +0.214 C 
ATOM     16  O   UNL     1       1.746  -0.668   5.564  0.00  0.00    -0.276 OA
ATOM     17  N   UNL     1       3.849  -0.776   4.863  0.00  0.00    -0.312 N 
ATOM     18  H   UNL     1       4.481  -1.085   4.196  0.00  0.00    +0.149 HD
BRANCH  17  19
ATOM     19  C   UNL     1       4.320  -0.007   6.018  0.00  0.00    +0.074 C 
ATOM     20  C   UNL     1       4.549  -0.950   7.200  0.00  0.00    +0.028 C 
BRANCH  19  21
ATOM     21  C   UNL     1       5.633   0.694   5.662  0.00  0.00    +0.055 C 
BRANCH  21  22
ATOM     22  C   UNL     1       5.382   1.712   4.580  0.00  0.00    -0.040 C 
ATOM     23  C   UNL     1       5.147   3.033   4.745  0.00  0.00    -0.001 A 
ATOM     24  C   UNL     1       5.057   3.886   5.937  0.00  0.00    +0.010 A 
ATOM     25  C   UNL     1       4.804   5.205   5.782  0.00  0.00    +0.001 A 
ATOM     26  C   UNL     1       4.624   5.777   4.515  0.00  0.00    +0.002 A 
ATOM     27  C   UNL     1       4.692   5.059   3.374  0.00  0.00    +0.026 A 
ATOM     28  C   UNL     1       4.954   3.662   3.419  0.00  0.00    +0.043 A 
ATOM     29  N   UNL     1       5.066   2.764   2.470  0.00  0.00    -0.380 N 
ATOM     30  C   UNL     1       5.348   1.464   3.088  0.00  0.00    +0.144 C 
ATOM     31  H   UNL     1       4.980   2.932   1.519  0.00  0.00    +0.160 HD
ENDBRANCH  21  22
ENDBRANCH  19  21
ENDBRANCH  17  19
ENDBRANCH  14  15
ENDBRANCH  11  14
BRANCH   3  32
ATOM     32  O   UNL     1      -0.009  -0.003  -2.376  0.00  0.00    -0.487 OA
BRANCH  32  33
ATOM     33  C   UNL     1      -0.004  -0.775  -3.578  0.00  0.00    +0.259 C 
BRANCH  33  34
ATOM     34  C   UNL     1      -0.022   0.149  -4.769  0.00  0.00    -0.043 C 
ATOM     35  C   UNL     1      -0.039   1.446  -4.590  0.00  0.00    +0.011 C 
ATOM     36  C   UNL     1      -0.021  -0.420  -6.164  0.00  0.00    +0.042 C 
ENDBRANCH  33  34
ENDBRANCH  32  33
ENDBRANCH   3  32
TORSDOF 8
