REMARK  Name = ZINC04197296
REMARK  13 active torsions:
REMARK  status: ('A' for Active; 'I' for Inactive)
REMARK    1  A    between atoms: C_1  and  C_2
REMARK    2  A    between atoms: C_7  and  N_8
REMARK    3  A    between atoms: C_17  and  S_18
REMARK    4  A    between atoms: S_18  and  C_19
REMARK    5  A    between atoms: C_19  and  C_21
REMARK    6  A    between atoms: C_19  and  C_22
REMARK    7  A    between atoms: N_24  and  C_25
REMARK    8  A    between atoms: N_24  and  C_29
REMARK    9  A    between atoms: C_25  and  C_26
REMARK   10  A    between atoms: C_26  and  N_65
REMARK   11  A    between atoms: C_27  and  N_65
REMARK   12  A    between atoms: C_28  and  N_65
REMARK   13  A    between atoms: C_29  and  C_30
REMARK                            x       y       z     vdW  Elec       q    Type
REMARK                         _______ _______ _______ _____ _____    ______ ____
ROOT
ATOM      1  S   UNL     1       2.129   3.781  -2.698  0.00  0.00    -0.075 S 
ENDROOT
BRANCH   1  11
ATOM      2  N   UNL     1       2.357   3.889   0.001  0.00  0.00    -0.255 N 
ATOM      3  C   UNL     1       2.932   4.227   1.170  0.00  0.00    +0.267 A 
ATOM      4  O   UNL     1       2.413   3.910   2.227  0.00  0.00    -0.267 OA
ATOM      5  C   UNL     1       4.162   4.957   1.157  0.00  0.00    +0.073 A 
ATOM      6  C   UNL     1       4.964   5.426   2.273  0.00  0.00    +0.023 A 
ATOM      7  C   UNL     1       6.095   6.105   2.028  0.00  0.00    +0.048 A 
ATOM      8  S   UNL     1       6.164   6.165   0.248  0.00  0.00    -0.077 S 
ATOM      9  C   UNL     1       4.672   5.275  -0.116  0.00  0.00    +0.116 A 
ATOM     10  N   UNL     1       4.052   4.916  -1.234  0.00  0.00    -0.216 NA
ATOM     11  C   UNL     1       2.922   4.240  -1.193  0.00  0.00    +0.178 A 
BRANCH   2  18
ATOM     12  C   UNL     1      -0.085   5.351   0.032  0.00  0.00    +0.046 C 
ATOM     13  C   UNL     1      -0.059   3.844   0.023  0.00  0.00    -0.026 A 
ATOM     14  C   UNL     1      -1.243   3.133   0.031  0.00  0.00    +0.005 A 
ATOM     15  C   UNL     1      -1.220   1.750   0.017  0.00  0.00    +0.000 A 
ATOM     16  C   UNL     1      -0.013   1.076   0.008  0.00  0.00    +0.002 A 
ATOM     17  C   UNL     1       1.174   1.782   0.000  0.00  0.00    +0.026 A 
ATOM     18  C   UNL     1       1.155   3.170   0.008  0.00  0.00    +0.055 A 
ENDBRANCH   2  18
ENDBRANCH   1  11
BRANCH   1  19
ATOM     19  C   UNL     1       3.289   4.489  -3.894  0.00  0.00    +0.137 C 
ATOM     20  C   UNL     1       3.293   6.013  -3.761  0.00  0.00    +0.029 C 
BRANCH  19  21
ATOM     21  C   UNL     1       2.868   4.107  -5.289  0.00  0.00    +0.229 C 
ATOM     22  O   UNL     1       1.708   3.840  -5.521  0.00  0.00    -0.274 OA
ATOM     23  N   UNL     1       3.780   4.062  -6.280  0.00  0.00    -0.298 N 
BRANCH  23  24
ATOM     24  C   UNL     1       5.182   4.385  -6.000  0.00  0.00    +0.089 C 
BRANCH  24  25
ATOM     25  C   UNL     1       5.929   3.110  -5.602  0.00  0.00    -0.060 C 
BRANCH  25  28
ATOM     26  C   UNL     1       7.450   4.292  -4.135  0.00  0.00    -0.097 C 
ATOM     27  C   UNL     1       8.135   2.211  -5.168  0.00  0.00    -0.097 C 
ATOM     28  N   UNL     1       7.344   3.448  -5.344  0.00  0.00    +0.377 N 
ATOM     29  H   UNL     1       7.715   3.969  -6.148  0.00  0.00    -0.083 HD
ENDBRANCH  25  28
ENDBRANCH  24  25
ENDBRANCH  23  24
BRANCH  23  30
ATOM     30  C   UNL     1       3.371   3.691  -7.637  0.00  0.00    +0.142 C 
BRANCH  30  31
ATOM     31  C   UNL     1       2.975   4.930  -8.399  0.00  0.00    -0.030 A 
ATOM     32  C   UNL     1       1.664   5.366  -8.377  0.00  0.00    +0.005 A 
ATOM     33  C   UNL     1       1.302   6.505  -9.071  0.00  0.00    +0.000 A 
ATOM     34  C   UNL     1       2.250   7.202  -9.796  0.00  0.00    +0.000 A 
ATOM     35  C   UNL     1       3.561   6.763  -9.823  0.00  0.00    +0.000 A 
ATOM     36  C   UNL     1       3.923   5.627  -9.124  0.00  0.00    +0.005 A 
ENDBRANCH  30  31
ENDBRANCH  23  30
ENDBRANCH  19  21
ENDBRANCH   1  19
TORSDOF 9
