REMARK  Name = ZINC22474542
REMARK  6 active torsions:
REMARK  status: ('A' for Active; 'I' for Inactive)
REMARK    1  A    between atoms: N_9  and  C_12
REMARK    2  A    between atoms: C_12  and  C_13
REMARK    3  A    between atoms: C_13  and  C_14
REMARK    4  A    between atoms: C_14  and  C_15
REMARK    5  A    between atoms: C_15  and  N_16
REMARK    6  A    between atoms: C_20  and  C_22
REMARK                            x       y       z     vdW  Elec       q    Type
REMARK                         _______ _______ _______ _____ _____    ______ ____
ROOT
ATOM      1  N   UNL     1      -2.187   1.900  -0.709  0.00  0.00    +0.384 N 
ATOM      2  C   UNL     1      -0.820   1.627  -1.191  0.00  0.00    -0.078 C 
ATOM      3  C   UNL     1      -0.013   1.086   0.008  0.00  0.00    -0.020 C 
ATOM      4  C   UNL     1      -0.801   1.617   1.234  0.00  0.00    -0.013 C 
ATOM      5  C   UNL     1      -2.265   1.531   0.720  0.00  0.00    -0.038 C 
ATOM      6  H   UNL     1      -2.414   2.970  -0.832  0.00  0.00    -0.081 HD
ENDROOT
BRANCH   5   7
ATOM      7  C   UNL     1      -3.140   2.504   1.466  0.00  0.00    -0.057 A 
ATOM      8  C   UNL     1      -3.072   3.855   1.177  0.00  0.00    +0.006 A 
ATOM      9  C   UNL     1      -3.873   4.754   1.858  0.00  0.00    +0.049 A 
ATOM     10  C   UNL     1      -4.744   4.297   2.832  0.00  0.00    +0.162 A 
ATOM     11  C   UNL     1      -4.813   2.942   3.122  0.00  0.00    +0.162 A 
ATOM     12  C   UNL     1      -4.014   2.043   2.435  0.00  0.00    +0.051 A 
ATOM     13  O   UNL     1      -5.675   2.501   4.084  0.00  0.00    -0.488 OA
ATOM     14  C   UNL     1      -7.066   2.612   3.775  0.00  0.00    +0.232 C 
ATOM     15  C   UNL     1      -7.582   4.003   4.107  0.00  0.00    +0.082 C 
ATOM     16  C   UNL     1      -6.941   5.080   3.247  0.00  0.00    +0.232 C 
ATOM     17  O   UNL     1      -5.539   5.173   3.511  0.00  0.00    -0.488 OA
ENDBRANCH   5   7
BRANCH   1  18
ATOM     18  C   UNL     1      -3.180   1.161  -1.499  0.00  0.00    -0.078 C 
BRANCH  18  19
ATOM     19  C   UNL     1      -3.255   1.754  -2.908  0.00  0.00    -0.017 C 
BRANCH  19  20
ATOM     20  C   UNL     1      -4.291   0.985  -3.731  0.00  0.00    +0.018 C 
BRANCH  20  21
ATOM     21  C   UNL     1      -4.366   1.577  -5.139  0.00  0.00    +0.117 C 
BRANCH  21  30
ATOM     22  C   UNL     1      -8.947  -1.025  -8.181  0.00  0.00    +0.001 A 
ATOM     23  C   UNL     1      -7.963  -1.899  -8.602  0.00  0.00    +0.001 A 
ATOM     24  C   UNL     1      -6.654  -1.743  -8.173  0.00  0.00    +0.014 A 
ATOM     25  C   UNL     1      -6.332  -0.703  -7.316  0.00  0.00    +0.049 A 
ATOM     26  C   UNL     1      -7.336   0.189  -6.887  0.00  0.00    +0.049 A 
ATOM     27  C   UNL     1      -8.640   0.020  -7.324  0.00  0.00    +0.014 A 
ATOM     28  C   UNL     1      -6.662   1.159  -5.999  0.00  0.00    +0.254 C 
ATOM     29  O   UNL     1      -7.197   2.089  -5.430  0.00  0.00    -0.270 OA
ATOM     30  N   UNL     1      -5.357   0.840  -5.927  0.00  0.00    -0.234 N 
ATOM     31  C   UNL     1      -5.081  -0.241  -6.678  0.00  0.00    +0.254 C 
ATOM     32  O   UNL     1      -3.988  -0.753  -6.809  0.00  0.00    -0.270 OA
ENDBRANCH  21  30
ENDBRANCH  20  21
ENDBRANCH  19  20
ENDBRANCH  18  19
ENDBRANCH   1  18
TORSDOF 6
