REMARK  Name = ZINC40915589
REMARK  6 active torsions:
REMARK  status: ('A' for Active; 'I' for Inactive)
REMARK    1  A    between atoms: C_1  and  C_2
REMARK    2  A    between atoms: C_3  and  C_27
REMARK    3  A    between atoms: C_4  and  C_12
REMARK    4  A    between atoms: C_15  and  O_18
REMARK    5  A    between atoms: O_18  and  C_19
REMARK    6  A    between atoms: C_19  and  C_20
REMARK                            x       y       z     vdW  Elec       q    Type
REMARK                         _______ _______ _______ _____ _____    ______ ____
ROOT
ATOM      1  C   UNL     1      -0.018   1.503   0.010  0.00  0.00    +0.061 C 
ATOM      2  C   UNL     1       0.002  -0.004   0.002  0.00  0.00    +0.018 C 
ATOM      3  C   UNL     1      -1.163  -0.668   0.004  0.00  0.00    +0.060 C 
ATOM      4  C   UNL     1      -1.253  -2.171  -0.016  0.00  0.00    +0.177 C 
ATOM      5  N   UNL     1       0.064  -2.740   0.255  0.00  0.00    -0.221 N 
ATOM      6  C   UNL     1       1.211  -2.016   0.249  0.00  0.00    +0.218 A 
ATOM      7  N   UNL     1       2.199  -2.824   0.520  0.00  0.00    -0.201 NA
ATOM      8  C   UNL     1       1.727  -4.060   0.708  0.00  0.00    +0.247 A 
ATOM      9  N   UNL     1       0.425  -4.052   0.556  0.00  0.00    -0.156 NA
ATOM     10  N   UNL     1       1.213  -0.651  -0.013  0.00  0.00    -0.287 N 
ATOM     11  H   UNL     1       2.038  -0.174  -0.196  0.00  0.00    +0.155 HD
ENDROOT
BRANCH   4  12
ATOM     12  C   UNL     1      -1.729  -2.627  -1.371  0.00  0.00    -0.018 A 
ATOM     13  C   UNL     1      -0.990  -2.326  -2.499  0.00  0.00    +0.009 A 
ATOM     14  C   UNL     1      -1.425  -2.744  -3.743  0.00  0.00    +0.046 A 
ATOM     15  C   UNL     1      -2.603  -3.466  -3.857  0.00  0.00    +0.121 A 
ATOM     16  C   UNL     1      -3.343  -3.767  -2.723  0.00  0.00    +0.046 A 
ATOM     17  C   UNL     1      -2.901  -3.352  -1.482  0.00  0.00    +0.009 A 
BRANCH  15  18
ATOM     18  O   UNL     1      -3.033  -3.877  -5.079  0.00  0.00    -0.487 OA
BRANCH  18  19
ATOM     19  C   UNL     1      -4.255  -4.617  -5.122  0.00  0.00    +0.264 C 
BRANCH  19  20
ATOM     20  C   UNL     1      -4.570  -4.985  -6.549  0.00  0.00    -0.010 A 
ATOM     21  C   UNL     1      -5.323  -4.130  -7.333  0.00  0.00    +0.008 A 
ATOM     22  C   UNL     1      -5.612  -4.467  -8.642  0.00  0.00    +0.015 A 
ATOM     23  C   UNL     1      -5.147  -5.660  -9.168  0.00  0.00    +0.018 A 
ATOM     24  C   UNL     1      -4.394  -6.514  -8.383  0.00  0.00    +0.015 A 
ATOM     25  C   UNL     1      -4.102  -6.174  -7.075  0.00  0.00    +0.008 A 
ATOM     26 BR   UNL     1      -5.542  -6.121 -10.958  0.00  0.00    -0.050 Br
ENDBRANCH  19  20
ENDBRANCH  18  19
ENDBRANCH  15  18
ENDBRANCH   4  12
BRANCH   3  27
ATOM     27  C   UNL     1      -2.365   0.079   0.026  0.00  0.00    +0.241 C 
ATOM     28  O   UNL     1      -2.325   1.296   0.043  0.00  0.00    -0.271 OA
ATOM     29  N   UNL     1      -3.553  -0.556   0.029  0.00  0.00    -0.325 N 
ATOM     30  H   UNL     1      -3.585  -1.525   0.016  0.00  0.00    +0.145 HD
ATOM     31  H   UNL     1      -4.377  -0.044   0.044  0.00  0.00    +0.145 HD
ENDBRANCH   3  27
TORSDOF 5
