REMARK  Name = ZINC39488275
REMARK  13 active torsions:
REMARK  status: ('A' for Active; 'I' for Inactive)
REMARK    1  A    between atoms: C_1  and  C_2
REMARK    2  A    between atoms: C_2  and  O_3
REMARK    3  A    between atoms: O_3  and  N_4
REMARK    4  A    between atoms: C_7  and  C_10
REMARK    5  A    between atoms: C_7  and  C_31
REMARK    6  A    between atoms: C_10  and  N_11
REMARK    7  A    between atoms: N_14  and  S_25
REMARK    8  A    between atoms: C_16  and  C_17
REMARK    9  A    between atoms: C_16  and  C_18
REMARK   10  A    between atoms: C_23  and  O_24
REMARK   11  A    between atoms: S_25  and  C_28
REMARK   12  A    between atoms: C_28  and  C_29
REMARK   13  A    between atoms: C_28  and  C_30
REMARK                            x       y       z     vdW  Elec       q    Type
REMARK                         _______ _______ _______ _____ _____    ______ ____
ROOT
ATOM      1  N   UNL     1       2.157  -2.204  -3.498  0.00  0.00    -0.273 N 
ATOM      2  C   UNL     1       3.091  -1.544  -2.801  0.00  0.00    +0.325 C 
ATOM      3  O   UNL     1       3.986  -2.103  -2.197  0.00  0.00    -0.251 OA
ATOM      4  N   UNL     1       2.950  -0.212  -2.829  0.00  0.00    -0.157 N 
ATOM      5  C   UNL     1       1.775   0.132  -3.643  0.00  0.00    +0.166 C 
ATOM      6  C   UNL     1       1.234  -1.234  -4.107  0.00  0.00    +0.082 C 
ATOM      7  C   UNL     1      -0.190  -1.449  -3.589  0.00  0.00    +0.039 C 
ENDROOT
BRANCH   6   8
ATOM      8  C   UNL     1       1.273  -1.338  -5.610  0.00  0.00    +0.019 A 
ATOM      9  C   UNL     1       2.114  -2.251  -6.218  0.00  0.00    +0.009 A 
ATOM     10  C   UNL     1       2.151  -2.347  -7.596  0.00  0.00    +0.001 A 
ATOM     11  C   UNL     1       1.346  -1.530  -8.370  0.00  0.00    +0.004 A 
ATOM     12  C   UNL     1       0.504  -0.617  -7.767  0.00  0.00    +0.046 A 
ATOM     13  C   UNL     1       0.461  -0.522  -6.384  0.00  0.00    +0.122 A 
BRANCH  13  14
ATOM     14  O   UNL     1      -0.371   0.372  -5.788  0.00  0.00    -0.506 OA
ATOM     15  H   UNL     1       0.026   1.241  -5.641  0.00  0.00    +0.292 HD
ENDBRANCH  13  14
ENDBRANCH   6   8
BRANCH   4  16
ATOM     16  S   UNL     1       3.942   0.874  -2.068  0.00  0.00    +0.051 S 
ATOM     17  O   UNL     1       3.123   2.011  -1.835  0.00  0.00    -0.155 OA
ATOM     18  O   UNL     1       4.505   0.151  -0.981  0.00  0.00    -0.155 OA
BRANCH  16  19
ATOM     19  C   UNL     1       5.226   1.267  -3.288  0.00  0.00    +0.145 C 
ATOM     20  C   UNL     1       4.579   1.895  -4.524  0.00  0.00    +0.033 C 
ATOM     21  C   UNL     1       6.224   2.253  -2.678  0.00  0.00    +0.033 C 
ENDBRANCH  16  19
ENDBRANCH   4  16
BRANCH   1  22
ATOM     22  C   UNL     1       2.071  -3.659  -3.637  0.00  0.00    +0.117 C 
BRANCH  22  26
ATOM     23  N   UNL     1      -0.689  -5.843  -3.520  0.00  0.00    -0.188 NA
ATOM     24  C   UNL     1      -0.789  -4.378  -3.505  0.00  0.00    +0.115 C 
ATOM     25  C   UNL     1      -0.032  -3.826  -2.295  0.00  0.00    +0.026 C 
ATOM     26  C   UNL     1       1.436  -4.255  -2.379  0.00  0.00    -0.008 C 
ATOM     27  C   UNL     1       1.510  -5.783  -2.443  0.00  0.00    +0.026 C 
ATOM     28  C   UNL     1       0.708  -6.278  -3.648  0.00  0.00    +0.115 C 
BRANCH  26  29
ATOM     29  C   UNL     1       2.186  -3.758  -1.141  0.00  0.00    -0.003 C 
ATOM     30  C   UNL     1       3.621  -4.288  -1.167  0.00  0.00    +0.004 C 
ATOM     31  C   UNL     1       4.370  -3.791   0.070  0.00  0.00    +0.000 C 
ATOM     32  C   UNL     1       3.664  -4.294   1.331  0.00  0.00    +0.000 C 
ATOM     33  C   UNL     1       2.229  -3.765   1.357  0.00  0.00    +0.000 C 
ATOM     34  C   UNL     1       1.479  -4.262   0.119  0.00  0.00    +0.004 C 
ENDBRANCH  26  29
BRANCH  23  35
ATOM     35  O   UNL     1      -1.516  -6.414  -4.584  0.00  0.00    -0.297 OA
BRANCH  35  37
ATOM     36  C   UNL     1      -3.368  -7.793  -5.295  0.00  0.00    +0.036 C 
ATOM     37  C   UNL     1      -2.651  -7.141  -4.111  0.00  0.00    +0.182 C 
ENDBRANCH  35  37
ENDBRANCH  23  35
ENDBRANCH  22  26
ENDBRANCH   1  22
TORSDOF 9
