REMARK  Name = ZINC15034145
REMARK  8 active torsions:
REMARK  status: ('A' for Active; 'I' for Inactive)
REMARK    1  A    between atoms: C_4  and  C_7
REMARK    2  A    between atoms: C_16  and  C_17
REMARK    3  A    between atoms: C_16  and  N_55
REMARK    4  A    between atoms: N_19  and  C_20
REMARK    5  A    between atoms: C_20  and  C_21
REMARK    6  A    between atoms: C_21  and  C_22
REMARK    7  A    between atoms: C_25  and  O_28
REMARK    8  A    between atoms: O_28  and  C_29
REMARK                            x       y       z     vdW  Elec       q    Type
REMARK                         _______ _______ _______ _____ _____    ______ ____
ROOT
ATOM      1  C   UNL     1       1.248  -6.330  -2.652  0.00  0.00    +0.020 C 
ENDROOT
BRANCH   1  10
ATOM      2  C   UNL     1       2.377  -6.636  -4.772  0.00  0.00    -0.005 C 
ATOM      3  C   UNL     1       2.176  -7.133  -6.200  0.00  0.00    -0.047 A 
ATOM      4  C   UNL     1       3.220  -7.462  -7.062  0.00  0.00    +0.010 A 
ATOM      5  C   UNL     1       2.952  -7.898  -8.315  0.00  0.00    +0.045 A 
ATOM      6  S   UNL     1       1.165  -7.864  -8.343  0.00  0.00    -0.101 S 
ATOM      7  C   UNL     1       0.913  -7.274  -6.692  0.00  0.00    -0.010 A 
ATOM      8  C   UNL     1      -0.362  -6.986  -5.971  0.00  0.00    +0.024 C 
ATOM      9  C   UNL     1      -0.015  -6.173  -4.712  0.00  0.00    -0.072 C 
ATOM     10  N   UNL     1       1.113  -6.848  -4.027  0.00  0.00    +0.393 N 
ATOM     11  H   UNL     1       0.919  -7.856  -3.985  0.00  0.00    -0.080 HD
BRANCH   2  15
ATOM     12  C   UNL     1       5.477  -8.892  -2.889  0.00  0.00    +0.000 A 
ATOM     13  C   UNL     1       5.745  -7.631  -3.387  0.00  0.00    +0.000 A 
ATOM     14  C   UNL     1       4.742  -6.901  -3.996  0.00  0.00    +0.002 A 
ATOM     15  C   UNL     1       3.470  -7.432  -4.108  0.00  0.00    -0.057 A 
ATOM     16  C   UNL     1       3.201  -8.691  -3.606  0.00  0.00    +0.002 A 
ATOM     17  C   UNL     1       4.206  -9.424  -3.001  0.00  0.00    +0.000 A 
ENDBRANCH   2  15
ENDBRANCH   1  10
BRANCH   1  18
ATOM     18  C   UNL     1       1.429  -4.833  -2.659  0.00  0.00    +0.197 C 
ATOM     19  O   UNL     1       1.550  -4.242  -3.711  0.00  0.00    -0.278 OA
ATOM     20  N   UNL     1       1.457  -4.153  -1.496  0.00  0.00    -0.317 N 
ATOM     21  H   UNL     1       1.361  -4.626  -0.654  0.00  0.00    +0.149 HD
BRANCH  20  22
ATOM     22  C   UNL     1       1.633  -2.698  -1.503  0.00  0.00    +0.109 C 
BRANCH  22  23
ATOM     23  C   UNL     1       1.629  -2.177  -0.064  0.00  0.00    +0.054 C 
BRANCH  23  24
ATOM     24  C   UNL     1       1.810  -0.681  -0.071  0.00  0.00    -0.046 A 
ATOM     25  C   UNL     1       0.705   0.147  -0.129  0.00  0.00    +0.007 A 
ATOM     26  C   UNL     1       0.868   1.519  -0.135  0.00  0.00    +0.046 A 
ATOM     27  C   UNL     1       2.142   2.065  -0.083  0.00  0.00    +0.127 A 
ATOM     28  C   UNL     1       3.249   1.232  -0.024  0.00  0.00    +0.046 A 
ATOM     29  C   UNL     1       3.081  -0.140  -0.018  0.00  0.00    +0.007 A 
BRANCH  27  30
ATOM     30  O   UNL     1       2.305   3.414  -0.089  0.00  0.00    -0.434 OA
BRANCH  30  31
ATOM     31  C   UNL     1       3.646   3.906  -0.033  0.00  0.00    +0.541 C 
ATOM     32  F   UNL     1       4.257   3.459   1.143  0.00  0.00    -0.166 F 
ATOM     33  F   UNL     1       4.361   3.436  -1.139  0.00  0.00    -0.166 F 
ENDBRANCH  30  31
ENDBRANCH  27  30
ENDBRANCH  23  24
ENDBRANCH  22  23
ENDBRANCH  20  22
ENDBRANCH   1  18
TORSDOF 8
