REMARK  Name = ZINC07314633
REMARK  8 active torsions:
REMARK  status: ('A' for Active; 'I' for Inactive)
REMARK    1  A    between atoms: C_1  and  C_2
REMARK    2  A    between atoms: C_2  and  C_3
REMARK    3  A    between atoms: C_8  and  N_9
REMARK    4  A    between atoms: N_12  and  C_15
REMARK    5  A    between atoms: C_15  and  N_16
REMARK    6  A    between atoms: N_16  and  C_17
REMARK    7  A    between atoms: N_16  and  C_18
REMARK    8  A    between atoms: C_18  and  C_19
REMARK                            x       y       z     vdW  Elec       q    Type
REMARK                         _______ _______ _______ _____ _____    ______ ____
ROOT
ATOM      1  N   UNL     1       2.856  -0.273  -0.123  0.00  0.00    -0.259 N 
ATOM      2  C   UNL     1       3.183  -1.126   0.908  0.00  0.00    +0.223 A 
ATOM      3  N   UNL     1       3.848  -0.459   1.805  0.00  0.00    -0.136 NA
ATOM      4  N   UNL     1       3.966   0.866   1.362  0.00  0.00    -0.256 N 
ATOM      5  C   UNL     1       3.348   0.948   0.165  0.00  0.00    +0.182 A 
ATOM      6  S   UNL     1       3.211   2.350  -0.808  0.00  0.00    -0.011 S 
ATOM      7  N   UNL     1       2.857  -2.473   0.978  0.00  0.00    -0.295 N 
ATOM      8  C   UNL     1       3.370  -3.321   2.065  0.00  0.00    +0.136 C 
ATOM      9  C   UNL     1       2.190  -4.075   2.688  0.00  0.00    +0.179 C 
ATOM     10  O   UNL     1       1.458  -4.741   1.655  0.00  0.00    -0.377 OA
ATOM     11  C   UNL     1       0.874  -3.861   0.692  0.00  0.00    +0.179 C 
ATOM     12  C   UNL     1       1.982  -3.094  -0.030  0.00  0.00    +0.136 C 
ENDROOT
BRANCH   1  18
ATOM     13  C   UNL     1       0.756  -0.505  -1.296  0.00  0.00    -0.024 A 
ATOM     14  C   UNL     1       0.053  -0.839  -2.438  0.00  0.00    +0.005 A 
ATOM     15  C   UNL     1       0.725  -1.291  -3.558  0.00  0.00    +0.000 A 
ATOM     16  C   UNL     1       2.103  -1.410  -3.540  0.00  0.00    +0.002 A 
ATOM     17  C   UNL     1       2.811  -1.077  -2.402  0.00  0.00    +0.026 A 
ATOM     18  C   UNL     1       2.139  -0.617  -1.278  0.00  0.00    +0.055 A 
BRANCH  13  20
ATOM     19  C   UNL     1      -0.001   1.517  -0.076  0.00  0.00    +0.009 C 
ATOM     20  C   UNL     1       0.022  -0.013  -0.075  0.00  0.00    +0.034 C 
ENDBRANCH  13  20
ENDBRANCH   1  18
BRANCH   4  21
ATOM     21  C   UNL     1       4.641   1.959   2.066  0.00  0.00    +0.072 C 
BRANCH  21  22
ATOM     22  N   UNL     1       6.096   1.792   1.950  0.00  0.00    +0.394 N 
ATOM     23  C   UNL     1       6.505   0.567   2.650  0.00  0.00    -0.093 C 
ATOM     24  H   UNL     1       6.349   1.723   0.976  0.00  0.00    -0.079 HD
BRANCH  22  25
ATOM     25  C   UNL     1       6.771   2.949   2.552  0.00  0.00    -0.041 C 
BRANCH  25  26
ATOM     26  C   UNL     1       8.257   2.837   2.324  0.00  0.00    -0.064 A 
ATOM     27  C   UNL     1       9.050   2.180   3.246  0.00  0.00    +0.002 A 
ATOM     28  C   UNL     1      10.413   2.078   3.038  0.00  0.00    +0.000 A 
ATOM     29  C   UNL     1      10.982   2.633   1.907  0.00  0.00    +0.000 A 
ATOM     30  C   UNL     1      10.189   3.289   0.984  0.00  0.00    +0.000 A 
ATOM     31  C   UNL     1       8.826   3.388   1.191  0.00  0.00    +0.002 A 
ENDBRANCH  25  26
ENDBRANCH  22  25
ENDBRANCH  21  22
ENDBRANCH   4  21
TORSDOF 6
