REMARK  Name = ZINC59014509
REMARK  8 active torsions:
REMARK  status: ('A' for Active; 'I' for Inactive)
REMARK    1  A    between atoms: C_4  and  O_7
REMARK    2  A    between atoms: O_7  and  C_8
REMARK    3  A    between atoms: C_13  and  N_14
REMARK    4  A    between atoms: C_15  and  C_17
REMARK    5  A    between atoms: C_17  and  S_18
REMARK    6  A    between atoms: S_18  and  C_19
REMARK    7  A    between atoms: N_24  and  N_25
REMARK    8  A    between atoms: C_26  and  C_27
REMARK                            x       y       z     vdW  Elec       q    Type
REMARK                         _______ _______ _______ _____ _____    ______ ____
ROOT
ATOM      1  S   UNL     1       9.755  -3.112  -0.011  0.00  0.00    -0.075 S 
ENDROOT
BRANCH   1   2
ATOM      2  C   UNL     1      11.205  -2.123  -0.161  0.00  0.00    +0.211 A 
ATOM      3  N   UNL     1      12.459  -2.585  -0.201  0.00  0.00    -0.186 NA
ATOM      4  C   UNL     1      13.299  -1.577  -0.317  0.00  0.00    +0.232 A 
ATOM      5  N   UNL     1      12.578  -0.436  -0.353  0.00  0.00    -0.245 N 
ATOM      6  N   UNL     1      11.229  -0.815  -0.256  0.00  0.00    -0.144 NA
ATOM      7  N   UNL     1      14.676  -1.671  -0.389  0.00  0.00    -0.205 N 
ATOM      8  H   UNL     1      15.213  -0.868  -0.474  0.00  0.00    +0.177 HD
ATOM      9  H   UNL     1      12.923   0.466  -0.434  0.00  0.00    +0.192 HD
BRANCH   7  10
ATOM     10  N   UNL     1      15.297  -2.926  -0.339  0.00  0.00    -0.188 NA
ATOM     11  C   UNL     1      16.590  -3.014  -0.407  0.00  0.00    +0.139 C 
BRANCH  11  12
ATOM     12  C   UNL     1      17.243  -4.335  -0.354  0.00  0.00    +0.013 A 
ATOM     13  C   UNL     1      18.635  -4.433  -0.421  0.00  0.00    +0.012 A 
ATOM     14  C   UNL     1      19.240  -5.671  -0.371  0.00  0.00    +0.021 A 
ATOM     15  C   UNL     1      18.470  -6.817  -0.255  0.00  0.00    +0.042 A 
ATOM     16  C   UNL     1      17.090  -6.728  -0.189  0.00  0.00    +0.040 A 
ATOM     17  C   UNL     1      16.472  -5.495  -0.232  0.00  0.00    +0.051 A 
ATOM     18 CL   UNL     1      14.742  -5.384  -0.142  0.00  0.00    -0.083 Cl
ATOM     19 CL   UNL     1      19.240  -8.372  -0.194  0.00  0.00    -0.083 Cl
ENDBRANCH  11  12
ENDBRANCH   7  10
ENDBRANCH   1   2
BRANCH   1  20
ATOM     20  C   UNL     1       8.399  -1.908  -0.024  0.00  0.00    +0.173 C 
BRANCH  20  22
ATOM     21  N   UNL     1       5.929  -1.934   0.113  0.00  0.00    -0.282 N 
ATOM     22  C   UNL     1       7.082  -2.631   0.100  0.00  0.00    +0.228 C 
ATOM     23  O   UNL     1       7.061  -3.841   0.188  0.00  0.00    -0.275 OA
ATOM     24  H   UNL     1       5.948  -0.965   0.100  0.00  0.00    +0.155 HD
BRANCH  21  30
ATOM     25  C   UNL     1       3.596  -2.081  -0.517  0.00  0.00    +0.150 A 
ATOM     26  C   UNL     1       2.386  -2.758  -0.487  0.00  0.00    +0.048 A 
ATOM     27  C   UNL     1       2.279  -3.951   0.202  0.00  0.00    +0.004 A 
ATOM     28  C   UNL     1       3.375  -4.474   0.863  0.00  0.00    +0.002 A 
ATOM     29  C   UNL     1       4.585  -3.806   0.838  0.00  0.00    +0.027 A 
ATOM     30  C   UNL     1       4.702  -2.611   0.144  0.00  0.00    +0.076 A 
BRANCH  25  31
ATOM     31  O   UNL     1       3.704  -0.907  -1.194  0.00  0.00    -0.454 OA
BRANCH  31  35
ATOM     32  C   UNL     1       0.273   0.723  -2.804  0.00  0.00    +0.000 A 
ATOM     33  C   UNL     1       0.422   0.646  -1.431  0.00  0.00    +0.004 A 
ATOM     34  C   UNL     1       1.570   0.101  -0.890  0.00  0.00    +0.046 A 
ATOM     35  C   UNL     1       2.573  -0.371  -1.724  0.00  0.00    +0.129 A 
ATOM     36  C   UNL     1       2.421  -0.293  -3.101  0.00  0.00    +0.046 A 
ATOM     37  C   UNL     1       1.271   0.254  -3.638  0.00  0.00    +0.004 A 
ENDBRANCH  31  35
ENDBRANCH  25  31
ENDBRANCH  21  30
ENDBRANCH  20  22
ENDBRANCH   1  20
TORSDOF 8
