REMARK  Name = ZINC36556581
REMARK  6 active torsions:
REMARK  status: ('A' for Active; 'I' for Inactive)
REMARK    1  A    between atoms: C_6  and  C_7
REMARK    2  A    between atoms: C_7  and  O_22
REMARK    3  A    between atoms: C_10  and  C_20
REMARK    4  A    between atoms: C_11  and  C_12
REMARK    5  A    between atoms: C_11  and  C_14
REMARK    6  A    between atoms: N_18  and  N_19
REMARK                            x       y       z     vdW  Elec       q    Type
REMARK                         _______ _______ _______ _____ _____    ______ ____
ROOT
ATOM      1  C   UNL     1      -1.293  -0.775   0.010  0.00  0.00    +0.180 C 
ATOM      2  C   UNL     1      -1.776  -0.994   1.459  0.00  0.00    +0.111 C 
ATOM      3  C   UNL     1      -2.869   0.080   1.645  0.00  0.00    +0.153 C 
ATOM      4  C   UNL     1      -3.226  -1.436   1.674  0.00  0.00    +0.177 C 
ATOM      5  C   UNL     1      -2.926   0.816   0.322  0.00  0.00    +0.108 C 
ATOM      6  N   UNL     1      -3.421   1.994   0.128  0.00  0.00    -0.388 N 
ATOM      7  N   UNL     1      -2.359   0.009  -0.635  0.00  0.00    -0.222 N 
ATOM      8  H   UNL     1      -3.801   2.489   0.871  0.00  0.00    +0.157 HD
ATOM      9  H   UNL     1      -3.413   2.384  -0.760  0.00  0.00    +0.157 HD
ENDROOT
BRANCH   1  15
ATOM     10  C   UNL     1      -0.017   1.378   0.010  0.00  0.00    +0.009 A 
ATOM     11  C   UNL     1       1.171   2.086   0.002  0.00  0.00    +0.016 A 
ATOM     12  C   UNL     1       2.378   1.411  -0.013  0.00  0.00    +0.018 A 
ATOM     13  C   UNL     1       2.396   0.027  -0.021  0.00  0.00    +0.016 A 
ATOM     14  C   UNL     1       1.208  -0.679  -0.013  0.00  0.00    +0.009 A 
ATOM     15  C   UNL     1       0.002  -0.004   0.002  0.00  0.00    +0.004 A 
ATOM     16 BR   UNL     1       4.003   2.378  -0.024  0.00  0.00    -0.050 Br
ENDBRANCH   1  15
BRANCH   7  17
ATOM     17  N   UNL     1      -2.720  -0.053  -1.952  0.00  0.00    -0.250 NA
ATOM     18  H   UNL     1      -3.478   0.583  -2.149  0.00  0.00    +0.141 HD
ATOM     19  H   UNL     1      -1.930   0.129  -2.552  0.00  0.00    +0.141 HD
ENDBRANCH   7  17
BRANCH   4  20
ATOM     20  C   UNL     1      -3.941  -2.004   0.519  0.00  0.00    +0.087 C 
ATOM     21  N   UNL     1      -4.492  -2.442  -0.372  0.00  0.00    -0.195 NA
ENDBRANCH   4  20
BRANCH   4  22
ATOM     22  C   UNL     1      -3.571  -2.018   2.982  0.00  0.00    +0.087 C 
ATOM     23  N   UNL     1      -3.837  -2.467   3.990  0.00  0.00    -0.195 NA
ENDBRANCH   4  22
BRANCH   3  24
ATOM     24  C   UNL     1      -2.966   0.875   2.880  0.00  0.00    +0.080 C 
ATOM     25  N   UNL     1      -3.041   1.488   3.833  0.00  0.00    -0.195 NA
ENDBRANCH   3  24
BRANCH   1  26
ATOM     26  O   UNL     1      -1.127  -2.029  -0.655  0.00  0.00    -0.366 OA
ATOM     27  H   UNL     1      -0.846  -1.951  -1.577  0.00  0.00    +0.212 HD
ENDBRANCH   1  26
TORSDOF 6
