REMARK  Name = ZINC11917583
REMARK  7 active torsions:
REMARK  status: ('A' for Active; 'I' for Inactive)
REMARK    1  A    between atoms: C_1  and  C_2
REMARK    2  A    between atoms: C_2  and  C_3
REMARK    3  A    between atoms: C_3  and  C_4
REMARK    4  A    between atoms: C_3  and  C_6
REMARK    5  A    between atoms: C_4  and  C_5
REMARK    6  A    between atoms: N_8  and  C_9
REMARK    7  A    between atoms: C_16  and  C_19
REMARK                            x       y       z     vdW  Elec       q    Type
REMARK                         _______ _______ _______ _____ _____    ______ ____
ROOT
ATOM      1  C   UNL     1      -0.606   0.891   4.703  0.00  0.00    +0.227 A 
ATOM      2  C   UNL     1      -0.701   0.936   3.357  0.00  0.00    +0.037 A 
ATOM      3  C   UNL     1      -1.511   2.063   3.096  0.00  0.00    +0.089 A 
ATOM      4  N   UNL     1      -1.819   2.569   4.245  0.00  0.00    -0.081 NA
ATOM      5  O   UNL     1      -1.327   1.935   5.158  0.00  0.00    -0.339 OA
ATOM      6  C   UNL     1      -1.881   2.507   1.705  0.00  0.00    +0.059 C 
ATOM      7  C   UNL     1      -0.924   1.827   0.717  0.00  0.00    +0.010 C 
ATOM      8  C   UNL     1      -0.879   0.321   0.985  0.00  0.00    -0.009 C 
ATOM      9  C   UNL     1      -0.124   0.047   2.294  0.00  0.00    +0.045 C 
ATOM     10  C   UNL     1      -0.163  -0.380  -0.171  0.00  0.00    +0.008 C 
ENDROOT
BRANCH   1  13
ATOM     11  C   UNL     1       0.088   0.052   6.807  0.00  0.00    +0.222 C 
ATOM     12  O   UNL     1      -0.521   0.947   7.353  0.00  0.00    -0.275 OA
ATOM     13  N   UNL     1       0.090  -0.039   5.462  0.00  0.00    -0.254 N 
ATOM     14  H   UNL     1       0.578  -0.754   5.025  0.00  0.00    +0.158 HD
BRANCH  11  15
ATOM     15  C   UNL     1       0.845  -0.958   7.631  0.00  0.00    +0.075 C 
BRANCH  15  17
ATOM     16  C   UNL     1       2.888   0.479   7.564  0.00  0.00    +0.004 C 
ATOM     17  C   UNL     1       2.328  -0.912   7.259  0.00  0.00    +0.009 C 
ENDBRANCH  15  17
BRANCH  15  18
ATOM     18  C   UNL     1       0.681  -0.629   9.116  0.00  0.00    +0.009 C 
ATOM     19  C   UNL     1       1.337  -1.726   9.957  0.00  0.00    +0.004 C 
ENDBRANCH  15  18
ENDBRANCH  11  15
ENDBRANCH   1  13
TORSDOF 4
