REMARK  Name = ZINC38772420
REMARK  9 active torsions:
REMARK  status: ('A' for Active; 'I' for Inactive)
REMARK    1  A    between atoms: C_1  and  C_2
REMARK    2  A    between atoms: C_5  and  S_8
REMARK    3  A    between atoms: S_8  and  C_9
REMARK    4  A    between atoms: C_9  and  C_10
REMARK    5  A    between atoms: C_10  and  C_11
REMARK    6  A    between atoms: N_13  and  C_14
REMARK    7  A    between atoms: C_14  and  C_15
REMARK    8  A    between atoms: C_15  and  N_16
REMARK    9  A    between atoms: C_27  and  C_31
REMARK                            x       y       z     vdW  Elec       q    Type
REMARK                         _______ _______ _______ _____ _____    ______ ____
ROOT
ATOM      1  N   UNL     1       0.172 -10.424   6.677  0.00  0.00    +0.383 N 
ATOM      2  C   UNL     1      -1.081  -9.984   7.303  0.00  0.00    -0.059 C 
ATOM      3  C   UNL     1      -1.022 -10.258   8.809  0.00  0.00    +0.088 C 
ATOM      4  N   UNL     1      -0.709 -11.682   9.012  0.00  0.00    -0.313 N 
ATOM      5  C   UNL     1       0.440 -12.248   8.290  0.00  0.00    +0.088 C 
ATOM      6  C   UNL     1       0.312 -11.879   6.808  0.00  0.00    -0.059 C 
ATOM      7  C   UNL     1      -1.473 -12.463   9.855  0.00  0.00    +0.162 A 
ATOM      8  N   UNL     1      -2.525 -12.124  10.565  0.00  0.00    -0.225 NA
ATOM      9  C   UNL     1      -3.180 -13.003  11.355  0.00  0.00    +0.080 A 
ATOM     10  C   UNL     1      -4.316 -12.770  12.164  0.00  0.00    +0.029 A 
ATOM     11  C   UNL     1      -4.863 -13.780  12.912  0.00  0.00    +0.005 A 
ATOM     12  C   UNL     1      -4.326 -15.060  12.903  0.00  0.00    -0.049 A 
ATOM     13  C   UNL     1      -3.215 -15.323  12.123  0.00  0.00    +0.020 A 
ATOM     14  C   UNL     1      -2.661 -14.317  11.371  0.00  0.00    +0.041 A 
ATOM     15  S   UNL     1      -1.286 -14.195  10.254  0.00  0.00    -0.052 S 
ATOM     16  C   UNL     1      -4.948 -16.151  13.736  0.00  0.00    +0.044 C 
ATOM     17  H   UNL     1       0.950  -9.970   7.132  0.00  0.00    -0.082 HD
ENDROOT
BRANCH   1  18
ATOM     18  C   UNL     1       0.160 -10.060   5.254  0.00  0.00    -0.060 C 
BRANCH  18  19
ATOM     19  C   UNL     1       0.140  -8.537   5.116  0.00  0.00    +0.085 C 
BRANCH  19  22
ATOM     20  C   UNL     1       0.109  -6.877   3.332  0.00  0.00    +0.214 C 
ATOM     21  O   UNL     1       0.102  -6.010   4.180  0.00  0.00    -0.276 OA
ATOM     22  N   UNL     1       0.128  -8.175   3.697  0.00  0.00    -0.317 N 
ATOM     23  H   UNL     1       0.133  -8.869   3.019  0.00  0.00    +0.149 HD
BRANCH  20  24
ATOM     24  C   UNL     1       0.097  -6.505   1.872  0.00  0.00    +0.107 C 
BRANCH  24  25
ATOM     25  C   UNL     1       0.077  -4.981   1.735  0.00  0.00    +0.083 C 
BRANCH  25  26
ATOM     26  S   UNL     1       0.062  -4.533  -0.023  0.00  0.00    -0.125 S 
BRANCH  26  31
ATOM     27  C   UNL     1      -0.018   1.503   0.010  0.00  0.00    +0.044 C 
ATOM     28  C   UNL     1       0.002  -0.004   0.002  0.00  0.00    -0.050 A 
ATOM     29  C   UNL     1       0.006  -0.687  -1.200  0.00  0.00    +0.004 A 
ATOM     30  C   UNL     1       0.024  -2.068  -1.212  0.00  0.00    +0.015 A 
ATOM     31  C   UNL     1       0.039  -2.771  -0.013  0.00  0.00    +0.008 A 
ATOM     32  C   UNL     1       0.036  -2.081   1.193  0.00  0.00    +0.015 A 
ATOM     33  C   UNL     1       0.023  -0.700   1.197  0.00  0.00    +0.004 A 
ENDBRANCH  26  31
ENDBRANCH  25  26
ENDBRANCH  24  25
ENDBRANCH  20  24
ENDBRANCH  19  22
ENDBRANCH  18  19
ENDBRANCH   1  18
TORSDOF 7
