REMARK  Name = ZINC38652950
REMARK  10 active torsions:
REMARK  status: ('A' for Active; 'I' for Inactive)
REMARK    1  A    between atoms: C_1  and  C_2
REMARK    2  A    between atoms: N_5  and  C_8
REMARK    3  A    between atoms: C_8  and  C_10
REMARK    4  A    between atoms: C_8  and  C_11
REMARK    5  A    between atoms: N_13  and  C_14
REMARK    6  A    between atoms: C_18  and  O_28
REMARK    7  A    between atoms: C_22  and  C_24
REMARK    8  A    between atoms: C_24  and  O_26
REMARK    9  A    between atoms: O_26  and  C_27
REMARK   10  A    between atoms: O_28  and  C_29
REMARK                            x       y       z     vdW  Elec       q    Type
REMARK                         _______ _______ _______ _____ _____    ______ ____
ROOT
ATOM      1  C   UNL     1       1.258  -6.444   4.148  0.00  0.00    +0.053 C 
ATOM      2  C   UNL     1       1.516  -7.543   4.947  0.00  0.00    +0.018 A 
ATOM      3  C   UNL     1       1.408  -8.936   4.717  0.00  0.00    +0.015 A 
ATOM      4  C   UNL     1       1.735  -9.807   5.700  0.00  0.00    +0.046 A 
ATOM      5  C   UNL     1       2.182  -9.364   6.955  0.00  0.00    +0.122 A 
ATOM      6  C   UNL     1       2.309  -8.040   7.243  0.00  0.00    +0.071 A 
ATOM      7  C   UNL     1       1.986  -7.072   6.262  0.00  0.00    +0.048 A 
ATOM      8  N   UNL     1       2.023  -5.753   6.292  0.00  0.00    -0.367 N 
ATOM      9  C   UNL     1       1.585  -5.234   4.993  0.00  0.00    +0.234 C 
ATOM     10  H   UNL     1       2.299  -5.215   7.051  0.00  0.00    +0.161 HD
ENDROOT
BRANCH   1  13
ATOM     11  C   UNL     1       0.465  -5.295   2.260  0.00  0.00    +0.203 C 
ATOM     12  O   UNL     1       0.629  -4.241   2.837  0.00  0.00    -0.277 OA
ATOM     13  N   UNL     1       0.808  -6.452   2.861  0.00  0.00    -0.288 N 
ATOM     14  H   UNL     1       0.735  -7.289   2.377  0.00  0.00    +0.155 HD
BRANCH  11  15
ATOM     15  C   UNL     1      -0.122  -5.311   0.873  0.00  0.00    +0.016 C 
ATOM     16  C   UNL     1      -1.639  -5.491   0.964  0.00  0.00    -0.004 C 
BRANCH  15  21
ATOM     17  C   UNL     1       1.593  -1.071  -2.533  0.00  0.00    +0.007 C 
ATOM     18  C   UNL     1       1.343  -2.454  -1.929  0.00  0.00    -0.018 C 
ATOM     19  C   UNL     1      -0.165  -2.703  -1.825  0.00  0.00    -0.015 C 
ATOM     20  C   UNL     1      -0.408  -4.053  -1.147  0.00  0.00    -0.078 C 
ATOM     21  N   UNL     1       0.181  -4.043   0.197  0.00  0.00    +0.387 N 
ATOM     22  C   UNL     1       1.636  -3.877   0.102  0.00  0.00    -0.078 C 
ATOM     23  C   UNL     1       1.959  -2.520  -0.528  0.00  0.00    -0.015 C 
ATOM     24  H   UNL     1      -0.209  -3.279   0.729  0.00  0.00    -0.081 HD
ENDBRANCH  15  21
ENDBRANCH  11  15
ENDBRANCH   1  13
BRANCH   9  25
ATOM     25  C   UNL     1       2.690  -4.435   4.351  0.00  0.00    +0.335 C 
ATOM     26  O   UNL     1       3.828  -4.841   4.386  0.00  0.00    -0.248 OA
BRANCH  25  27
ATOM     27  O   UNL     1       2.411  -3.273   3.740  0.00  0.00    -0.466 OA
ATOM     28  C   UNL     1       3.507  -2.569   3.153  0.00  0.00    +0.280 C 
ENDBRANCH  25  27
ENDBRANCH   9  25
BRANCH   5  29
ATOM     29  O   UNL     1       2.496 -10.280   7.905  0.00  0.00    -0.495 OA
ATOM     30  C   UNL     1       2.345 -11.657   7.554  0.00  0.00    +0.277 C 
ENDBRANCH   5  29
TORSDOF 6
