REMARK  Name = ZINC03290021
REMARK  6 active torsions:
REMARK  status: ('A' for Active; 'I' for Inactive)
REMARK    1  A    between atoms: C_1  and  O_2
REMARK    2  A    between atoms: O_2  and  C_3
REMARK    3  A    between atoms: C_6  and  C_9
REMARK    4  A    between atoms: C_12  and  C_14
REMARK    5  A    between atoms: C_27  and  N_31
REMARK    6  A    between atoms: C_28  and  C_29
REMARK                            x       y       z     vdW  Elec       q    Type
REMARK                         _______ _______ _______ _____ _____    ______ ____
ROOT
ATOM      1  C   UNL     1      -0.498   6.816   0.043  0.00  0.00    +0.141 C 
ATOM      2  C   UNL     1      -1.347   6.763   1.284  0.00  0.00    +0.092 A 
ATOM      3  C   UNL     1      -0.754   6.439   2.521  0.00  0.00    +0.260 A 
ATOM      4  O   UNL     1       0.440   6.199   2.586  0.00  0.00    -0.267 OA
ATOM      5  N   UNL     1      -1.517   6.393   3.631  0.00  0.00    -0.302 N 
ATOM      6  H   UNL     1      -1.114   6.168   4.484  0.00  0.00    +0.171 HD
ATOM      7  C   UNL     1      -2.834   6.658   3.562  0.00  0.00    +0.161 A 
ATOM      8  S   UNL     1      -3.783   6.594   4.986  0.00  0.00    -0.013 S 
ATOM      9  N   UNL     1      -3.418   6.972   2.391  0.00  0.00    -0.306 N 
ATOM     10  H   UNL     1      -4.399   7.166   2.362  0.00  0.00    +0.171 HD
ATOM     11  C   UNL     1      -2.677   7.029   1.235  0.00  0.00    +0.212 A 
ATOM     12  O   UNL     1      -3.283   7.346   0.075  0.00  0.00    -0.425 OA
ATOM     13  C   UNL     1      -2.698   7.039  -1.096  0.00  0.00    +0.200 C 
ATOM     14  C   UNL     1      -1.372   6.776  -1.181  0.00  0.00    +0.101 C 
ENDROOT
BRANCH   1  18
ATOM     15  C   UNL     1       1.169   3.565   0.010  0.00  0.00    +0.135 A 
ATOM     16  C   UNL     1       2.261   4.374   0.009  0.00  0.00    +0.050 A 
ATOM     17  C   UNL     1       1.784   5.700   0.014  0.00  0.00    +0.046 A 
ATOM     18  C   UNL     1       0.438   5.636   0.027  0.00  0.00    +0.119 A 
ATOM     19  O   UNL     1       0.070   4.344   0.024  0.00  0.00    -0.459 OA
BRANCH  15  23
ATOM     20  C   UNL     1       1.213  -0.684  -0.014  0.00  0.00    +0.120 A 
ATOM     21  C   UNL     1       0.002  -0.004   0.002  0.00  0.00    +0.046 A 
ATOM     22  C   UNL     1      -0.017   1.374   0.010  0.00  0.00    +0.015 A 
ATOM     23  C   UNL     1       1.184   2.087   0.002  0.00  0.00    +0.017 A 
ATOM     24  C   UNL     1       2.399   1.400  -0.013  0.00  0.00    +0.015 A 
ATOM     25  C   UNL     1       2.409   0.021  -0.021  0.00  0.00    +0.046 A 
BRANCH  20  27
ATOM     26  C   UNL     1       2.507  -2.678  -0.038  0.00  0.00    +0.277 C 
ATOM     27  O   UNL     1       1.227  -2.043  -0.022  0.00  0.00    -0.495 OA
ENDBRANCH  20  27
ENDBRANCH  15  23
ENDBRANCH   1  18
BRANCH  13  28
ATOM     28  N   UNL     1      -3.463   6.993  -2.235  0.00  0.00    -0.328 N 
ATOM     29  H   UNL     1      -3.053   6.773  -3.086  0.00  0.00    +0.145 HD
ATOM     30  H   UNL     1      -4.414   7.179  -2.188  0.00  0.00    +0.145 HD
ENDBRANCH  13  28
BRANCH  14  31
ATOM     31  C   UNL     1      -0.794   6.455  -2.451  0.00  0.00    +0.101 C 
ATOM     32  N   UNL     1      -0.336   6.201  -3.459  0.00  0.00    -0.191 NA
ENDBRANCH  14  31
TORSDOF 5
