REMARK  Name = ZINC41076646
REMARK  7 active torsions:
REMARK  status: ('A' for Active; 'I' for Inactive)
REMARK    1  A    between atoms: C_1  and  C_2
REMARK    2  A    between atoms: C_8  and  C_12
REMARK    3  A    between atoms: C_12  and  O_13
REMARK    4  A    between atoms: O_13  and  C_14
REMARK    5  A    between atoms: C_17  and  C_22
REMARK    6  A    between atoms: C_19  and  O_20
REMARK    7  A    between atoms: O_20  and  C_21
REMARK                            x       y       z     vdW  Elec       q    Type
REMARK                         _______ _______ _______ _____ _____    ______ ____
ROOT
ATOM      1  C   UNL     1       0.710  -8.257  -1.350  0.00  0.00    +0.162 A 
ATOM      2  C   UNL     1       0.543  -9.327  -0.479  0.00  0.00    +0.050 A 
ATOM      3  C   UNL     1       1.247 -10.494  -0.672  0.00  0.00    +0.012 A 
ATOM      4  C   UNL     1       2.135 -10.605  -1.751  0.00  0.00    -0.021 A 
ATOM      5  C   UNL     1       2.303  -9.525  -2.629  0.00  0.00    +0.057 A 
ATOM      6  C   UNL     1       1.588  -8.361  -2.430  0.00  0.00    +0.162 A 
ENDROOT
BRANCH   4   7
ATOM      7  C   UNL     1       2.886 -11.845  -1.960  0.00  0.00    +0.024 C 
ATOM      8  C   UNL     1       3.350 -12.559  -0.878  0.00  0.00    +0.081 C 
ATOM      9  C   UNL     1       3.957 -13.912  -1.032  0.00  0.00    +0.152 C 
ATOM     10  N   UNL     1       4.653 -14.271  -2.077  0.00  0.00    -0.283 NA
ATOM     11  N   UNL     1       3.705 -14.766   0.063  0.00  0.00    -0.152 N 
ATOM     12  C   UNL     1       3.413 -14.178   1.275  0.00  0.00    +0.180 C 
ATOM     13  N   UNL     1       3.243 -12.904   1.524  0.00  0.00    -0.152 NA
ATOM     14  C   UNL     1       3.279 -12.021   0.503  0.00  0.00    +0.273 C 
ATOM     15  O   UNL     1       3.250 -10.818   0.708  0.00  0.00    -0.268 OA
ATOM     16  S   UNL     1       3.312 -15.582   2.354  0.00  0.00    -0.041 S 
ATOM     17  C   UNL     1       3.562 -16.847   1.116  0.00  0.00    +0.179 C 
ATOM     18  N   UNL     1       3.738 -16.144   0.034  0.00  0.00    -0.173 NA
ATOM     19  H   UNL     1       5.026 -15.165  -2.127  0.00  0.00    +0.188 HD
ENDBRANCH   4   7
BRANCH   6  20
ATOM     20  O   UNL     1       1.744  -7.313  -3.283  0.00  0.00    -0.491 OA
ATOM     21  C   UNL     1       2.658  -7.489  -4.366  0.00  0.00    +0.277 C 
ENDBRANCH   6  20
BRANCH   1  22
ATOM     22  O   UNL     1       0.013  -7.109  -1.153  0.00  0.00    -0.482 OA
BRANCH  22  23
ATOM     23  C   UNL     1      -0.868  -7.070  -0.029  0.00  0.00    +0.284 C 
BRANCH  23  31
ATOM     24  C   UNL     1      -2.714   0.514   0.565  0.00  0.00    +0.075 C 
ATOM     25  C   UNL     1      -2.410  -0.957   0.443  0.00  0.00    +0.099 A 
ATOM     26  N   UNL     1      -3.226  -1.943   0.222  0.00  0.00    -0.159 NA
ATOM     27  N   UNL     1      -2.776  -3.257   0.137  0.00  0.00    -0.171 N 
ATOM     28  C   UNL     1      -3.529  -4.374  -0.090  0.00  0.00    +0.275 A 
ATOM     29  O   UNL     1      -4.736  -4.278  -0.244  0.00  0.00    -0.266 OA
ATOM     30  C   UNL     1      -2.915  -5.626  -0.147  0.00  0.00    +0.099 A 
ATOM     31  C   UNL     1      -1.551  -5.728   0.028  0.00  0.00    +0.087 A 
ATOM     32  N   UNL     1      -0.848  -4.619   0.247  0.00  0.00    -0.223 NA
ATOM     33  C   UNL     1      -1.432  -3.449   0.298  0.00  0.00    +0.199 A 
ATOM     34  S   UNL     1      -0.836  -1.792   0.557  0.00  0.00    -0.033 S 
ENDBRANCH  23  31
ENDBRANCH  22  23
ENDBRANCH   1  22
TORSDOF 5
