REMARK  Name = ZINC20290783
REMARK  9 active torsions:
REMARK  status: ('A' for Active; 'I' for Inactive)
REMARK    1  A    between atoms: C_1  and  C_2
REMARK    2  A    between atoms: C_2  and  C_4
REMARK    3  A    between atoms: C_7  and  N_10
REMARK    4  A    between atoms: C_11  and  C_13
REMARK    5  A    between atoms: C_13  and  C_14
REMARK    6  A    between atoms: C_14  and  S_15
REMARK    7  A    between atoms: S_15  and  C_16
REMARK    8  A    between atoms: C_19  and  C_22
REMARK    9  A    between atoms: N_20  and  N_21
REMARK                            x       y       z     vdW  Elec       q    Type
REMARK                         _______ _______ _______ _____ _____    ______ ____
ROOT
ATOM      1  S   UNL     1      -7.401  -7.425  -0.277  0.00  0.00    -0.084 S 
ENDROOT
BRANCH   1   2
ATOM      2  C   UNL     1      -6.882  -9.098  -0.472  0.00  0.00    +0.209 A 
ATOM      3  N   UNL     1      -5.646  -9.542  -0.414  0.00  0.00    -0.121 NA
ATOM      4  N   UNL     1      -5.626 -10.814  -0.600  0.00  0.00    -0.127 NA
ATOM      5  C   UNL     1      -6.846 -11.259  -0.788  0.00  0.00    +0.183 A 
ATOM      6  N   UNL     1      -7.689 -10.175  -0.706  0.00  0.00    -0.224 N 
BRANCH   5   7
ATOM      7  C   UNL     1      -7.241 -12.662  -1.035  0.00  0.00    +0.035 A 
ATOM      8  C   UNL     1      -8.134 -12.968  -2.063  0.00  0.00    +0.013 A 
ATOM      9  C   UNL     1      -8.498 -14.279  -2.289  0.00  0.00    +0.001 A 
ATOM     10  C   UNL     1      -7.981 -15.291  -1.499  0.00  0.00    +0.001 A 
ATOM     11  C   UNL     1      -7.095 -14.995  -0.478  0.00  0.00    +0.016 A 
ATOM     12  C   UNL     1      -6.718 -13.688  -0.245  0.00  0.00    +0.029 A 
ATOM     13 BR   UNL     1      -5.502 -13.286   1.146  0.00  0.00    -0.050 Br
ENDBRANCH   5   7
BRANCH   6  14
ATOM     14  N   UNL     1      -9.049 -10.174  -0.835  0.00  0.00    -0.295 N 
ATOM     15  H   UNL     1      -9.321 -10.036  -1.797  0.00  0.00    +0.163 HD
ATOM     16  H   UNL     1      -9.447 -11.024  -0.465  0.00  0.00    +0.163 HD
ENDBRANCH   6  14
ENDBRANCH   1   2
BRANCH   1  17
ATOM     17  C   UNL     1      -5.857  -6.516   0.003  0.00  0.00    +0.086 C 
BRANCH  17  18
ATOM     18  C   UNL     1      -6.167  -5.029   0.190  0.00  0.00    +0.107 C 
BRANCH  18  20
ATOM     19  N   UNL     1      -4.912  -2.940   0.615  0.00  0.00    -0.285 N 
ATOM     20  C   UNL     1      -4.884  -4.274   0.422  0.00  0.00    +0.218 C 
ATOM     21  O   UNL     1      -3.825  -4.866   0.436  0.00  0.00    -0.275 OA
ATOM     22  H   UNL     1      -5.762  -2.478   0.678  0.00  0.00    +0.155 HD
BRANCH  19  26
ATOM     23  C   UNL     1      -1.354  -0.808   0.934  0.00  0.00    +0.017 A 
ATOM     24  C   UNL     1      -1.427  -1.933   0.102  0.00  0.00    +0.013 A 
ATOM     25  C   UNL     1      -2.601  -2.632   0.000  0.00  0.00    +0.024 A 
ATOM     26  C   UNL     1      -3.721  -2.226   0.722  0.00  0.00    +0.033 A 
ATOM     27  C   UNL     1      -3.653  -1.109   1.549  0.00  0.00    +0.024 A 
ATOM     28  C   UNL     1      -2.481  -0.407   1.662  0.00  0.00    +0.013 A 
BRANCH  23  30
ATOM     29  C   UNL     1       1.113  -0.490   0.263  0.00  0.00    +0.091 C 
ATOM     30  C   UNL     1      -0.098  -0.056   1.047  0.00  0.00    +0.160 C 
ATOM     31  O   UNL     1      -0.035   0.915   1.772  0.00  0.00    -0.292 OA
ENDBRANCH  23  30
ENDBRANCH  19  26
ENDBRANCH  18  20
ENDBRANCH  17  18
ENDBRANCH   1  17
TORSDOF 8
