REMARK  Name = ZINC09980867
REMARK  12 active torsions:
REMARK  status: ('A' for Active; 'I' for Inactive)
REMARK    1  A    between atoms: C_1  and  C_2
REMARK    2  A    between atoms: C_2  and  C_3
REMARK    3  A    between atoms: C_8  and  N_9
REMARK    4  A    between atoms: C_10  and  C_12
REMARK    5  A    between atoms: C_12  and  S_13
REMARK    6  A    between atoms: S_13  and  C_14
REMARK    7  A    between atoms: C_15  and  C_35
REMARK    8  A    between atoms: C_16  and  C_28
REMARK    9  A    between atoms: C_18  and  C_23
REMARK   10  A    between atoms: C_23  and  O_25
REMARK   11  A    between atoms: O_25  and  C_26
REMARK   12  A    between atoms: C_26  and  C_27
REMARK                            x       y       z     vdW  Elec       q    Type
REMARK                         _______ _______ _______ _____ _____    ______ ____
ROOT
ATOM      1  C   UNL     1       1.264   3.203  -4.599  0.00  0.00    +0.082 C 
ATOM      2  C   UNL     1       1.191   1.887  -4.940  0.00  0.00    +0.066 C 
ATOM      3  C   UNL     1      -0.108   1.138  -4.794  0.00  0.00    +0.086 C 
ATOM      4  C   UNL     1      -0.869   1.672  -3.579  0.00  0.00    +0.196 C 
ATOM      5  C   UNL     1      -0.893   3.177  -3.621  0.00  0.00    +0.232 C 
ATOM      6  O   UNL     1      -1.862   3.776  -3.205  0.00  0.00    -0.275 OA
ATOM      7  N   UNL     1       0.154   3.863  -4.116  0.00  0.00    -0.279 N 
ATOM      8  H   UNL     1       0.127   4.832  -4.133  0.00  0.00    +0.155 HD
ENDROOT
BRANCH   3   9
ATOM      9  C   UNL     1      -0.941   1.331  -6.034  0.00  0.00    -0.020 A 
ATOM     10  C   UNL     1      -1.329   2.602  -6.415  0.00  0.00    +0.006 A 
ATOM     11  C   UNL     1      -2.093   2.780  -7.553  0.00  0.00    +0.000 A 
ATOM     12  C   UNL     1      -2.471   1.687  -8.311  0.00  0.00    +0.001 A 
ATOM     13  C   UNL     1      -2.084   0.415  -7.930  0.00  0.00    +0.020 A 
ATOM     14  C   UNL     1      -1.314   0.238  -6.794  0.00  0.00    +0.045 A 
ATOM     15 CL   UNL     1      -0.822  -1.358  -6.320  0.00  0.00    -0.083 Cl
ENDBRANCH   3   9
BRANCH   4  16
ATOM     16  C   UNL     1      -0.184   1.216  -2.317  0.00  0.00    +0.320 C 
ATOM     17  O   UNL     1       0.812   0.534  -2.382  0.00  0.00    -0.250 OA
BRANCH  16  18
ATOM     18  O   UNL     1      -0.680   1.565  -1.119  0.00  0.00    -0.464 OA
BRANCH  18  19
ATOM     19  C   UNL     1       0.032   1.090   0.053  0.00  0.00    +0.229 C 
ATOM     20  C   UNL     1      -0.677   1.586   1.316  0.00  0.00    +0.048 C 
ENDBRANCH  18  19
ENDBRANCH  16  18
ENDBRANCH   4  16
BRANCH   2  21
ATOM     21  C   UNL     1       2.352   1.213  -5.441  0.00  0.00    +0.098 C 
ATOM     22  N   UNL     1       3.272   0.679  -5.838  0.00  0.00    -0.191 NA
ENDBRANCH   2  21
BRANCH   1  23
ATOM     23  S   UNL     1       2.788   4.068  -4.775  0.00  0.00    -0.100 S 
BRANCH  23  24
ATOM     24  C   UNL     1       2.289   5.706  -4.189  0.00  0.00    +0.171 C 
BRANCH  24  26
ATOM     25  N   UNL     1       3.330   7.926  -3.861  0.00  0.00    -0.285 N 
ATOM     26  C   UNL     1       3.468   6.643  -4.251  0.00  0.00    +0.227 C 
ATOM     27  O   UNL     1       4.540   6.243  -4.652  0.00  0.00    -0.275 OA
ATOM     28  H   UNL     1       2.456   8.268  -3.616  0.00  0.00    +0.155 HD
BRANCH  25  34
ATOM     29  C   UNL     1       4.293  10.141  -3.916  0.00  0.00    -0.026 A 
ATOM     30  C   UNL     1       5.399  10.966  -3.864  0.00  0.00    +0.005 A 
ATOM     31  C   UNL     1       6.661  10.424  -3.706  0.00  0.00    +0.000 A 
ATOM     32  C   UNL     1       6.820   9.054  -3.600  0.00  0.00    +0.002 A 
ATOM     33  C   UNL     1       5.718   8.224  -3.645  0.00  0.00    +0.023 A 
ATOM     34  C   UNL     1       4.449   8.765  -3.809  0.00  0.00    +0.037 A 
BRANCH  29  36
ATOM     35  C   UNL     1       2.265  10.912  -2.715  0.00  0.00    +0.009 C 
ATOM     36  C   UNL     1       2.917  10.732  -4.087  0.00  0.00    +0.033 C 
ENDBRANCH  29  36
ENDBRANCH  25  34
ENDBRANCH  24  26
ENDBRANCH  23  24
ENDBRANCH   1  23
TORSDOF 10
