REMARK  Name = ZINC04915592
REMARK  10 active torsions:
REMARK  status: ('A' for Active; 'I' for Inactive)
REMARK    1  A    between atoms: C_1  and  C_2
REMARK    2  A    between atoms: C_2  and  C_3
REMARK    3  A    between atoms: C_3  and  N_4
REMARK    4  A    between atoms: C_5  and  C_7
REMARK    5  A    between atoms: C_7  and  S_8
REMARK    6  A    between atoms: S_8  and  C_9
REMARK    7  A    between atoms: C_20  and  C_23
REMARK    8  A    between atoms: N_26  and  C_27
REMARK    9  A    between atoms: C_27  and  C_28
REMARK   10  A    between atoms: C_28  and  C_29
REMARK                            x       y       z     vdW  Elec       q    Type
REMARK                         _______ _______ _______ _____ _____    ______ ____
ROOT
ATOM      1  C   UNL     1      -4.042  -9.184  -3.404  0.00  0.00    +0.192 A 
ATOM      2  N   UNL     1      -3.923  -8.105  -2.643  0.00  0.00    -0.207 NA
ATOM      3  C   UNL     1      -2.818  -7.893  -1.935  0.00  0.00    +0.127 A 
ATOM      4  C   UNL     1      -1.779  -8.822  -2.007  0.00  0.00    +0.083 A 
ATOM      5  C   UNL     1      -1.944  -9.937  -2.809  0.00  0.00    +0.135 A 
ATOM      6  N   UNL     1      -3.074 -10.085  -3.488  0.00  0.00    -0.210 NA
ATOM      7 CL   UNL     1      -0.685 -11.126  -2.930  0.00  0.00    -0.062 Cl
ATOM      8  N   UNL     1      -2.698  -6.764  -1.141  0.00  0.00    -0.312 N 
ATOM      9  C   UNL     1      -1.496  -5.997  -1.494  0.00  0.00    +0.125 C 
ATOM     10  C   UNL     1      -1.302  -4.864  -0.488  0.00  0.00    +0.128 C 
ATOM     11  N   UNL     1      -2.543  -4.078  -0.416  0.00  0.00    -0.280 N 
ATOM     12  C   UNL     1      -3.809  -4.795  -0.201  0.00  0.00    +0.092 C 
ATOM     13  C   UNL     1      -3.905  -5.931  -1.224  0.00  0.00    +0.128 C 
ATOM     14  C   UNL     1      -4.983  -3.832  -0.390  0.00  0.00    +0.030 C 
ATOM     15  C   UNL     1      -2.521  -2.737  -0.548  0.00  0.00    +0.303 C 
ATOM     16  O   UNL     1      -3.540  -2.093  -0.390  0.00  0.00    -0.253 OA
ATOM     17  N   UNL     1      -1.369  -2.109  -0.856  0.00  0.00    -0.299 N 
ATOM     18  H   UNL     1      -0.541  -2.613  -0.910  0.00  0.00    +0.150 HD
ENDROOT
BRANCH   1  19
ATOM     19  S   UNL     1      -5.523  -9.426  -4.326  0.00  0.00    -0.077 S 
BRANCH  19  20
ATOM     20  C   UNL     1      -5.133 -10.994  -5.141  0.00  0.00    +0.173 C 
BRANCH  20  22
ATOM     21  N   UNL     1      -6.226 -12.555  -6.718  0.00  0.00    -0.315 N 
ATOM     22  C   UNL     1      -6.292 -11.410  -6.010  0.00  0.00    +0.223 C 
ATOM     23  O   UNL     1      -7.284 -10.715  -6.072  0.00  0.00    -0.275 OA
ATOM     24  H   UNL     1      -5.433 -13.111  -6.669  0.00  0.00    +0.149 HD
BRANCH  21  25
ATOM     25  C   UNL     1      -7.353 -12.960  -7.563  0.00  0.00    +0.104 C 
BRANCH  25  27
ATOM     26  C   UNL     1      -8.199 -14.708  -9.134  0.00  0.00    +0.005 C 
ATOM     27  C   UNL     1      -7.023 -14.286  -8.252  0.00  0.00    +0.015 C 
ENDBRANCH  25  27
ENDBRANCH  21  25
ENDBRANCH  20  22
ENDBRANCH  19  20
ENDBRANCH   1  19
BRANCH  17  28
ATOM     28  C   UNL     1      -1.366  -0.666  -1.109  0.00  0.00    +0.105 C 
BRANCH  28  29
ATOM     29  C   UNL     1       0.058  -0.208  -1.434  0.00  0.00    +0.015 C 
ATOM     30  C   UNL     1       0.061   1.299  -1.699  0.00  0.00    +0.005 C 
ENDBRANCH  28  29
ENDBRANCH  17  28
TORSDOF 7
