REMARK  Name = ZINC35845860
REMARK  8 active torsions:
REMARK  status: ('A' for Active; 'I' for Inactive)
REMARK    1  A    between atoms: C_1  and  C_2
REMARK    2  A    between atoms: C_2  and  C_3
REMARK    3  A    between atoms: C_3  and  C_4
REMARK    4  A    between atoms: C_4  and  N_5
REMARK    5  A    between atoms: C_6  and  C_8
REMARK    6  A    between atoms: C_8  and  N_9
REMARK    7  A    between atoms: C_17  and  C_19
REMARK    8  A    between atoms: C_22  and  C_25
REMARK                            x       y       z     vdW  Elec       q    Type
REMARK                         _______ _______ _______ _____ _____    ______ ____
ROOT
ATOM      1  N   UNL     1       2.363  -5.819   3.838  0.00  0.00    +0.395 N 
ATOM      2  C   UNL     1       3.144  -6.289   2.686  0.00  0.00    -0.055 C 
ATOM      3  C   UNL     1       2.916  -7.792   2.481  0.00  0.00    +0.103 C 
ATOM      4  N   UNL     1       3.137  -8.465   3.768  0.00  0.00    -0.353 N 
ATOM      5  C   UNL     1       3.341  -9.786   4.000  0.00  0.00    +0.086 A 
ATOM      6  C   UNL     1       3.505  -9.958   5.330  0.00  0.00    +0.019 A 
ATOM      7  C   UNL     1       3.396  -8.689   5.939  0.00  0.00    +0.021 A 
ATOM      8  C   UNL     1       3.169  -7.797   4.964  0.00  0.00    +0.009 A 
ATOM      9  C   UNL     1       2.969  -6.306   5.088  0.00  0.00    +0.011 C 
ATOM     10  H   UNL     1       1.419  -6.166   3.765  0.00  0.00    -0.080 HD
ENDROOT
BRANCH   9  11
ATOM     11  C   UNL     1       2.051  -6.011   6.247  0.00  0.00    -0.055 A 
ATOM     12  C   UNL     1       0.686  -6.175   6.106  0.00  0.00    +0.002 A 
ATOM     13  C   UNL     1      -0.155  -5.904   7.169  0.00  0.00    +0.003 A 
ATOM     14  C   UNL     1       0.368  -5.470   8.372  0.00  0.00    -0.050 A 
ATOM     15  C   UNL     1       1.734  -5.306   8.513  0.00  0.00    +0.003 A 
ATOM     16  C   UNL     1       2.576  -5.582   7.452  0.00  0.00    +0.002 A 
ATOM     17  C   UNL     1      -0.549  -5.173   9.530  0.00  0.00    +0.044 C 
ENDBRANCH   9  11
BRANCH   1  18
ATOM     18  C   UNL     1       2.343  -4.350   3.846  0.00  0.00    +0.020 C 
BRANCH  18  20
ATOM     19  N   UNL     1       1.471  -2.526   2.420  0.00  0.00    -0.317 N 
ATOM     20  C   UNL     1       1.615  -3.850   2.625  0.00  0.00    +0.196 C 
ATOM     21  O   UNL     1       1.157  -4.641   1.827  0.00  0.00    -0.278 OA
ATOM     22  H   UNL     1       1.837  -1.894   3.058  0.00  0.00    +0.149 HD
BRANCH  19  23
ATOM     23  C   UNL     1       0.763  -2.041   1.233  0.00  0.00    +0.104 C 
BRANCH  23  24
ATOM     24  C   UNL     1       0.742  -0.511   1.242  0.00  0.00    +0.018 C 
BRANCH  24  26
ATOM     25  C   UNL     1      -0.019   1.526   0.010  0.00  0.00    +0.004 C 
ATOM     26  C   UNL     1       0.002  -0.004   0.002  0.00  0.00    -0.002 C 
ENDBRANCH  24  26
ENDBRANCH  23  24
ENDBRANCH  19  23
ENDBRANCH  18  20
ENDBRANCH   1  18
TORSDOF 6
