REMARK  Name = ZINC09009576
REMARK  8 active torsions:
REMARK  status: ('A' for Active; 'I' for Inactive)
REMARK    1  A    between atoms: C_1  and  C_2
REMARK    2  A    between atoms: C_2  and  C_3
REMARK    3  A    between atoms: C_2  and  C_4
REMARK    4  A    between atoms: C_2  and  C_5
REMARK    5  A    between atoms: C_5  and  C_7
REMARK    6  A    between atoms: C_9  and  C_32
REMARK    7  A    between atoms: C_32  and  C_34
REMARK    8  A    between atoms: C_38  and  N_40
REMARK                            x       y       z     vdW  Elec       q    Type
REMARK                         _______ _______ _______ _____ _____    ______ ____
ROOT
ATOM      1  C   UNL     1       4.331   2.761   1.432  0.00  0.00    +0.153 C 
ATOM      2  C   UNL     1       4.257   3.241  -0.046  0.00  0.00    +0.109 C 
ATOM      3  C   UNL     1       5.585   3.991  -0.277  0.00  0.00    +0.108 C 
ATOM      4  C   UNL     1       5.354   5.410  -0.671  0.00  0.00    -0.008 A 
ATOM      5  C   UNL     1       4.722   6.454  -0.030  0.00  0.00    +0.006 A 
ATOM      6  C   UNL     1       4.684   7.675  -0.694  0.00  0.00    +0.000 A 
ATOM      7  C   UNL     1       5.255   7.833  -1.941  0.00  0.00    +0.002 A 
ATOM      8  C   UNL     1       5.892   6.789  -2.593  0.00  0.00    +0.023 A 
ATOM      9  C   UNL     1       5.937   5.558  -1.938  0.00  0.00    +0.038 A 
ATOM     10  N   UNL     1       6.502   4.363  -2.351  0.00  0.00    -0.284 N 
ATOM     11  C   UNL     1       6.341   3.384  -1.433  0.00  0.00    +0.231 C 
ATOM     12  O   UNL     1       6.730   2.239  -1.522  0.00  0.00    -0.274 OA
ATOM     13  C   UNL     1       6.348   3.854   1.031  0.00  0.00    +0.117 C 
ATOM     14  N   UNL     1       5.274   3.701   2.050  0.00  0.00    -0.311 N 
ATOM     15  C   UNL     1       5.837   3.373   3.260  0.00  0.00    +0.038 A 
ATOM     16  C   UNL     1       5.337   2.397   4.099  0.00  0.00    +0.024 A 
ATOM     17  C   UNL     1       5.978   2.118   5.292  0.00  0.00    +0.002 A 
ATOM     18  C   UNL     1       7.121   2.811   5.655  0.00  0.00    +0.001 A 
ATOM     19  C   UNL     1       7.634   3.793   4.830  0.00  0.00    +0.010 A 
ATOM     20  C   UNL     1       6.999   4.086   3.631  0.00  0.00    -0.004 A 
ATOM     21  C   UNL     1       7.510   5.135   2.717  0.00  0.00    +0.007 C 
ATOM     22  C   UNL     1       7.193   5.030   1.413  0.00  0.00    -0.003 C 
ATOM     23  H   UNL     1       6.958   4.243  -3.198  0.00  0.00    +0.155 HD
ENDROOT
BRANCH   1  24
ATOM     24  C   UNL     1       4.860   1.352   1.507  0.00  0.00    +0.160 C 
ATOM     25  O   UNL     1       6.038   1.159   1.693  0.00  0.00    -0.295 OA
BRANCH  24  27
ATOM     26  C   UNL     1       4.713  -1.122   1.427  0.00  0.00    +0.018 C 
ATOM     27  C   UNL     1       3.920   0.185   1.351  0.00  0.00    +0.022 C 
ATOM     28  C   UNL     1       2.878   0.216   2.471  0.00  0.00    +0.018 C 
ATOM     29  C   UNL     1       3.215   0.276  -0.004  0.00  0.00    +0.018 C 
ENDBRANCH  24  27
ENDBRANCH   1  24
BRANCH   2  30
ATOM     30  C   UNL     1       3.087   4.171  -0.239  0.00  0.00    +0.170 C 
ATOM     31  O   UNL     1       2.603   4.742   0.715  0.00  0.00    -0.292 OA
BRANCH  30  32
ATOM     32  C   UNL     1       2.532   4.385  -1.585  0.00  0.00    +0.020 A 
ATOM     33  C   UNL     1       3.137   3.791  -2.697  0.00  0.00    +0.011 A 
ATOM     34  C   UNL     1       2.611   3.997  -3.955  0.00  0.00    +0.003 A 
ATOM     35  C   UNL     1       1.491   4.793  -4.119  0.00  0.00    +0.033 A 
ATOM     36  C   UNL     1       0.883   5.380  -3.022  0.00  0.00    +0.127 A 
ATOM     37  C   UNL     1       1.397   5.184  -1.758  0.00  0.00    +0.044 A 
BRANCH  36  38
ATOM     38  N   UNL     1      -0.318   6.225  -3.208  0.00  0.00    +0.056 N 
ATOM     39  O   UNL     1      -0.851   6.746  -2.245  0.00  0.00    -0.126 OA
ATOM     40  O   UNL     1      -0.773   6.399  -4.324  0.00  0.00    -0.126 OA
ENDBRANCH  36  38
ENDBRANCH  30  32
ENDBRANCH   2  30
TORSDOF 5
