REMARK  Name = ZINC39982513
REMARK  6 active torsions:
REMARK  status: ('A' for Active; 'I' for Inactive)
REMARK    1  A    between atoms: C_1  and  C_2
REMARK    2  A    between atoms: C_5  and  C_8
REMARK    3  A    between atoms: C_8  and  C_9
REMARK    4  A    between atoms: C_12  and  S_14
REMARK    5  A    between atoms: S_14  and  C_15
REMARK    6  A    between atoms: C_17  and  C_28
REMARK                            x       y       z     vdW  Elec       q    Type
REMARK                         _______ _______ _______ _____ _____    ______ ____
ROOT
ATOM      1  C   UNL     1      -6.914   1.166  -2.907  0.00  0.00    +0.173 C 
ATOM      2  C   UNL     1      -8.023   2.166  -3.174  0.00  0.00    -0.009 C 
ATOM      3  C   UNL     1      -7.816   3.082  -4.210  0.00  0.00    +0.003 A 
ATOM      4  C   UNL     1      -8.796   4.046  -4.526  0.00  0.00    +0.030 A 
ATOM      5  C   UNL     1      -8.569   4.926  -5.539  0.00  0.00    +0.042 A 
ATOM      6  C   UNL     1      -7.385   4.894  -6.275  0.00  0.00    +0.022 A 
ATOM      7  C   UNL     1      -6.403   3.987  -6.016  0.00  0.00    +0.025 A 
ATOM      8  C   UNL     1      -6.569   3.047  -4.983  0.00  0.00    +0.041 A 
ATOM      9  N   UNL     1      -5.604   2.158  -4.730  0.00  0.00    -0.284 N 
ATOM     10  C   UNL     1      -5.683   1.246  -3.782  0.00  0.00    +0.235 C 
ATOM     11  O   UNL     1      -4.764   0.468  -3.609  0.00  0.00    -0.274 OA
ATOM     12 CL   UNL     1      -9.778   6.111  -5.924  0.00  0.00    -0.084 Cl
ATOM     13  H   UNL     1      -4.801   2.184  -5.275  0.00  0.00    +0.155 HD
ENDROOT
BRANCH   2  14
ATOM     14  C   UNL     1      -9.216   2.172  -2.408  0.00  0.00    -0.020 A 
ATOM     15  C   UNL     1     -10.086   1.070  -2.447  0.00  0.00    +0.008 A 
ATOM     16  C   UNL     1     -11.242   1.085  -1.699  0.00  0.00    +0.001 A 
ATOM     17  C   UNL     1     -11.548   2.182  -0.910  0.00  0.00    +0.000 A 
ATOM     18  C   UNL     1     -10.697   3.274  -0.865  0.00  0.00    +0.001 A 
ATOM     19  C   UNL     1      -9.533   3.276  -1.601  0.00  0.00    +0.008 A 
ENDBRANCH   2  14
BRANCH   1  20
ATOM     20  S   UNL     1      -6.387   1.367  -1.183  0.00  0.00    -0.048 S 
BRANCH  20  24
ATOM     21  C   UNL     1      -3.939  -1.397  -0.003  0.00  0.00    +0.224 A 
ATOM     22  N   UNL     1      -4.163  -1.752  -1.234  0.00  0.00    -0.111 NA
ATOM     23  N   UNL     1      -4.976  -0.917  -1.781  0.00  0.00    -0.101 NA
ATOM     24  C   UNL     1      -5.301   0.006  -0.909  0.00  0.00    +0.278 A 
ATOM     25  O   UNL     1      -4.656  -0.281   0.237  0.00  0.00    -0.415 OA
BRANCH  21  26
ATOM     26  C   UNL     1      -3.045  -2.109   0.980  0.00  0.00    +0.149 C 
BRANCH  26  30
ATOM     27  C   UNL     1      -0.023   1.446   0.004  0.00  0.00    +0.044 C 
ATOM     28  C   UNL     1      -0.012  -0.084  -0.019  0.00  0.00    +0.159 C 
ATOM     29  N   UNL     1      -1.381  -0.629   0.073  0.00  0.00    -0.278 NA
ATOM     30  C   UNL     1      -1.649  -1.550   0.885  0.00  0.00    +0.033 C 
ATOM     31  C   UNL     1      -0.534  -2.090   1.770  0.00  0.00    +0.122 C 
ATOM     32  S   UNL     1       0.735  -0.769   1.525  0.00  0.00    -0.129 S 
ENDBRANCH  26  30
ENDBRANCH  21  26
ENDBRANCH  20  24
ENDBRANCH   1  20
TORSDOF 5
