REMARK  Name = ZINC10410465
REMARK  13 active torsions:
REMARK  status: ('A' for Active; 'I' for Inactive)
REMARK    1  A    between atoms: C_1  and  C_2
REMARK    2  A    between atoms: C_5  and  N_9
REMARK    3  A    between atoms: C_7  and  C_8
REMARK    4  A    between atoms: C_19  and  S_20
REMARK    5  A    between atoms: S_20  and  C_21
REMARK    6  A    between atoms: C_21  and  C_23
REMARK    7  A    between atoms: C_21  and  C_24
REMARK    8  A    between atoms: N_26  and  C_27
REMARK    9  A    between atoms: C_27  and  C_28
REMARK   10  A    between atoms: C_27  and  C_29
REMARK   11  A    between atoms: C_27  and  C_31
REMARK   12  A    between atoms: C_31  and  C_32
REMARK   13  A    between atoms: C_31  and  C_33
REMARK                            x       y       z     vdW  Elec       q    Type
REMARK                         _______ _______ _______ _____ _____    ______ ____
ROOT
ATOM      1  N   UNL     1       2.404   1.106  -0.015  0.00  0.00    -0.255 N 
ATOM      2  C   UNL     1       3.559   1.802  -0.124  0.00  0.00    +0.267 A 
ATOM      3  O   UNL     1       3.558   3.016  -0.211  0.00  0.00    -0.267 OA
ATOM      4  C   UNL     1       4.814   1.039  -0.135  0.00  0.00    +0.065 A 
ATOM      5  C   UNL     1       6.055   1.665  -0.244  0.00  0.00    +0.015 A 
ATOM      6  C   UNL     1       7.194   0.907  -0.248  0.00  0.00    +0.001 A 
ATOM      7  C   UNL     1       7.126  -0.477  -0.146  0.00  0.00    +0.002 A 
ATOM      8  C   UNL     1       5.923  -1.116  -0.038  0.00  0.00    +0.028 A 
ATOM      9  C   UNL     1       4.741  -0.369  -0.031  0.00  0.00    +0.079 A 
ATOM     10  N   UNL     1       3.528  -0.961   0.074  0.00  0.00    -0.223 NA
ATOM     11  C   UNL     1       2.422  -0.258   0.087  0.00  0.00    +0.177 A 
ENDROOT
BRANCH   1  16
ATOM     12  C   UNL     1      -2.554   3.865   0.046  0.00  0.00    +0.044 C 
ATOM     13  C   UNL     1      -1.238   3.132   0.030  0.00  0.00    -0.047 A 
ATOM     14  C   UNL     1      -0.695   2.714  -1.171  0.00  0.00    +0.005 A 
ATOM     15  C   UNL     1       0.508   2.037  -1.189  0.00  0.00    +0.026 A 
ATOM     16  C   UNL     1       1.180   1.787   0.000  0.00  0.00    +0.052 A 
ATOM     17  C   UNL     1       0.636   2.214   1.204  0.00  0.00    +0.030 A 
ATOM     18  C   UNL     1      -0.571   2.886   1.216  0.00  0.00    -0.046 A 
ATOM     19  C   UNL     1      -1.162   3.349   2.522  0.00  0.00    +0.044 C 
ENDBRANCH   1  16
BRANCH  11  20
ATOM     20  S   UNL     1       0.887  -1.111   0.235  0.00  0.00    -0.075 S 
BRANCH  20  21
ATOM     21  C   UNL     1       1.483  -2.817   0.332  0.00  0.00    +0.137 C 
ATOM     22  C   UNL     1       2.296  -3.001   1.615  0.00  0.00    +0.029 C 
BRANCH  21  23
ATOM     23  C   UNL     1       0.308  -3.760   0.342  0.00  0.00    +0.227 C 
ATOM     24  O   UNL     1      -0.792  -3.354   0.652  0.00  0.00    -0.275 OA
ATOM     25  N   UNL     1       0.479  -5.054   0.008  0.00  0.00    -0.296 N 
ATOM     26  H   UNL     1       1.477  -5.422  -0.273  0.00  0.00    +0.150 HD
BRANCH  25  27
ATOM     27  C   UNL     1      -0.664  -5.971   0.018  0.00  0.00    +0.121 C 
ATOM     28  C   UNL     1      -1.726  -5.472  -0.964  0.00  0.00    +0.048 C 
BRANCH  27  29
ATOM     29  C   UNL     1      -0.201  -7.368  -0.397  0.00  0.00    +0.020 C 
ATOM     30  C   UNL     1       0.768  -7.917   0.652  0.00  0.00    +0.010 C 
ATOM     31  C   UNL     1      -1.413  -8.296  -0.507  0.00  0.00    +0.010 C 
ENDBRANCH  27  29
BRANCH  27  32
ATOM     32  C   UNL     1      -1.236  -6.026   1.373  0.00  0.00    +0.088 C 
ATOM     33  N   UNL     1      -1.677  -6.069   2.419  0.00  0.00    -0.194 NA
ENDBRANCH  27  32
ENDBRANCH  25  27
ENDBRANCH  21  23
ENDBRANCH  20  21
ENDBRANCH  11  20
TORSDOF 7
