REMARK  Name = ZINC08872662
REMARK  8 active torsions:
REMARK  status: ('A' for Active; 'I' for Inactive)
REMARK    1  A    between atoms: C_1  and  C_2
REMARK    2  A    between atoms: C_5  and  N_9
REMARK    3  A    between atoms: C_6  and  C_8
REMARK    4  A    between atoms: N_16  and  N_17
REMARK    5  A    between atoms: C_18  and  C_19
REMARK    6  A    between atoms: C_18  and  C_20
REMARK    7  A    between atoms: C_23  and  N_26
REMARK    8  A    between atoms: N_29  and  C_30
REMARK                            x       y       z     vdW  Elec       q    Type
REMARK                         _______ _______ _______ _____ _____    ______ ____
ROOT
ATOM      1  N   UNL     1      -2.425   3.746   0.400  0.00  0.00    -0.283 N 
ATOM      2  C   UNL     1      -2.447   5.127   0.400  0.00  0.00    +0.225 A 
ATOM      3  N   UNL     1      -3.609   5.773   0.369  0.00  0.00    -0.181 NA
ATOM      4  C   UNL     1      -3.631   7.103   0.373  0.00  0.00    +0.225 A 
ATOM      5  N   UNL     1      -2.491   7.786   0.399  0.00  0.00    -0.179 NA
ATOM      6  C   UNL     1      -1.329   7.140   0.425  0.00  0.00    +0.241 A 
ATOM      7  N   UNL     1      -1.307   5.810   0.426  0.00  0.00    -0.179 NA
ATOM      8  N   UNL     1      -0.144   7.850   0.453  0.00  0.00    -0.205 N 
ATOM      9  N   UNL     1      -4.838   7.774   0.347  0.00  0.00    -0.283 N 
ATOM     10  H   UNL     1      -3.250   3.248   0.292  0.00  0.00    +0.155 HD
ATOM     11  H   UNL     1       0.703   7.381   0.397  0.00  0.00    +0.177 HD
ATOM     12  H   UNL     1      -4.857   8.741   0.422  0.00  0.00    +0.155 HD
ENDROOT
BRANCH   1  17
ATOM     13  C   UNL     1       2.492   0.988   1.028  0.00  0.00    +0.044 C 
ATOM     14  C   UNL     1       1.186   1.721   0.861  0.00  0.00    -0.050 A 
ATOM     15  C   UNL     1       1.072   3.033   1.283  0.00  0.00    +0.005 A 
ATOM     16  C   UNL     1      -0.124   3.707   1.132  0.00  0.00    +0.024 A 
ATOM     17  C   UNL     1      -1.213   3.066   0.555  0.00  0.00    +0.037 A 
ATOM     18  C   UNL     1      -1.093   1.751   0.126  0.00  0.00    -0.029 A 
ATOM     19  C   UNL     1       0.104   1.080   0.286  0.00  0.00    +0.008 A 
ATOM     20  C   UNL     1      -2.270   1.053  -0.507  0.00  0.00    +0.045 C 
ENDBRANCH   1  17
BRANCH   9  21
ATOM     21  C   UNL     1      -6.032   7.059   0.212  0.00  0.00    +0.034 A 
ATOM     22  C   UNL     1      -6.064   5.893  -0.541  0.00  0.00    +0.023 A 
ATOM     23  C   UNL     1      -7.244   5.187  -0.669  0.00  0.00    +0.002 A 
ATOM     24  C   UNL     1      -8.396   5.646  -0.056  0.00  0.00    +0.000 A 
ATOM     25  C   UNL     1      -8.369   6.810   0.689  0.00  0.00    +0.002 A 
ATOM     26  C   UNL     1      -7.191   7.518   0.825  0.00  0.00    +0.023 A 
ENDBRANCH   9  21
BRANCH   8  27
ATOM     27  N   UNL     1      -0.167   9.246   0.561  0.00  0.00    -0.184 NA
ATOM     28  C   UNL     1       0.940   9.921   0.494  0.00  0.00    +0.063 C 
ATOM     29  C   UNL     1       2.244   9.206   0.248  0.00  0.00    +0.068 C 
BRANCH  28  30
ATOM     30  C   UNL     1       0.922  11.386   0.659  0.00  0.00    -0.002 A 
ATOM     31  C   UNL     1       2.086  12.130   0.454  0.00  0.00    +0.012 A 
ATOM     32  C   UNL     1       2.061  13.500   0.605  0.00  0.00    +0.033 A 
ATOM     33  C   UNL     1       0.888  14.138   0.969  0.00  0.00    +0.126 A 
ATOM     34  C   UNL     1      -0.268  13.407   1.180  0.00  0.00    +0.033 A 
ATOM     35  C   UNL     1      -0.258  12.036   1.028  0.00  0.00    +0.012 A 
BRANCH  33  36
ATOM     36  N   UNL     1       0.870  15.609   1.135  0.00  0.00    +0.056 N 
ATOM     37  O   UNL     1      -0.160  16.173   1.456  0.00  0.00    -0.126 OA
ATOM     38  O   UNL     1       1.886  16.255   0.950  0.00  0.00    -0.126 OA
ENDBRANCH  33  36
ENDBRANCH  28  30
ENDBRANCH   8  27
TORSDOF 5
