REMARK  Name = ZINC52909845
REMARK  13 active torsions:
REMARK  status: ('A' for Active; 'I' for Inactive)
REMARK    1  A    between atoms: C_1  and  C_2
REMARK    2  A    between atoms: C_7  and  C_8
REMARK    3  A    between atoms: C_8  and  C_9
REMARK    4  A    between atoms: C_9  and  N_10
REMARK    5  A    between atoms: C_11  and  C_13
REMARK    6  A    between atoms: C_13  and  C_15
REMARK    7  A    between atoms: C_13  and  N_16
REMARK    8  A    between atoms: C_19  and  N_22
REMARK    9  A    between atoms: C_23  and  O_25
REMARK   10  A    between atoms: O_25  and  C_26
REMARK   11  A    between atoms: C_26  and  C_27
REMARK   12  A    between atoms: C_26  and  C_28
REMARK   13  A    between atoms: C_26  and  C_29
REMARK                            x       y       z     vdW  Elec       q    Type
REMARK                         _______ _______ _______ _____ _____    ______ ____
ROOT
ATOM      1  N   UNL     1      -3.938   2.699   6.346  0.00  0.00    +0.387 N 
ATOM      2  C   UNL     1      -3.916   3.534   7.553  0.00  0.00    -0.076 C 
ATOM      3  C   UNL     1      -5.326   4.054   7.843  0.00  0.00    +0.004 C 
ATOM      4  C   UNL     1      -6.268   2.866   8.060  0.00  0.00    +0.073 C 
ATOM      5  C   UNL     1      -6.226   1.962   6.825  0.00  0.00    +0.004 C 
ATOM      6  C   UNL     1      -4.783   1.520   6.572  0.00  0.00    -0.076 C 
ATOM      7  H   UNL     1      -4.309   3.234   5.575  0.00  0.00    -0.081 HD
ENDROOT
BRANCH   4   8
ATOM      8  N   UNL     1      -7.633   3.355   8.264  0.00  0.00    -0.278 N 
ATOM      9  C   UNL     1      -8.521   2.608   8.950  0.00  0.00    +0.401 C 
ATOM     10  O   UNL     1      -8.188   1.530   9.400  0.00  0.00    -0.226 OA
ATOM     11  H   UNL     1      -7.899   4.216   7.905  0.00  0.00    +0.152 HD
BRANCH   9  12
ATOM     12  O   UNL     1      -9.776   3.058   9.138  0.00  0.00    -0.445 OA
BRANCH  12  13
ATOM     13  C   UNL     1     -10.664   2.214   9.874  0.00  0.00    +0.107 C 
ATOM     14  C   UNL     1     -10.098   1.979  11.276  0.00  0.00    +0.055 C 
ATOM     15  C   UNL     1     -12.034   2.887   9.983  0.00  0.00    +0.055 C 
ATOM     16  C   UNL     1     -10.811   0.874   9.152  0.00  0.00    +0.055 C 
ENDBRANCH  12  13
ENDBRANCH   9  12
ENDBRANCH   4   8
BRANCH   1  17
ATOM     17  C   UNL     1      -2.571   2.266   6.027  0.00  0.00    +0.016 C 
ATOM     18  C   UNL     1      -1.677   3.494   5.847  0.00  0.00    -0.004 C 
BRANCH  17  20
ATOM     19  N   UNL     1      -1.636   0.529   4.534  0.00  0.00    -0.316 N 
ATOM     20  C   UNL     1      -2.584   1.462   4.752  0.00  0.00    +0.199 C 
ATOM     21  O   UNL     1      -3.447   1.655   3.922  0.00  0.00    -0.278 OA
ATOM     22  H   UNL     1      -0.946   0.375   5.198  0.00  0.00    +0.149 HD
BRANCH  19  23
ATOM     23  C   UNL     1      -1.648  -0.252   3.295  0.00  0.00    +0.109 C 
BRANCH  23  24
ATOM     24  C   UNL     1      -0.474  -1.233   3.299  0.00  0.00    +0.054 C 
BRANCH  24  31
ATOM     25  C   UNL     1       0.773  -0.180   0.915  0.00  0.00    +0.044 C 
ATOM     26  C   UNL     1       0.111  -1.533   0.883  0.00  0.00    -0.047 A 
ATOM     27  C   UNL     1       0.104  -2.272  -0.284  0.00  0.00    +0.003 A 
ATOM     28  C   UNL     1      -0.504  -3.513  -0.313  0.00  0.00    +0.000 A 
ATOM     29  C   UNL     1      -1.105  -4.015   0.826  0.00  0.00    +0.000 A 
ATOM     30  C   UNL     1      -1.098  -3.276   1.994  0.00  0.00    +0.004 A 
ATOM     31  C   UNL     1      -0.486  -2.036   2.024  0.00  0.00    -0.043 A 
ENDBRANCH  24  31
ENDBRANCH  23  24
ENDBRANCH  19  23
ENDBRANCH  17  20
ENDBRANCH   1  17
TORSDOF 8
