REMARK  Name = ZINC63708210
REMARK  9 active torsions:
REMARK  status: ('A' for Active; 'I' for Inactive)
REMARK    1  A    between atoms: C_1  and  C_2
REMARK    2  A    between atoms: C_4  and  C_9
REMARK    3  A    between atoms: C_5  and  C_8
REMARK    4  A    between atoms: C_9  and  C_10
REMARK    5  A    between atoms: C_10  and  C_11
REMARK    6  A    between atoms: C_21  and  S_25
REMARK    7  A    between atoms: S_25  and  C_26
REMARK    8  A    between atoms: C_26  and  C_27
REMARK    9  A    between atoms: C_30  and  N_33
REMARK                            x       y       z     vdW  Elec       q    Type
REMARK                         _______ _______ _______ _____ _____    ______ ____
ROOT
ATOM      1  C   UNL     1      -4.388   1.127  -1.594  0.00  0.00    +0.090 C 
ATOM      2  N   UNL     1      -4.289   1.742  -2.747  0.00  0.00    -0.332 N 
ATOM      3  C   UNL     1      -5.469   1.734  -3.377  0.00  0.00    +0.128 C 
ATOM      4  C   UNL     1      -5.893   2.249  -4.619  0.00  0.00    +0.038 A 
ATOM      5  C   UNL     1      -4.991   2.926  -5.457  0.00  0.00    +0.013 A 
ATOM      6  C   UNL     1      -5.418   3.416  -6.654  0.00  0.00    +0.001 A 
ATOM      7  C   UNL     1      -6.736   3.264  -7.077  0.00  0.00    +0.002 A 
ATOM      8  C   UNL     1      -7.659   2.619  -6.314  0.00  0.00    +0.026 A 
ATOM      9  C   UNL     1      -7.281   2.087  -5.062  0.00  0.00    +0.048 A 
ATOM     10  N   UNL     1      -8.166   1.454  -4.304  0.00  0.00    -0.356 N 
ATOM     11  C   UNL     1      -7.750   0.909  -3.006  0.00  0.00    +0.248 C 
ATOM     12  N   UNL     1      -6.363   1.076  -2.574  0.00  0.00    -0.204 N 
ATOM     13  N   UNL     1      -5.655   0.684  -1.431  0.00  0.00    -0.249 N 
ATOM     14  H   UNL     1      -6.005   0.194  -0.671  0.00  0.00    +0.171 HD
ATOM     15  H   UNL     1      -9.082   1.352  -4.606  0.00  0.00    +0.162 HD
ATOM     16  H   UNL     1      -3.477   2.145  -3.093  0.00  0.00    +0.168 HD
ENDROOT
BRANCH   1  17
ATOM     17  C   UNL     1      -3.265   0.937  -0.608  0.00  0.00    +0.075 C 
BRANCH  17  18
ATOM     18  C   UNL     1      -2.532  -0.371  -0.914  0.00  0.00    +0.042 C 
BRANCH  18  21
ATOM     19  C   UNL     1      -0.019   1.526   0.010  0.00  0.00    +0.039 C 
ATOM     20  C   UNL     1       0.002  -0.004   0.002  0.00  0.00    +0.153 C 
ATOM     21  C   UNL     1      -1.409  -0.561   0.072  0.00  0.00    -0.021 C 
ATOM     22  C   UNL     1      -1.423  -1.257   1.211  0.00  0.00    +0.061 C 
ATOM     23  N   UNL     1      -0.222  -1.193   1.828  0.00  0.00    -0.159 NA
ATOM     24  N   UNL     1       0.629  -0.523   1.230  0.00  0.00    -0.180 NA
ATOM     25  C   UNL     1      -2.617  -2.011   1.738  0.00  0.00    +0.067 C 
ENDBRANCH  18  21
ENDBRANCH  17  18
ENDBRANCH   1  17
BRANCH  11  26
ATOM     26  S   UNL     1      -8.104  -0.870  -3.023  0.00  0.00    -0.111 S 
BRANCH  26  27
ATOM     27  C   UNL     1      -7.113  -1.501  -4.405  0.00  0.00    +0.107 C 
BRANCH  27  28
ATOM     28  C   UNL     1      -7.318  -2.989  -4.531  0.00  0.00    -0.037 A 
ATOM     29  C   UNL     1      -6.497  -3.861  -3.840  0.00  0.00    +0.006 A 
ATOM     30  C   UNL     1      -6.685  -5.225  -3.956  0.00  0.00    +0.033 A 
ATOM     31  C   UNL     1      -7.694  -5.718  -4.763  0.00  0.00    +0.126 A 
ATOM     32  C   UNL     1      -8.515  -4.846  -5.453  0.00  0.00    +0.033 A 
ATOM     33  C   UNL     1      -8.330  -3.482  -5.334  0.00  0.00    +0.006 A 
BRANCH  31  34
ATOM     34  N   UNL     1      -7.894  -7.179  -4.887  0.00  0.00    +0.056 N 
ATOM     35  O   UNL     1      -7.176  -7.942  -4.284  0.00  0.00    -0.126 OA
ATOM     36  O   UNL     1      -8.776  -7.611  -5.593  0.00  0.00    -0.126 OA
ENDBRANCH  31  34
ENDBRANCH  27  28
ENDBRANCH  26  27
ENDBRANCH  11  26
TORSDOF 7
