REMARK  Name = ZINC04029379
REMARK  7 active torsions:
REMARK  status: ('A' for Active; 'I' for Inactive)
REMARK    1  A    between atoms: C_1  and  C_2
REMARK    2  A    between atoms: C_4  and  C_30
REMARK    3  A    between atoms: N_5  and  C_7
REMARK    4  A    between atoms: C_7  and  C_8
REMARK    5  A    between atoms: C_10  and  C_16
REMARK    6  A    between atoms: C_13  and  O_14
REMARK    7  A    between atoms: O_14  and  C_15
REMARK                            x       y       z     vdW  Elec       q    Type
REMARK                         _______ _______ _______ _____ _____    ______ ____
ROOT
ATOM      1  C   UNL     1       6.912   5.009   1.685  0.00  0.00    +0.016 A 
ATOM      2  C   UNL     1       5.790   5.269   0.922  0.00  0.00    +0.011 A 
ATOM      3  C   UNL     1       4.629   5.713   1.527  0.00  0.00    -0.055 A 
ATOM      4  C   UNL     1       4.583   5.887   2.898  0.00  0.00    +0.006 A 
ATOM      5  C   UNL     1       5.701   5.622   3.666  0.00  0.00    +0.046 A 
ATOM      6  C   UNL     1       6.869   5.182   3.061  0.00  0.00    +0.125 A 
ENDROOT
BRANCH   3   7
ATOM      7  C   UNL     1       3.408   6.002   0.691  0.00  0.00    +0.007 C 
ATOM      8  C   UNL     1       2.451   4.834   0.768  0.00  0.00    +0.010 A 
ATOM      9  C   UNL     1       1.121   4.986   0.926  0.00  0.00    -0.022 A 
ATOM     10  C   UNL     1       0.529   3.655   0.959  0.00  0.00    +0.003 A 
ATOM     11  C   UNL     1      -0.771   3.165   1.097  0.00  0.00    +0.010 A 
ATOM     12  C   UNL     1      -0.996   1.818   1.087  0.00  0.00    +0.001 A 
ATOM     13  C   UNL     1       0.060   0.928   0.940  0.00  0.00    +0.002 A 
ATOM     14  C   UNL     1       1.351   1.387   0.803  0.00  0.00    +0.026 A 
ATOM     15  C   UNL     1       1.603   2.755   0.810  0.00  0.00    +0.047 A 
ATOM     16  N   UNL     1       2.754   3.506   0.697  0.00  0.00    -0.359 N 
ATOM     17  H   UNL     1       3.647   3.143   0.583  0.00  0.00    +0.166 HD
ATOM     18  C   UNL     1       0.438   6.325   1.037  0.00  0.00    +0.018 C 
ATOM     19  C   UNL     1       1.423   7.399   0.555  0.00  0.00    -0.076 C 
ATOM     20  N   UNL     1       2.729   7.206   1.219  0.00  0.00    +0.387 N 
ATOM     21  H   UNL     1       3.320   8.029   1.047  0.00  0.00    -0.084 HD
ATOM     22  H   UNL     1       2.582   7.096   2.229  0.00  0.00    -0.084 HD
ENDBRANCH   3   7
BRANCH   6  23
ATOM     23  O   UNL     1       7.969   4.921   3.814  0.00  0.00    -0.495 OA
ATOM     24  C   UNL     1       7.852   5.121   5.224  0.00  0.00    +0.277 C 
ENDBRANCH   6  23
BRANCH   1  25
ATOM     25  C   UNL     1       8.179   4.530   1.024  0.00  0.00    +0.182 C 
BRANCH  25  30
ATOM     26  C   UNL     1      11.595   8.155   1.647  0.00  0.00    +0.069 C 
ATOM     27  C   UNL     1      10.547   7.255   1.045  0.00  0.00    +0.078 A 
ATOM     28  C   UNL     1      10.041   7.341  -0.257  0.00  0.00    +0.084 A 
ATOM     29  C   UNL     1       9.122   6.359  -0.412  0.00  0.00    +0.055 A 
ATOM     30  N   UNL     1       9.050   5.676   0.751  0.00  0.00    -0.262 N 
ATOM     31  N   UNL     1       9.950   6.261   1.651  0.00  0.00    -0.174 NA
ATOM     32  C   UNL     1       8.323   6.080  -1.658  0.00  0.00    +0.067 C 
ATOM     33 CL   UNL     1      10.509   8.502  -1.460  0.00  0.00    -0.080 Cl
ENDBRANCH  25  30
ENDBRANCH   1  25
TORSDOF 4
