REMARK  Name = ZINC16109986
REMARK  7 active torsions:
REMARK  status: ('A' for Active; 'I' for Inactive)
REMARK    1  A    between atoms: C_1  and  C_2
REMARK    2  A    between atoms: C_2  and  C_3
REMARK    3  A    between atoms: C_13  and  C_15
REMARK    4  A    between atoms: C_15  and  C_16
REMARK    5  A    between atoms: C_16  and  N_17
REMARK    6  A    between atoms: C_21  and  S_27
REMARK    7  A    between atoms: S_27  and  N_30
REMARK                            x       y       z     vdW  Elec       q    Type
REMARK                         _______ _______ _______ _____ _____    ______ ____
ROOT
ATOM      1  N   UNL     1      -6.161   0.466   1.289  0.00  0.00    -0.274 N 
ATOM      2  C   UNL     1      -7.170   0.409   0.328  0.00  0.00    +0.090 A 
ATOM      3  C   UNL     1      -7.229   0.761  -1.011  0.00  0.00    +0.031 A 
ATOM      4  C   UNL     1      -8.402   0.580  -1.718  0.00  0.00    +0.031 A 
ATOM      5  C   UNL     1      -9.517   0.049  -1.092  0.00  0.00    +0.109 A 
ATOM      6  C   UNL     1      -9.462  -0.311   0.240  0.00  0.00    +0.077 A 
ATOM      7  C   UNL     1      -8.291  -0.130   0.959  0.00  0.00    +0.159 A 
ATOM      8  O   UNL     1      -7.951  -0.370   2.249  0.00  0.00    -0.407 OA
ATOM      9  C   UNL     1      -6.672  -0.010   2.442  0.00  0.00    +0.421 A 
ATOM     10  O   UNL     1      -6.068  -0.101   3.493  0.00  0.00    -0.223 OA
ENDROOT
BRANCH   5  11
ATOM     11  S   UNL     1     -11.008  -0.177  -2.002  0.00  0.00    +0.061 S 
ATOM     12  O   UNL     1     -12.066  -0.181  -1.053  0.00  0.00    -0.153 OA
ATOM     13  O   UNL     1     -10.964   0.736  -3.089  0.00  0.00    -0.153 OA
BRANCH  11  14
ATOM     14  N   UNL     1     -10.956  -1.697  -2.657  0.00  0.00    -0.177 NA
ATOM     15  C   UNL     1     -10.406  -2.043  -3.976  0.00  0.00    +0.109 C 
ATOM     16  C   UNL     1     -10.594  -3.562  -4.167  0.00  0.00    +0.018 C 
ATOM     17  C   UNL     1     -11.756  -3.892  -3.193  0.00  0.00    +0.018 C 
ATOM     18  C   UNL     1     -11.459  -2.927  -2.018  0.00  0.00    +0.109 C 
ENDBRANCH  11  14
ENDBRANCH   5  11
BRANCH   1  19
ATOM     19  C   UNL     1      -4.797   0.961   1.085  0.00  0.00    +0.138 C 
BRANCH  19  20
ATOM     20  C   UNL     1      -3.894  -0.197   0.654  0.00  0.00    +0.118 C 
BRANCH  20  30
ATOM     21  C   UNL     1      -0.134  -0.066  -0.088  0.00  0.00    +0.107 C 
ATOM     22  C   UNL     1       0.398  -0.585  -1.423  0.00  0.00    -0.017 A 
ATOM     23  C   UNL     1       1.576  -0.123  -2.007  0.00  0.00    +0.013 A 
ATOM     24  C   UNL     1       1.989  -0.632  -3.191  0.00  0.00    +0.046 A 
ATOM     25  S   UNL     1       0.702  -1.818  -3.550  0.00  0.00    -0.101 S 
ATOM     26  C   UNL     1      -0.285  -1.546  -2.102  0.00  0.00    -0.004 A 
ATOM     27  C   UNL     1      -1.567  -2.209  -1.715  0.00  0.00    +0.061 C 
ATOM     28  C   UNL     1      -1.826  -1.947  -0.223  0.00  0.00    +0.113 C 
ATOM     29  N   UNL     1      -1.518  -0.537   0.058  0.00  0.00    -0.294 N 
ATOM     30  C   UNL     1      -2.491   0.312   0.444  0.00  0.00    +0.218 C 
ATOM     31  O   UNL     1      -2.238   1.484   0.622  0.00  0.00    -0.276 OA
BRANCH  21  33
ATOM     32  C   UNL     1      -0.869   1.997  -1.290  0.00  0.00    +0.006 C 
ATOM     33  C   UNL     1      -0.103   1.464  -0.078  0.00  0.00    +0.024 C 
ENDBRANCH  21  33
ENDBRANCH  20  30
ENDBRANCH  19  20
ENDBRANCH   1  19
TORSDOF 6
