REMARK  Name = ZINC55119543
REMARK  9 active torsions:
REMARK  status: ('A' for Active; 'I' for Inactive)
REMARK    1  A    between atoms: C_1  and  C_2
REMARK    2  A    between atoms: C_3  and  C_9
REMARK    3  A    between atoms: N_5  and  C_7
REMARK    4  A    between atoms: C_9  and  N_10
REMARK    5  A    between atoms: N_10  and  C_11
REMARK    6  A    between atoms: N_10  and  C_18
REMARK    7  A    between atoms: C_11  and  C_12
REMARK    8  A    between atoms: C_18  and  C_19
REMARK    9  A    between atoms: N_24  and  C_26
REMARK                            x       y       z     vdW  Elec       q    Type
REMARK                         _______ _______ _______ _____ _____    ______ ____
ROOT
ATOM      1  N   UNL     1       1.515  -0.097  -2.678  0.00  0.00    -0.294 NA
ENDROOT
BRANCH   1   2
ATOM      2  C   UNL     1       0.442   0.002  -1.680  0.00  0.00    +0.124 C 
BRANCH   2   5
ATOM      3  C   UNL     1       2.019   1.159   0.813  0.00  0.00    +0.068 C 
ATOM      4  C   UNL     1       1.528  -0.257   0.657  0.00  0.00    +0.066 A 
ATOM      5  C   UNL     1       0.832  -0.767  -0.445  0.00  0.00    +0.026 A 
ATOM      6  C   UNL     1       0.571  -2.074  -0.203  0.00  0.00    +0.131 A 
ATOM      7  N   UNL     1       1.083  -2.378   1.008  0.00  0.00    -0.256 N 
ATOM      8  N   UNL     1       1.683  -1.223   1.525  0.00  0.00    -0.175 NA
ATOM      9  C   UNL     1       1.026  -3.687   1.663  0.00  0.00    +0.174 C 
ATOM     10 CL   UNL     1      -0.273  -3.162  -1.261  0.00  0.00    -0.062 Cl
ENDBRANCH   2   5
ENDBRANCH   1   2
BRANCH   1  11
ATOM     11  C   UNL     1       1.662  -1.478  -3.158  0.00  0.00    +0.121 C 
BRANCH  11  12
ATOM     12  C   UNL     1       2.923  -1.595  -3.974  0.00  0.00    -0.015 A 
ATOM     13  C   UNL     1       2.873  -1.523  -5.358  0.00  0.00    +0.008 A 
ATOM     14  C   UNL     1       4.058  -1.636  -6.068  0.00  0.00    +0.020 A 
ATOM     15  C   UNL     1       5.242  -1.815  -5.378  0.00  0.00    +0.111 A 
ATOM     16  N   UNL     1       5.252  -1.879  -4.061  0.00  0.00    -0.263 NA
ATOM     17  C   UNL     1       4.145  -1.770  -3.353  0.00  0.00    +0.115 A 
ENDBRANCH  11  12
ENDBRANCH   1  11
BRANCH   1  18
ATOM     18  C   UNL     1       1.282   0.826  -3.797  0.00  0.00    +0.086 C 
BRANCH  18  19
ATOM     19  C   UNL     1       2.624   1.299  -4.356  0.00  0.00    -0.014 C 
ATOM     20  C   UNL     1       3.349   2.142  -3.303  0.00  0.00    +0.001 C 
ATOM     21  C   UNL     1       4.655   2.675  -3.899  0.00  0.00    -0.018 C 
ATOM     22  C   UNL     1       4.341   3.475  -5.165  0.00  0.00    -0.078 C 
ATOM     23  N   UNL     1       3.673   2.608  -6.143  0.00  0.00    +0.382 N 
ATOM     24  C   UNL     1       2.386   2.149  -5.606  0.00  0.00    -0.074 C 
ATOM     25  H   UNL     1       4.258   1.809  -6.338  0.00  0.00    -0.081 HD
BRANCH  23  26
ATOM     26  C   UNL     1       3.444   3.358  -7.385  0.00  0.00    -0.069 C 
ATOM     27  C   UNL     1       2.747   2.456  -8.405  0.00  0.00    -0.015 C 
ATOM     28  C   UNL     1       2.509   3.238  -9.699  0.00  0.00    -0.002 C 
ATOM     29  C   UNL     1       3.850   3.707 -10.265  0.00  0.00    -0.000 C 
ATOM     30  C   UNL     1       4.547   4.610  -9.245  0.00  0.00    -0.002 C 
ATOM     31  C   UNL     1       4.785   3.828  -7.952  0.00  0.00    -0.015 C 
ENDBRANCH  23  26
ENDBRANCH  18  19
ENDBRANCH   1  18
TORSDOF 7
