REMARK  Name = ZINC63835719
REMARK  5 active torsions:
REMARK  status: ('A' for Active; 'I' for Inactive)
REMARK    1  A    between atoms: C_1  and  S_2
REMARK    2  A    between atoms: S_2  and  C_5
REMARK    3  A    between atoms: C_8  and  N_11
REMARK    4  A    between atoms: C_12  and  C_23
REMARK    5  A    between atoms: C_15  and  C_17
REMARK                            x       y       z     vdW  Elec       q    Type
REMARK                         _______ _______ _______ _____ _____    ______ ____
ROOT
ATOM      1  N   UNL     1       2.838  -1.461  -4.993  0.00  0.00    -0.227 N 
ATOM      2  C   UNL     1       4.284  -1.682  -5.170  0.00  0.00    +0.217 C 
ATOM      3  N   UNL     1       4.441  -2.016  -6.592  0.00  0.00    -0.350 N 
ATOM      4  C   UNL     1       3.271  -1.993  -7.151  0.00  0.00    +0.118 C 
ATOM      5  N   UNL     1       2.277  -1.677  -6.261  0.00  0.00    -0.247 N 
ATOM      6  H   UNL     1       1.333  -1.611  -6.475  0.00  0.00    +0.172 HD
ATOM      7  H   UNL     1       5.278  -2.219  -7.037  0.00  0.00    +0.163 HD
ENDROOT
BRANCH   1  11
ATOM      8  C   UNL     1       0.845  -0.437  -1.483  0.00  0.00    +0.088 A 
ATOM      9  C   UNL     1       0.133  -0.612  -2.655  0.00  0.00    +0.029 A 
ATOM     10  C   UNL     1       0.791  -0.952  -3.821  0.00  0.00    +0.026 A 
ATOM     11  C   UNL     1       2.170  -1.117  -3.816  0.00  0.00    +0.050 A 
ATOM     12  C   UNL     1       2.883  -0.940  -2.636  0.00  0.00    +0.026 A 
ATOM     13  C   UNL     1       2.219  -0.596  -1.475  0.00  0.00    +0.029 A 
BRANCH   8  15
ATOM     14  C   UNL     1      -0.022   1.810   0.012  0.00  0.00    +0.200 C 
ATOM     15  S   UNL     1       0.002  -0.004   0.002  0.00  0.00    -0.006 S 
ATOM     16  O   UNL     1       0.835  -0.488   1.046  0.00  0.00    -0.170 OA
ATOM     17  O   UNL     1      -1.315  -0.510  -0.168  0.00  0.00    -0.170 OA
ENDBRANCH   8  15
ENDBRANCH   1  11
BRANCH   4  18
ATOM     18  C   UNL     1       3.035  -2.280  -8.585  0.00  0.00    +0.014 A 
ATOM     19  C   UNL     1       3.871  -3.163  -9.268  0.00  0.00    +0.011 A 
ATOM     20  C   UNL     1       3.646  -3.427 -10.604  0.00  0.00    +0.001 A 
ATOM     21  C   UNL     1       2.595  -2.817 -11.265  0.00  0.00    +0.000 A 
ATOM     22  C   UNL     1       1.763  -1.940 -10.593  0.00  0.00    +0.001 A 
ATOM     23  C   UNL     1       1.974  -1.673  -9.255  0.00  0.00    +0.011 A 
ENDBRANCH   4  18
BRANCH   2  24
ATOM     24  C   UNL     1       4.758  -2.842  -4.292  0.00  0.00    +0.194 C 
ATOM     25  C   UNL     1       6.258  -3.035  -4.421  0.00  0.00    +0.026 C 
ATOM     26  C   UNL     1       6.382  -4.268  -4.916  0.00  0.00    +0.132 C 
ATOM     27  N   UNL     1       5.169  -4.836  -5.100  0.00  0.00    -0.162 NA
ATOM     28  N   UNL     1       4.212  -4.120  -4.780  0.00  0.00    -0.176 NA
ENDBRANCH   2  24
TORSDOF 4
