REMARK  Name = ZINC09559329
REMARK  9 active torsions:
REMARK  status: ('A' for Active; 'I' for Inactive)
REMARK    1  A    between atoms: C_1  and  C_2
REMARK    2  A    between atoms: C_2  and  O_3
REMARK    3  A    between atoms: O_3  and  C_4
REMARK    4  A    between atoms: C_4  and  C_6
REMARK    5  A    between atoms: C_13  and  C_15
REMARK    6  A    between atoms: C_15  and  N_16
REMARK    7  A    between atoms: C_18  and  S_27
REMARK    8  A    between atoms: S_27  and  N_30
REMARK    9  A    between atoms: C_33  and  C_36
REMARK                            x       y       z     vdW  Elec       q    Type
REMARK                         _______ _______ _______ _____ _____    ______ ____
ROOT
ATOM      1  N   UNL     1      -2.273  -0.824  -2.093  0.00  0.00    -0.304 N 
ATOM      2  C   UNL     1      -3.532  -1.349  -2.031  0.00  0.00    +0.118 A 
ATOM      3  C   UNL     1      -4.017  -2.170  -2.976  0.00  0.00    +0.129 A 
ATOM      4  C   UNL     1      -3.177  -2.524  -4.121  0.00  0.00    +0.015 A 
ATOM      5  C   UNL     1      -3.626  -3.372  -5.135  0.00  0.00    +0.010 A 
ATOM      6  C   UNL     1      -2.796  -3.669  -6.181  0.00  0.00    +0.001 A 
ATOM      7  C   UNL     1      -1.515  -3.137  -6.248  0.00  0.00    +0.001 A 
ATOM      8  C   UNL     1      -1.049  -2.303  -5.269  0.00  0.00    +0.014 A 
ATOM      9  C   UNL     1      -1.873  -1.983  -4.190  0.00  0.00    +0.049 A 
ATOM     10  C   UNL     1      -1.432  -1.090  -3.112  0.00  0.00    +0.260 A 
ATOM     11  O   UNL     1      -0.318  -0.600  -3.135  0.00  0.00    -0.267 OA
ENDROOT
BRANCH   3  12
ATOM     12  S   UNL     1      -5.651  -2.815  -2.840  0.00  0.00    +0.063 S 
ATOM     13  O   UNL     1      -6.271  -2.126  -1.763  0.00  0.00    -0.153 OA
ATOM     14  O   UNL     1      -6.195  -2.825  -4.152  0.00  0.00    -0.153 OA
BRANCH  12  15
ATOM     15  N   UNL     1      -5.515  -4.398  -2.373  0.00  0.00    -0.177 NA
ATOM     16  C   UNL     1      -5.569  -5.479  -3.366  0.00  0.00    +0.110 C 
ATOM     17  C   UNL     1      -4.322  -6.360  -3.198  0.00  0.00    +0.020 C 
ATOM     18  C   UNL     1      -4.237  -6.843  -1.748  0.00  0.00    -0.012 C 
ATOM     19  C   UNL     1      -4.105  -5.638  -0.814  0.00  0.00    +0.020 C 
ATOM     20  C   UNL     1      -5.344  -4.749  -0.956  0.00  0.00    +0.110 C 
ATOM     21  C   UNL     1      -3.017  -7.752  -1.584  0.00  0.00    +0.007 C 
ENDBRANCH  12  15
ENDBRANCH   3  12
BRANCH   1  22
ATOM     22  C   UNL     1      -1.823   0.064  -1.018  0.00  0.00    +0.220 C 
BRANCH  22  29
ATOM     23  C   UNL     1       1.362  -0.342   2.494  0.00  0.00    +0.115 C 
ATOM     24  C   UNL     1       1.234   1.152   2.801  0.00  0.00    +0.018 C 
ATOM     25  C   UNL     1       0.633   1.873   1.592  0.00  0.00    +0.020 C 
ATOM     26  C   UNL     1      -0.766   1.315   1.314  0.00  0.00    +0.108 C 
ATOM     27  N   UNL     1      -0.672  -0.143   1.161  0.00  0.00    -0.299 N 
ATOM     28  C   UNL     1      -0.029  -0.925   2.226  0.00  0.00    +0.122 C 
ATOM     29  C   UNL     1      -1.167  -0.752   0.065  0.00  0.00    +0.235 C 
ATOM     30  O   UNL     1      -1.083  -1.957  -0.049  0.00  0.00    -0.274 OA
BRANCH  23  31
ATOM     31  C   UNL     1       1.984  -1.047   3.672  0.00  0.00    +0.312 C 
ATOM     32  O   UNL     1       2.297  -0.419   4.656  0.00  0.00    -0.250 OA
BRANCH  31  33
ATOM     33  O   UNL     1       2.191  -2.372   3.628  0.00  0.00    -0.465 OA
BRANCH  33  35
ATOM     34  C   UNL     1       2.951  -4.488   4.565  0.00  0.00    +0.048 C 
ATOM     35  C   UNL     1       2.795  -2.984   4.799  0.00  0.00    +0.229 C 
ENDBRANCH  33  35
ENDBRANCH  31  33
ENDBRANCH  23  31
ENDBRANCH  22  29
ENDBRANCH   1  22
TORSDOF 7
