REMARK  Name = ZINC16025185
REMARK  5 active torsions:
REMARK  status: ('A' for Active; 'I' for Inactive)
REMARK    1  A    between atoms: C_3  and  O_37
REMARK    2  A    between atoms: C_4  and  O_36
REMARK    3  A    between atoms: C_6  and  C_7
REMARK    4  A    between atoms: C_7  and  C_8
REMARK    5  A    between atoms: N_16  and  C_19
REMARK                            x       y       z     vdW  Elec       q    Type
REMARK                         _______ _______ _______ _____ _____    ______ ____
ROOT
ATOM      1  C   UNL     1      -1.746  -1.026  -1.429  0.00  0.00    +0.072 C 
ATOM      2  C   UNL     1      -3.026  -1.889  -1.447  0.00  0.00    +0.107 C 
ATOM      3  C   UNL     1      -3.880  -1.313  -2.610  0.00  0.00    +0.122 C 
ATOM      4  C   UNL     1      -5.096  -0.754  -1.905  0.00  0.00    +0.228 C 
ATOM      5  O   UNL     1      -6.033  -0.211  -2.449  0.00  0.00    -0.275 OA
ATOM      6  N   UNL     1      -4.977  -0.954  -0.587  0.00  0.00    -0.238 N 
ATOM      7  C   UNL     1      -3.845  -1.592  -0.211  0.00  0.00    +0.227 C 
ATOM      8  O   UNL     1      -3.530  -1.880   0.923  0.00  0.00    -0.275 OA
ATOM      9  C   UNL     1      -3.030  -0.172  -3.184  0.00  0.00    +0.136 C 
ATOM     10  N   UNL     1      -2.135   0.253  -2.081  0.00  0.00    -0.295 NA
ATOM     11  C   UNL     1      -3.884   0.970  -3.656  0.00  0.00    +0.005 A 
ATOM     12  C   UNL     1      -4.795   1.794  -3.034  0.00  0.00    +0.027 A 
ATOM     13  C   UNL     1      -5.441   2.783  -3.756  0.00  0.00    +0.041 A 
ATOM     14  C   UNL     1      -5.167   2.942  -5.103  0.00  0.00    +0.022 A 
ATOM     15  C   UNL     1      -4.253   2.120  -5.729  0.00  0.00    +0.025 A 
ATOM     16  C   UNL     1      -3.600   1.122  -5.010  0.00  0.00    +0.039 A 
ATOM     17  N   UNL     1      -2.650   0.181  -5.413  0.00  0.00    -0.283 N 
ATOM     18  C   UNL     1      -2.263  -0.617  -4.399  0.00  0.00    +0.243 C 
ATOM     19  O   UNL     1      -1.454  -1.519  -4.455  0.00  0.00    -0.273 OA
ATOM     20 CL   UNL     1      -6.591   3.822  -2.973  0.00  0.00    -0.084 Cl
ATOM     21  H   UNL     1      -2.610   0.860  -1.431  0.00  0.00    +0.124 HD
ATOM     22  H   UNL     1      -2.308   0.110  -6.318  0.00  0.00    +0.155 HD
ENDROOT
BRANCH   6  23
ATOM     23  C   UNL     1      -5.994  -0.523   0.374  0.00  0.00    +0.084 C 
ATOM     24  C   UNL     1      -5.365   0.419   1.422  0.00  0.00    +0.023 C 
ATOM     25  C   UNL     1      -6.080   0.047   2.745  0.00  0.00    +0.002 C 
ATOM     26  C   UNL     1      -6.222  -1.491   2.636  0.00  0.00    +0.002 C 
ATOM     27  C   UNL     1      -6.538  -1.738   1.146  0.00  0.00    +0.023 C 
ENDBRANCH   6  23
BRANCH   1  28
ATOM     28  C   UNL     1      -1.294  -0.774   0.010  0.00  0.00    +0.054 C 
BRANCH  28  34
ATOM     29  C   UNL     1      -0.017   1.378   0.010  0.00  0.00    +0.007 A 
ATOM     30  C   UNL     1       1.170   2.089   0.002  0.00  0.00    +0.049 A 
ATOM     31  C   UNL     1       2.380   1.415  -0.013  0.00  0.00    +0.158 A 
ATOM     32  C   UNL     1       2.399   0.024  -0.021  0.00  0.00    +0.158 A 
ATOM     33  C   UNL     1       1.207  -0.682  -0.013  0.00  0.00    +0.052 A 
ATOM     34  C   UNL     1       0.002  -0.004   0.002  0.00  0.00    -0.042 A 
BRANCH  32  35
ATOM     35  O   UNL     1       3.585  -0.642  -0.036  0.00  0.00    -0.503 OA
ATOM     36  H   UNL     1       3.937  -0.839   0.843  0.00  0.00    +0.292 HD
ENDBRANCH  32  35
BRANCH  31  37
ATOM     37  O   UNL     1       3.548   2.113  -0.021  0.00  0.00    -0.503 OA
ATOM     38  H   UNL     1       3.894   2.310   0.860  0.00  0.00    +0.292 HD
ENDBRANCH  31  37
ENDBRANCH  28  34
ENDBRANCH   1  28
TORSDOF 5
