REMARK  Name = ZINC39529610
REMARK  7 active torsions:
REMARK  status: ('A' for Active; 'I' for Inactive)
REMARK    1  A    between atoms: C_4  and  C_7
REMARK    2  A    between atoms: C_9  and  C_30
REMARK    3  A    between atoms: C_12  and  N_13
REMARK    4  A    between atoms: C_17  and  S_20
REMARK    5  A    between atoms: S_20  and  O_23
REMARK    6  A    between atoms: O_23  and  C_24
REMARK    7  A    between atoms: C_35  and  O_36
REMARK                            x       y       z     vdW  Elec       q    Type
REMARK                         _______ _______ _______ _____ _____    ______ ____
ROOT
ATOM      1  C   UNL     1       4.341  -1.234  -0.185  0.00  0.00    +0.004 A 
ATOM      2  C   UNL     1       5.368  -1.143  -1.118  0.00  0.00    +0.019 A 
ATOM      3  C   UNL     1       6.495  -1.948  -0.987  0.00  0.00    -0.014 A 
ATOM      4  C   UNL     1       6.593  -2.844   0.078  0.00  0.00    +0.010 A 
ATOM      5  C   UNL     1       5.575  -2.935   1.004  0.00  0.00    +0.024 A 
ATOM      6  C   UNL     1       4.449  -2.131   0.885  0.00  0.00    +0.037 A 
ENDROOT
BRANCH   6   7
ATOM      7  N   UNL     1       3.425  -2.221   1.827  0.00  0.00    -0.331 N 
ATOM      8  C   UNL     1       3.348  -1.278   2.953  0.00  0.00    +0.086 C 
ATOM      9  C   UNL     1       3.188  -2.080   4.248  0.00  0.00    -0.061 C 
ATOM     10  N   UNL     1       2.031  -2.976   4.128  0.00  0.00    +0.398 N 
ATOM     11  C   UNL     1       2.276  -3.970   3.076  0.00  0.00    +0.133 C 
ATOM     12  C   UNL     1       2.388  -3.258   1.719  0.00  0.00    +0.115 C 
ATOM     13  H   UNL     1       1.881  -3.449   5.007  0.00  0.00    -0.083 HD
ATOM     14  H   UNL     1       1.212  -2.436   3.895  0.00  0.00    -0.083 HD
BRANCH  11  15
ATOM     15  S   UNL     1       0.900  -5.151   3.026  0.00  0.00    +0.109 S 
ATOM     16  O   UNL     1      -0.335  -4.458   2.900  0.00  0.00    -0.138 OA
ATOM     17  O   UNL     1       1.214  -6.234   2.162  0.00  0.00    -0.138 OA
BRANCH  15  18
ATOM     18  O   UNL     1       0.860  -5.764   4.418  0.00  0.00    -0.347 OA
BRANCH  18  19
ATOM     19  C   UNL     1       1.854  -6.661   4.656  0.00  0.00    +0.156 A 
ATOM     20  C   UNL     1       1.695  -7.988   4.283  0.00  0.00    +0.048 A 
ATOM     21  C   UNL     1       2.707  -8.897   4.525  0.00  0.00    +0.004 A 
ATOM     22  C   UNL     1       3.876  -8.486   5.138  0.00  0.00    +0.000 A 
ATOM     23  C   UNL     1       4.036  -7.165   5.511  0.00  0.00    +0.004 A 
ATOM     24  C   UNL     1       3.030  -6.250   5.266  0.00  0.00    +0.048 A 
ENDBRANCH  18  19
ENDBRANCH  15  18
ENDBRANCH  11  15
ENDBRANCH   6   7
BRANCH   1  28
ATOM     25  C   UNL     1       0.888   1.218  -0.570  0.00  0.00    +0.000 A 
ATOM     26  C   UNL     1       2.142   1.799  -0.503  0.00  0.00    +0.001 A 
ATOM     27  C   UNL     1       3.266   1.008  -0.378  0.00  0.00    +0.008 A 
ATOM     28  C   UNL     1       3.136  -0.378  -0.319  0.00  0.00    -0.016 A 
ATOM     29  C   UNL     1       1.871  -0.958  -0.386  0.00  0.00    +0.008 A 
ATOM     30  C   UNL     1       0.754  -0.157  -0.511  0.00  0.00    +0.001 A 
ENDBRANCH   1  28
BRANCH   3  31
ATOM     31  C   UNL     1       7.593  -1.854  -1.980  0.00  0.00    +0.024 A 
ATOM     32  C   UNL     1       7.310  -1.911  -3.343  0.00  0.00    +0.012 A 
ATOM     33  C   UNL     1       8.334  -1.823  -4.263  0.00  0.00    +0.001 A 
ATOM     34  C   UNL     1       9.643  -1.679  -3.837  0.00  0.00    +0.004 A 
ATOM     35  C   UNL     1       9.935  -1.622  -2.488  0.00  0.00    +0.046 A 
ATOM     36  C   UNL     1       8.915  -1.703  -1.553  0.00  0.00    +0.125 A 
BRANCH  36  37
ATOM     37  O   UNL     1       9.200  -1.641  -0.226  0.00  0.00    -0.506 OA
ATOM     38  H   UNL     1       9.376  -2.501   0.179  0.00  0.00    +0.292 HD
ENDBRANCH  36  37
ENDBRANCH   3  31
TORSDOF 7
