REMARK  Name = ZINC22475425
REMARK  5 active torsions:
REMARK  status: ('A' for Active; 'I' for Inactive)
REMARK    1  A    between atoms: C_5  and  S_6
REMARK    2  A    between atoms: S_6  and  N_9
REMARK    3  A    between atoms: C_13  and  C_15
REMARK    4  A    between atoms: N_17  and  C_18
REMARK    5  A    between atoms: C_21  and  N_25
REMARK                            x       y       z     vdW  Elec       q    Type
REMARK                         _______ _______ _______ _____ _____    ______ ____
ROOT
ATOM      1  C   UNL     1       4.278  -0.291   2.199  0.00  0.00    +0.236 C 
ATOM      2  O   UNL     1       3.674   0.342   1.359  0.00  0.00    -0.274 OA
ATOM      3  N   UNL     1       5.303   0.278   2.864  0.00  0.00    -0.284 N 
ATOM      4  H   UNL     1       5.809  -0.274   3.670  0.00  0.00    +0.155 HD
ENDROOT
BRANCH   3   5
ATOM      5  C   UNL     1       5.723   1.572   2.530  0.00  0.00    +0.036 A 
ATOM      6  C   UNL     1       7.068   1.907   2.606  0.00  0.00    +0.045 A 
ATOM      7  C   UNL     1       7.483   3.182   2.272  0.00  0.00    +0.065 A 
ATOM      8  C   UNL     1       6.553   4.132   1.871  0.00  0.00    +0.062 A 
ATOM      9  C   UNL     1       5.206   3.799   1.800  0.00  0.00    +0.065 A 
ATOM     10  C   UNL     1       4.792   2.522   2.129  0.00  0.00    +0.045 A 
ATOM     11 CL   UNL     1       4.043   4.986   1.299  0.00  0.00    -0.082 Cl
ATOM     12 CL   UNL     1       9.166   3.598   2.361  0.00  0.00    -0.082 Cl
BRANCH   8  13
ATOM     13  N   UNL     1       6.972   5.426   1.537  0.00  0.00    -0.356 N 
ATOM     14  H   UNL     1       6.235   6.178   1.219  0.00  0.00    +0.142 HD
ATOM     15  H   UNL     1       8.039   5.690   1.592  0.00  0.00    +0.142 HD
ENDBRANCH   8  13
ENDBRANCH   3   5
BRANCH   1  20
ATOM     16  N   UNL     1       3.506  -2.414   1.256  0.00  0.00    -0.164 NA
ATOM     17  C   UNL     1       2.388  -3.323   1.548  0.00  0.00    +0.110 C 
ATOM     18  C   UNL     1       2.037  -3.153   3.041  0.00  0.00    +0.019 C 
ATOM     19  C   UNL     1       2.603  -1.747   3.373  0.00  0.00    +0.031 C 
ATOM     20  C   UNL     1       3.883  -1.715   2.498  0.00  0.00    +0.166 C 
BRANCH  16  21
ATOM     21  S   UNL     1       4.227  -2.214  -0.222  0.00  0.00    +0.068 S 
ATOM     22  O   UNL     1       4.831  -0.928  -0.208  0.00  0.00    -0.152 OA
ATOM     23  O   UNL     1       3.267  -2.595  -1.197  0.00  0.00    -0.152 OA
BRANCH  21  28
ATOM     24  C   UNL     1       5.497  -4.684  -0.707  0.00  0.00    +0.037 A 
ATOM     25  C   UNL     1       6.666  -5.422  -0.709  0.00  0.00    +0.025 A 
ATOM     26  C   UNL     1       7.821  -4.823  -0.328  0.00  0.00    +0.057 A 
ATOM     27  S   UNL     1       7.272  -3.168   0.052  0.00  0.00    -0.062 S 
ATOM     28  C   UNL     1       5.540  -3.385  -0.323  0.00  0.00    +0.144 A 
ATOM     29 BR   UNL     1       9.564  -5.551  -0.231  0.00  0.00    -0.043 Br
ENDBRANCH  21  28
ENDBRANCH  16  21
ENDBRANCH   1  20
TORSDOF 5
