REMARK  Name = ZINC66854749
REMARK  9 active torsions:
REMARK  status: ('A' for Active; 'I' for Inactive)
REMARK    1  A    between atoms: C_1  and  N_2
REMARK    2  A    between atoms: N_2  and  C_3
REMARK    3  A    between atoms: C_3  and  C_4
REMARK    4  A    between atoms: C_4  and  C_5
REMARK    5  A    between atoms: C_7  and  C_9
REMARK    6  A    between atoms: C_9  and  N_10
REMARK    7  A    between atoms: N_13  and  C_16
REMARK    8  A    between atoms: C_19  and  N_26
REMARK    9  A    between atoms: C_21  and  C_22
REMARK                            x       y       z     vdW  Elec       q    Type
REMARK                         _______ _______ _______ _____ _____    ______ ____
ROOT
ATOM      1  N   UNL     1      -0.020  -0.860  -3.591  0.00  0.00    -0.291 NA
ATOM      2  C   UNL     1      -1.260  -1.647  -3.617  0.00  0.00    +0.104 C 
ATOM      3  C   UNL     1      -1.143  -2.742  -4.683  0.00  0.00    +0.120 C 
ATOM      4  N   UNL     1      -0.780  -2.113  -5.962  0.00  0.00    -0.327 N 
ATOM      5  C   UNL     1       0.373  -1.199  -5.985  0.00  0.00    +0.120 C 
ATOM      6  C   UNL     1       0.196  -0.165  -4.868  0.00  0.00    +0.104 C 
ENDROOT
BRANCH   4   7
ATOM      7  C   UNL     1      -1.509  -2.376  -7.123  0.00  0.00    +0.042 A 
ATOM      8  C   UNL     1      -2.598  -1.580  -7.457  0.00  0.00    +0.026 A 
ATOM      9  C   UNL     1      -3.316  -1.843  -8.607  0.00  0.00    +0.034 A 
ATOM     10  C   UNL     1      -2.954  -2.897  -9.425  0.00  0.00    +0.127 A 
ATOM     11  C   UNL     1      -1.871  -3.692  -9.095  0.00  0.00    +0.047 A 
ATOM     12  C   UNL     1      -1.145  -3.431  -7.950  0.00  0.00    +0.078 A 
BRANCH  12  13
ATOM     13  C   UNL     1       0.038  -4.294  -7.594  0.00  0.00    +0.419 C 
ATOM     14  F   UNL     1       0.206  -5.282  -8.571  0.00  0.00    -0.166 F 
ATOM     15  F   UNL     1       1.190  -3.503  -7.530  0.00  0.00    -0.166 F 
ATOM     16  F   UNL     1      -0.182  -4.899  -6.352  0.00  0.00    -0.166 F 
ENDBRANCH  12  13
BRANCH  10  17
ATOM     17  N   UNL     1      -3.726  -3.176 -10.656  0.00  0.00    +0.056 N 
ATOM     18  O   UNL     1      -4.673  -2.482 -10.946  0.00  0.00    -0.126 OA
ATOM     19  O   UNL     1      -3.411  -4.098 -11.372  0.00  0.00    -0.126 OA
ENDBRANCH  10  17
ENDBRANCH   4   7
BRANCH   1  20
ATOM     20  C   UNL     1      -0.023   0.089  -2.470  0.00  0.00    +0.180 C 
BRANCH  20  23
ATOM     21  C   UNL     1      -0.018   1.461   0.010  0.00  0.00    +0.132 C 
ATOM     22  N   UNL     1       0.002  -0.004   0.002  0.00  0.00    -0.303 N 
ATOM     23  C   UNL     1       0.000  -0.672  -1.169  0.00  0.00    +0.229 C 
ATOM     24  O   UNL     1       0.017  -1.884  -1.175  0.00  0.00    -0.274 OA
BRANCH  22  25
ATOM     25  C   UNL     1       0.024  -0.743   1.267  0.00  0.00    +0.122 C 
BRANCH  25  26
ATOM     26  C   UNL     1      -1.411  -1.020   1.720  0.00  0.00    +0.137 C 
BRANCH  26  27
ATOM     27  C   UNL     1      -1.388  -1.763   2.991  0.00  0.00    +0.064 C 
ATOM     28  N   UNL     1      -1.371  -2.336   3.972  0.00  0.00    -0.197 NA
ENDBRANCH  26  27
ENDBRANCH  25  26
ENDBRANCH  22  25
ENDBRANCH  20  23
ENDBRANCH   1  20
TORSDOF 8
