REMARK  Name = ZINC20882180
REMARK  8 active torsions:
REMARK  status: ('A' for Active; 'I' for Inactive)
REMARK    1  A    between atoms: C_1  and  C_2
REMARK    2  A    between atoms: C_6  and  C_14
REMARK    3  A    between atoms: C_12  and  C_13
REMARK    4  A    between atoms: C_14  and  S_15
REMARK    5  A    between atoms: S_15  and  C_16
REMARK    6  A    between atoms: C_19  and  C_28
REMARK    7  A    between atoms: N_20  and  C_21
REMARK    8  A    between atoms: C_21  and  C_22
REMARK                            x       y       z     vdW  Elec       q    Type
REMARK                         _______ _______ _______ _____ _____    ______ ____
ROOT
ATOM      1  C   UNL     1      -4.313   0.099  -0.031  0.00  0.00    +0.192 A 
ATOM      2  N   UNL     1      -4.657   1.359   0.090  0.00  0.00    -0.122 NA
ATOM      3  N   UNL     1      -3.610   2.103   0.118  0.00  0.00    -0.128 NA
ATOM      4  C   UNL     1      -2.530   1.363   0.017  0.00  0.00    +0.167 A 
ATOM      5  N   UNL     1      -2.946   0.056  -0.087  0.00  0.00    -0.300 N 
ENDROOT
BRANCH   4   6
ATOM      6  C   UNL     1      -1.134   1.843   0.010  0.00  0.00    +0.044 A 
ATOM      7  C   UNL     1      -0.153   1.474  -0.854  0.00  0.00    +0.095 A 
ATOM      8  N   UNL     1       1.002   2.134  -0.550  0.00  0.00    -0.360 N 
ATOM      9  H   UNL     1       1.907   1.963  -1.150  0.00  0.00    +0.165 HD
ATOM     10  C   UNL     1       0.806   2.958   0.538  0.00  0.00    +0.047 A 
ATOM     11  C   UNL     1      -0.532   2.813   0.940  0.00  0.00    +0.010 A 
ATOM     12  C   UNL     1      -1.015   3.536   2.030  0.00  0.00    +0.011 A 
ATOM     13  C   UNL     1      -0.174   4.391   2.708  0.00  0.00    +0.001 A 
ATOM     14  C   UNL     1       1.147   4.535   2.311  0.00  0.00    +0.002 A 
ATOM     15  C   UNL     1       1.639   3.827   1.236  0.00  0.00    +0.026 A 
ENDBRANCH   4   6
BRANCH   1  16
ATOM     16  S   UNL     1      -5.406  -1.281  -0.112  0.00  0.00    -0.081 S 
BRANCH  16  17
ATOM     17  C   UNL     1      -6.997  -0.428   0.016  0.00  0.00    +0.113 C 
BRANCH  17  23
ATOM     18  C   UNL     1     -10.168  -3.868   4.742  0.00  0.00    +0.044 C 
ATOM     19  C   UNL     1      -9.630  -3.231   3.486  0.00  0.00    -0.044 A 
ATOM     20  C   UNL     1      -8.601  -2.305   3.573  0.00  0.00    +0.004 A 
ATOM     21  C   UNL     1      -8.100  -1.717   2.446  0.00  0.00    +0.012 A 
ATOM     22  C   UNL     1      -8.629  -2.052   1.196  0.00  0.00    +0.022 A 
ATOM     23  C   UNL     1      -8.114  -1.439  -0.033  0.00  0.00    -0.020 A 
ATOM     24  C   UNL     1      -8.674  -1.803  -1.214  0.00  0.00    +0.097 A 
ATOM     25  C   UNL     1      -9.717  -2.755  -1.232  0.00  0.00    +0.338 A 
ATOM     26  O   UNL     1     -10.208  -3.076  -2.299  0.00  0.00    -0.245 OA
ATOM     27  O   UNL     1     -10.183  -3.312  -0.104  0.00  0.00    -0.422 OA
ATOM     28  C   UNL     1      -9.672  -2.990   1.104  0.00  0.00    +0.142 A 
ATOM     29  C   UNL     1     -10.166  -3.575   2.263  0.00  0.00    -0.005 A 
ATOM     30  C   UNL     1     -11.283  -4.583   2.184  0.00  0.00    +0.048 C 
ENDBRANCH  17  23
ENDBRANCH  16  17
ENDBRANCH   1  16
BRANCH   5  31
ATOM     31  C   UNL     1      -2.103  -1.134  -0.226  0.00  0.00    +0.157 C 
BRANCH  31  32
ATOM     32  C   UNL     1      -1.863  -1.753   1.153  0.00  0.00    +0.138 C 
ATOM     33  C   UNL     1      -1.048  -3.064   1.020  0.00  0.00    +0.035 C 
ATOM     34  C   UNL     1      -0.390  -3.145   2.425  0.00  0.00    +0.031 C 
ATOM     35  C   UNL     1      -0.157  -1.657   2.766  0.00  0.00    +0.160 C 
ATOM     36  O   UNL     1      -1.050  -0.883   1.956  0.00  0.00    -0.375 OA
ENDBRANCH  31  32
ENDBRANCH   5  31
TORSDOF 6
