REMARK  Name = ZINC03375921
REMARK  12 active torsions:
REMARK  status: ('A' for Active; 'I' for Inactive)
REMARK    1  A    between atoms: C_1  and  C_2
REMARK    2  A    between atoms: C_5  and  N_9
REMARK    3  A    between atoms: C_6  and  C_8
REMARK    4  A    between atoms: C_13  and  C_15
REMARK    5  A    between atoms: C_15  and  S_16
REMARK    6  A    between atoms: S_16  and  C_17
REMARK    7  A    between atoms: C_20  and  C_29
REMARK    8  A    between atoms: N_21  and  C_22
REMARK    9  A    between atoms: C_29  and  C_31
REMARK   10  A    between atoms: C_29  and  N_60
REMARK   11  A    between atoms: C_32  and  N_60
REMARK   12  A    between atoms: C_33  and  N_60
REMARK                            x       y       z     vdW  Elec       q    Type
REMARK                         _______ _______ _______ _____ _____    ______ ____
ROOT
ATOM      1  S   UNL     1      -1.446   2.336   0.058  0.00  0.00    -0.076 S 
ENDROOT
BRANCH   1   2
ATOM      2  C   UNL     1      -0.015   1.307   0.062  0.00  0.00    +0.197 A 
ATOM      3  N   UNL     1       0.002  -0.006   0.063  0.00  0.00    -0.122 NA
ATOM      4  N   UNL     1       1.216  -0.428   0.061  0.00  0.00    -0.135 NA
ATOM      5  C   UNL     1       2.041   0.581   0.059  0.00  0.00    +0.125 A 
ATOM      6  N   UNL     1       1.287   1.724   0.059  0.00  0.00    -0.275 N 
BRANCH   6   7
ATOM      7  C   UNL     1       1.754   3.047   0.057  0.00  0.00    +0.050 A 
ATOM      8  C   UNL     1       2.466   3.531  -1.031  0.00  0.00    +0.028 A 
ATOM      9  C   UNL     1       2.919   4.836  -1.034  0.00  0.00    +0.022 A 
ATOM     10  C   UNL     1       2.674   5.657   0.053  0.00  0.00    +0.041 A 
ATOM     11  C   UNL     1       1.968   5.174   1.142  0.00  0.00    +0.022 A 
ATOM     12  C   UNL     1       1.508   3.872   1.146  0.00  0.00    +0.028 A 
ATOM     13 CL   UNL     1       3.251   7.294   0.051  0.00  0.00    -0.084 Cl
ENDBRANCH   6   7
BRANCH   5  14
ATOM     14  C   UNL     1       3.546   0.503   0.055  0.00  0.00    -0.003 C 
ATOM     15  C   UNL     1       4.040   0.105   1.447  0.00  0.00    -0.005 C 
BRANCH  14  18
ATOM     16  C   UNL     1       3.447  -0.201  -2.260  0.00  0.00    -0.096 C 
ATOM     17  C   UNL     1       5.447  -0.604  -0.956  0.00  0.00    -0.096 C 
ATOM     18  N   UNL     1       3.972  -0.526  -0.917  0.00  0.00    +0.382 N 
ATOM     19  H   UNL     1       3.598  -1.436  -0.624  0.00  0.00    -0.082 HD
ENDBRANCH  14  18
ENDBRANCH   5  14
ENDBRANCH   1   2
BRANCH   1  20
ATOM     20  C   UNL     1      -2.742   1.073   0.057  0.00  0.00    +0.173 C 
BRANCH  20  25
ATOM     21  N   UNL     1      -7.544   0.839   0.046  0.00  0.00    -0.269 N 
ATOM     22  C   UNL     1      -6.423   1.587   0.048  0.00  0.00    +0.310 C 
ATOM     23  O   UNL     1      -6.502   2.800   0.046  0.00  0.00    -0.252 OA
ATOM     24  N   UNL     1      -5.214   0.991   0.051  0.00  0.00    -0.239 N 
ATOM     25  C   UNL     1      -4.093   1.740   0.053  0.00  0.00    +0.231 C 
ATOM     26  O   UNL     1      -4.172   2.949   0.051  0.00  0.00    -0.274 OA
ATOM     27  H   UNL     1      -7.482  -0.126  -0.035  0.00  0.00    +0.156 HD
ATOM     28  H   UNL     1      -5.151   0.023   0.052  0.00  0.00    +0.159 HD
BRANCH  21  33
ATOM     29  C   UNL     1     -12.619   3.331   0.512  0.00  0.00    +0.044 C 
ATOM     30  C   UNL     1     -11.271   2.669   0.389  0.00  0.00    -0.050 A 
ATOM     31  C   UNL     1     -10.145   3.299   0.886  0.00  0.00    +0.005 A 
ATOM     32  C   UNL     1      -8.908   2.695   0.774  0.00  0.00    +0.024 A 
ATOM     33  C   UNL     1      -8.796   1.454   0.161  0.00  0.00    +0.038 A 
ATOM     34  C   UNL     1      -9.927   0.826  -0.342  0.00  0.00    -0.029 A 
ATOM     35  C   UNL     1     -11.162   1.433  -0.222  0.00  0.00    +0.008 A 
ATOM     36  C   UNL     1      -9.809  -0.518  -1.013  0.00  0.00    +0.045 C 
ENDBRANCH  21  33
ENDBRANCH  20  25
ENDBRANCH   1  20
TORSDOF 7
