REMARK  Name = ZINC41607501
REMARK  5 active torsions:
REMARK  status: ('A' for Active; 'I' for Inactive)
REMARK    1  A    between atoms: C_5  and  C_7
REMARK    2  A    between atoms: C_7  and  N_8
REMARK    3  A    between atoms: C_9  and  C_11
REMARK    4  A    between atoms: C_11  and  S_12
REMARK    5  A    between atoms: S_12  and  C_13
REMARK                            x       y       z     vdW  Elec       q    Type
REMARK                         _______ _______ _______ _____ _____    ______ ____
ROOT
ATOM      1  C   UNL     1       1.819  -4.511   2.961  0.00  0.00    +0.173 C 
ENDROOT
BRANCH   1   3
ATOM      2  N   UNL     1       1.489  -2.679   1.333  0.00  0.00    -0.310 N 
ATOM      3  C   UNL     1       1.552  -4.005   1.567  0.00  0.00    +0.224 C 
ATOM      4  O   UNL     1       1.393  -4.790   0.657  0.00  0.00    -0.275 OA
ATOM      5  H   UNL     1       1.615  -2.051   2.062  0.00  0.00    +0.149 HD
BRANCH   2   6
ATOM      6  C   UNL     1       1.229  -2.186  -0.022  0.00  0.00    +0.141 C 
BRANCH   6  11
ATOM      7  C   UNL     1      -0.017   1.378   0.010  0.00  0.00    +0.000 A 
ATOM      8  C   UNL     1       1.171   2.086   0.002  0.00  0.00    +0.001 A 
ATOM      9  C   UNL     1       2.377   1.412  -0.013  0.00  0.00    +0.020 A 
ATOM     10  C   UNL     1       2.397   0.029  -0.021  0.00  0.00    +0.046 A 
ATOM     11  C   UNL     1       1.208  -0.679  -0.013  0.00  0.00    -0.012 A 
ATOM     12  C   UNL     1       0.002  -0.004   0.002  0.00  0.00    +0.006 A 
ATOM     13 CL   UNL     1       3.912  -0.818  -0.041  0.00  0.00    -0.083 Cl
ENDBRANCH   6  11
ENDBRANCH   2   6
ENDBRANCH   1   3
BRANCH   1  14
ATOM     14  S   UNL     1       1.844  -6.325   2.951  0.00  0.00    -0.078 S 
BRANCH  14  15
ATOM     15  C   UNL     1       2.163  -6.757   4.629  0.00  0.00    +0.170 A 
ATOM     16  N   UNL     1       2.253  -8.071   4.976  0.00  0.00    -0.302 N 
ATOM     17  H   UNL     1       2.142  -8.762   4.305  0.00  0.00    +0.171 HD
ATOM     18  C   UNL     1       2.498  -8.405   6.261  0.00  0.00    +0.255 A 
ATOM     19  O   UNL     1       2.582  -9.577   6.591  0.00  0.00    -0.267 OA
ATOM     20  C   UNL     1       2.655  -7.380   7.211  0.00  0.00    +0.038 A 
ATOM     21  C   UNL     1       2.555  -6.081   6.808  0.00  0.00    +0.052 A 
ATOM     22  N   UNL     1       2.317  -5.803   5.525  0.00  0.00    -0.228 NA
ATOM     23  C   UNL     1       2.757  -5.157   7.989  0.00  0.00    +0.056 C 
ATOM     24  C   UNL     1       2.561  -6.047   9.236  0.00  0.00    +0.011 C 
ATOM     25  C   UNL     1       2.932  -7.446   8.697  0.00  0.00    +0.043 C 
ENDBRANCH  14  15
ENDBRANCH   1  14
TORSDOF 5
