REMARK  Name = ZINC41323436
REMARK  4 active torsions:
REMARK  status: ('A' for Active; 'I' for Inactive)
REMARK    1  A    between atoms: C_1  and  C_2
REMARK    2  A    between atoms: C_2  and  C_3
REMARK    3  A    between atoms: C_6  and  N_9
REMARK    4  A    between atoms: C_12  and  C_18
REMARK                            x       y       z     vdW  Elec       q    Type
REMARK                         _______ _______ _______ _____ _____    ______ ____
ROOT
ATOM      1  N   UNL     1       2.657  -1.834  -4.665  0.00  0.00    -0.144 N 
ATOM      2  C   UNL     1       2.099  -2.522  -5.672  0.00  0.00    +0.243 C 
ATOM      3  O   UNL     1       0.916  -2.787  -5.661  0.00  0.00    -0.273 OA
ATOM      4  C   UNL     1       2.971  -2.957  -6.811  0.00  0.00    +0.097 C 
ATOM      5  C   UNL     1       4.263  -2.096  -6.804  0.00  0.00    +0.201 C 
ATOM      6  S   UNL     1       4.275  -1.604  -5.033  0.00  0.00    +0.053 S 
ATOM      7  O   UNL     1       4.506  -0.209  -4.895  0.00  0.00    -0.155 OA
ATOM      8  O   UNL     1       4.986  -2.553  -4.250  0.00  0.00    -0.155 OA
ATOM      9  C   UNL     1       2.229  -2.756  -8.134  0.00  0.00    +0.019 C 
ENDROOT
BRANCH   1  13
ATOM     10  C   UNL     1       0.707  -0.490  -1.238  0.00  0.00    -0.048 A 
ATOM     11  C   UNL     1      -0.012  -0.718  -2.397  0.00  0.00    +0.005 A 
ATOM     12  C   UNL     1       0.631  -1.163  -3.534  0.00  0.00    +0.025 A 
ATOM     13  C   UNL     1       2.003  -1.382  -3.514  0.00  0.00    +0.059 A 
ATOM     14  C   UNL     1       2.723  -1.152  -2.349  0.00  0.00    +0.025 A 
ATOM     15  C   UNL     1       2.074  -0.702  -1.216  0.00  0.00    +0.005 A 
BRANCH  10  17
ATOM     16  C   UNL     1      -0.019   1.526   0.010  0.00  0.00    +0.009 C 
ATOM     17  C   UNL     1       0.002  -0.004   0.002  0.00  0.00    +0.032 C 
ENDBRANCH  10  17
ENDBRANCH   1  13
TORSDOF 2
