REMARK  Name = ZINC40861121
REMARK  8 active torsions:
REMARK  status: ('A' for Active; 'I' for Inactive)
REMARK    1  A    between atoms: C_1  and  N_2
REMARK    2  A    between atoms: N_2  and  C_3
REMARK    3  A    between atoms: C_4  and  C_6
REMARK    4  A    between atoms: C_6  and  C_8
REMARK    5  A    between atoms: C_6  and  C_24
REMARK    6  A    between atoms: C_11  and  C_14
REMARK    7  A    between atoms: C_24  and  C_26
REMARK    8  A    between atoms: C_24  and  N_35
REMARK                            x       y       z     vdW  Elec       q    Type
REMARK                         _______ _______ _______ _____ _____    ______ ____
ROOT
ATOM      1  C   UNL     1      -0.188  -1.814  -1.261  0.00  0.00    +0.099 C 
ENDROOT
BRANCH   1   2
ATOM      2  C   UNL     1      -0.275  -1.617  -2.753  0.00  0.00    -0.037 A 
ATOM      3  C   UNL     1       0.689  -0.871  -3.407  0.00  0.00    +0.005 A 
ATOM      4  C   UNL     1       0.615  -0.687  -4.772  0.00  0.00    +0.009 A 
ATOM      5  C   UNL     1      -0.435  -1.256  -5.493  0.00  0.00    -0.017 A 
ATOM      6  C   UNL     1      -1.404  -2.008  -4.828  0.00  0.00    +0.009 A 
ATOM      7  C   UNL     1      -1.316  -2.189  -3.463  0.00  0.00    +0.005 A 
BRANCH   5   8
ATOM      8  C   UNL     1      -0.522  -1.062  -6.959  0.00  0.00    -0.002 C 
ATOM      9  C   UNL     1      -0.402  -2.130  -7.809  0.00  0.00    +0.106 C 
ATOM     10  N   UNL     1      -0.456  -1.817  -9.144  0.00  0.00    -0.205 N 
ATOM     11  C   UNL     1       0.083  -0.544  -9.677  0.00  0.00    +0.205 C 
ATOM     12  C   UNL     1      -0.442   0.553  -8.786  0.00  0.00    +0.017 C 
ATOM     13  C   UNL     1      -0.744   0.282  -7.523  0.00  0.00    +0.009 C 
ATOM     14  N   UNL     1      -0.487  -0.489 -11.029  0.00  0.00    -0.311 N 
ATOM     15  C   UNL     1      -1.050  -1.732 -11.267  0.00  0.00    +0.203 C 
ATOM     16  N   UNL     1      -1.019  -2.486 -10.221  0.00  0.00    -0.171 NA
ATOM     17  H   UNL     1      -0.473   0.269 -11.635  0.00  0.00    +0.149 HD
ENDBRANCH   5   8
ENDBRANCH   1   2
BRANCH   1  21
ATOM     18  C   UNL     1      -0.498   1.076   1.228  0.00  0.00    +0.131 C 
ATOM     19  N   UNL     1      -0.580  -0.253   0.617  0.00  0.00    -0.307 N 
ATOM     20  C   UNL     1      -1.273  -1.338   1.315  0.00  0.00    +0.131 C 
ATOM     21  C   UNL     1      -0.018  -0.476  -0.587  0.00  0.00    +0.221 C 
ATOM     22  O   UNL     1       0.624   0.398  -1.129  0.00  0.00    -0.275 OA
ENDBRANCH   1  21
BRANCH   1  23
ATOM     23  C   UNL     1       1.012  -2.706  -0.934  0.00  0.00    +0.029 C 
BRANCH  23  24
ATOM     24  C   UNL     1       0.811  -4.065  -1.553  0.00  0.00    +0.202 C 
ATOM     25  O   UNL     1       1.380  -4.350  -2.586  0.00  0.00    -0.277 OA
ATOM     26  N   UNL     1       0.000  -4.963  -0.960  0.00  0.00    -0.300 N 
ATOM     27  C   UNL     1      -0.834  -4.713   0.224  0.00  0.00    +0.110 C 
ATOM     28  C   UNL     1      -1.607  -6.015   0.524  0.00  0.00    +0.057 C 
ATOM     29  C   UNL     1      -1.592  -6.749  -0.843  0.00  0.00    +0.185 C 
ATOM     30  C   UNL     1      -0.202  -6.357  -1.394  0.00  0.00    +0.144 C 
ATOM     31  F   UNL     1      -1.694  -8.134  -0.669  0.00  0.00    -0.244 F 
ENDBRANCH  23  24
BRANCH  23  32
ATOM     32  N   UNL     1       2.236  -2.098  -1.472  0.00  0.00    +0.386 N 
ATOM     33  H   UNL     1       3.035  -2.645  -1.190  0.00  0.00    -0.089 HD
ATOM     34  H   UNL     1       2.183  -2.072  -2.480  0.00  0.00    -0.089 HD
ATOM     35  H   UNL     1       2.329  -1.158  -1.117  0.00  0.00    -0.089 HD
ENDBRANCH  23  32
ENDBRANCH   1  23
TORSDOF 6
