REMARK  Name = ZINC53112823
REMARK  8 active torsions:
REMARK  status: ('A' for Active; 'I' for Inactive)
REMARK    1  A    between atoms: C_1  and  C_2
REMARK    2  A    between atoms: C_5  and  N_21
REMARK    3  A    between atoms: C_6  and  C_20
REMARK    4  A    between atoms: C_7  and  S_8
REMARK    5  A    between atoms: S_8  and  N_11
REMARK    6  A    between atoms: N_11  and  C_12
REMARK    7  A    between atoms: C_12  and  C_18
REMARK    8  A    between atoms: C_18  and  O_19
REMARK                            x       y       z     vdW  Elec       q    Type
REMARK                         _______ _______ _______ _____ _____    ______ ____
ROOT
ATOM      1  S   UNL     1       0.338   0.930   2.712  0.00  0.00    +0.060 S 
ATOM      2  O   UNL     1       1.159  -0.114   3.218  0.00  0.00    -0.153 OA
ATOM      3  O   UNL     1       0.743   2.292   2.724  0.00  0.00    -0.153 OA
ENDROOT
BRANCH   1  10
ATOM      4  C   UNL     1      -1.134   2.749   0.799  0.00  0.00    +0.046 C 
ATOM      5  C   UNL     1      -0.694   1.423   0.234  0.00  0.00    -0.024 A 
ATOM      6  C   UNL     1      -0.967   1.111  -1.086  0.00  0.00    +0.007 A 
ATOM      7  C   UNL     1      -0.565  -0.102  -1.607  0.00  0.00    +0.023 A 
ATOM      8  C   UNL     1       0.114  -1.011  -0.805  0.00  0.00    +0.029 A 
ATOM      9  C   UNL     1       0.386  -0.694   0.520  0.00  0.00    -0.003 A 
ATOM     10  C   UNL     1      -0.013   0.524   1.033  0.00  0.00    +0.113 A 
ATOM     11  C   UNL     1       1.122  -1.677   1.394  0.00  0.00    +0.048 C 
BRANCH   8  12
ATOM     12  N   UNL     1       0.521  -2.240  -1.329  0.00  0.00    -0.358 N 
ATOM     13  H   UNL     1       0.330  -2.460  -2.254  0.00  0.00    +0.142 HD
ATOM     14  H   UNL     1       0.995  -2.873  -0.768  0.00  0.00    +0.142 HD
ENDBRANCH   8  12
ENDBRANCH   1  10
BRANCH   1  15
ATOM     15  N   UNL     1      -1.092   0.854   3.543  0.00  0.00    -0.182 NA
ATOM     16  H   UNL     1      -1.528   1.670   3.833  0.00  0.00    +0.149 HD
BRANCH  15  17
ATOM     17  C   UNL     1      -1.697  -0.447   3.842  0.00  0.00    +0.063 C 
ATOM     18  C   UNL     1      -1.746  -1.292   2.567  0.00  0.00    +0.026 C 
ATOM     19  C   UNL     1      -2.583  -0.570   1.509  0.00  0.00    +0.002 C 
ATOM     20  C   UNL     1      -4.003  -0.362   2.037  0.00  0.00    +0.000 C 
ATOM     21  C   UNL     1      -3.955   0.483   3.312  0.00  0.00    +0.002 C 
ATOM     22  C   UNL     1      -3.118  -0.239   4.370  0.00  0.00    +0.026 C 
BRANCH  17  23
ATOM     23  C   UNL     1      -0.860  -1.168   4.900  0.00  0.00    +0.179 C 
BRANCH  23  24
ATOM     24  O   UNL     1       0.400  -1.540   4.339  0.00  0.00    -0.393 OA
ATOM     25  H   UNL     1       0.984  -2.003   4.955  0.00  0.00    +0.209 HD
ENDBRANCH  23  24
ENDBRANCH  17  23
ENDBRANCH  15  17
ENDBRANCH   1  15
TORSDOF 6
