REMARK  Name = ZINC36207554
REMARK  14 active torsions:
REMARK  status: ('A' for Active; 'I' for Inactive)
REMARK    1  A    between atoms: C_1  and  C_2
REMARK    2  A    between atoms: C_8  and  C_17
REMARK    3  A    between atoms: C_12  and  C_13
REMARK    4  A    between atoms: C_13  and  O_15
REMARK    5  A    between atoms: O_15  and  C_16
REMARK    6  A    between atoms: C_17  and  N_18
REMARK    7  A    between atoms: N_18  and  C_19
REMARK    8  A    between atoms: N_18  and  C_31
REMARK    9  A    between atoms: C_19  and  C_20
REMARK   10  A    between atoms: C_20  and  C_22
REMARK   11  A    between atoms: C_20  and  O_30
REMARK   12  A    between atoms: C_22  and  O_23
REMARK   13  A    between atoms: O_23  and  C_24
REMARK   14  A    between atoms: C_24  and  C_25
REMARK                            x       y       z     vdW  Elec       q    Type
REMARK                         _______ _______ _______ _____ _____    ______ ____
ROOT
ATOM      1  N   UNL     1       0.106  -4.699  -4.100  0.00  0.00    +0.388 N 
ATOM      2  H   UNL     1       0.773  -4.974  -3.394  0.00  0.00    -0.081 HD
ENDROOT
BRANCH   1   3
ATOM      3  C   UNL     1      -1.252  -5.016  -3.640  0.00  0.00    -0.068 C 
ATOM      4  C   UNL     1      -1.572  -4.194  -2.390  0.00  0.00    -0.015 C 
ATOM      5  C   UNL     1      -2.987  -4.524  -1.910  0.00  0.00    -0.002 C 
ATOM      6  C   UNL     1      -3.991  -4.184  -3.014  0.00  0.00    -0.000 C 
ATOM      7  C   UNL     1      -3.672  -5.006  -4.264  0.00  0.00    -0.002 C 
ATOM      8  C   UNL     1      -2.256  -4.676  -4.744  0.00  0.00    -0.015 C 
ENDBRANCH   1   3
BRANCH   1   9
ATOM      9  C   UNL     1       0.217  -3.255  -4.342  0.00  0.00    -0.003 C 
BRANCH   9  17
ATOM     10  C   UNL     1       1.384   0.655   0.914  0.00  0.00    +0.046 C 
ATOM     11  C   UNL     1       1.333  -0.825   0.637  0.00  0.00    -0.015 A 
ATOM     12  C   UNL     1       1.043  -1.288  -0.648  0.00  0.00    +0.076 A 
ATOM     13  C   UNL     1       0.757  -0.514  -1.878  0.00  0.00    +0.260 A 
ATOM     14  O   UNL     1       0.752   0.704  -1.864  0.00  0.00    -0.267 OA
ATOM     15  N   UNL     1       0.504  -1.193  -3.014  0.00  0.00    -0.312 N 
ATOM     16  H   UNL     1       0.315  -0.702  -3.829  0.00  0.00    +0.170 HD
ATOM     17  C   UNL     1       0.508  -2.549  -3.042  0.00  0.00    +0.094 A 
ATOM     18  N   UNL     1       0.756  -3.260  -1.976  0.00  0.00    -0.229 NA
ATOM     19  C   UNL     1       1.018  -2.692  -0.806  0.00  0.00    +0.116 A 
ATOM     20  S   UNL     1       1.393  -3.293   0.822  0.00  0.00    -0.062 S 
ATOM     21  C   UNL     1       1.574  -1.718   1.641  0.00  0.00    +0.102 A 
BRANCH  21  22
ATOM     22  C   UNL     1       1.898  -1.450   3.044  0.00  0.00    +0.346 C 
ATOM     23  O   UNL     1       1.981  -0.303   3.441  0.00  0.00    -0.244 OA
BRANCH  22  24
ATOM     24  O   UNL     1       2.106  -2.474   3.897  0.00  0.00    -0.464 OA
ATOM     25  C   UNL     1       2.418  -2.139   5.250  0.00  0.00    +0.280 C 
ENDBRANCH  22  24
ENDBRANCH  21  22
ENDBRANCH   9  17
ENDBRANCH   1   9
BRANCH   1  26
ATOM     26  C   UNL     1       0.383  -5.427  -5.346  0.00  0.00    -0.044 C 
BRANCH  26  27
ATOM     27  C   UNL     1       0.446  -6.928  -5.056  0.00  0.00    +0.124 C 
BRANCH  27  28
ATOM     28  O   UNL     1      -0.852  -7.396  -4.684  0.00  0.00    -0.391 OA
ATOM     29  H   UNL     1      -1.509  -7.337  -5.391  0.00  0.00    +0.210 HD
ENDBRANCH  27  28
BRANCH  27  30
ATOM     30  C   UNL     1       0.915  -7.670  -6.310  0.00  0.00    +0.189 C 
BRANCH  30  31
ATOM     31  O   UNL     1       1.086  -9.056  -6.007  0.00  0.00    -0.370 OA
BRANCH  31  32
ATOM     32  C   UNL     1       1.525  -9.843  -7.116  0.00  0.00    +0.234 C 
BRANCH  32  33
ATOM     33  C   UNL     1       1.671 -11.280  -6.686  0.00  0.00    +0.130 A 
ATOM     34  C   UNL     1       0.710 -12.220  -6.743  0.00  0.00    +0.047 A 
ATOM     35  C   UNL     1       1.275 -13.415  -6.242  0.00  0.00    +0.041 A 
ATOM     36  C   UNL     1       2.548 -13.134  -5.909  0.00  0.00    +0.195 A 
ATOM     37  O   UNL     1       2.783 -11.841  -6.185  0.00  0.00    -0.465 OA
ENDBRANCH  32  33
ENDBRANCH  31  32
ENDBRANCH  30  31
ENDBRANCH  27  30
ENDBRANCH  26  27
ENDBRANCH   1  26
TORSDOF 12
