REMARK  Name = ZINC12677011
REMARK  10 active torsions:
REMARK  status: ('A' for Active; 'I' for Inactive)
REMARK    1  A    between atoms: C_1  and  C_2
REMARK    2  A    between atoms: C_2  and  C_3
REMARK    3  A    between atoms: C_4  and  C_32
REMARK    4  A    between atoms: C_6  and  C_8
REMARK    5  A    between atoms: N_10  and  N_11
REMARK    6  A    between atoms: C_12  and  C_14
REMARK    7  A    between atoms: C_17  and  N_20
REMARK    8  A    between atoms: N_20  and  S_21
REMARK    9  A    between atoms: S_21  and  C_24
REMARK   10  A    between atoms: C_25  and  C_26
REMARK                            x       y       z     vdW  Elec       q    Type
REMARK                         _______ _______ _______ _____ _____    ______ ____
ROOT
ATOM      1  C   UNL     1      -2.130   0.485  -0.063  0.00  0.00    +0.038 A 
ATOM      2  C   UNL     1      -2.250  -0.904  -0.162  0.00  0.00    +0.015 A 
ATOM      3  C   UNL     1      -3.495  -1.489  -0.129  0.00  0.00    +0.025 A 
ATOM      4  C   UNL     1      -4.635  -0.699  -0.009  0.00  0.00    +0.048 A 
ATOM      5  C   UNL     1      -4.519   0.686   0.083  0.00  0.00    +0.025 A 
ATOM      6  C   UNL     1      -3.276   1.276   0.057  0.00  0.00    +0.015 A 
ENDROOT
BRANCH   1   8
ATOM      7  N   UNL     1       0.308   0.351  -0.209  0.00  0.00    -0.230 N 
ATOM      8  C   UNL     1      -0.796   1.115  -0.093  0.00  0.00    +0.260 C 
ATOM      9  O   UNL     1      -0.693   2.324  -0.012  0.00  0.00    -0.269 OA
ATOM     10  H   UNL     1       0.226  -0.613  -0.273  0.00  0.00    +0.173 HD
BRANCH   7  13
ATOM     11  C   UNL     1       2.678   0.187  -0.364  0.00  0.00    +0.267 C 
ATOM     12  O   UNL     1       2.575  -1.023  -0.444  0.00  0.00    -0.268 OA
ATOM     13  N   UNL     1       1.574   0.950  -0.242  0.00  0.00    -0.230 N 
ATOM     14  H   UNL     1       1.656   1.915  -0.178  0.00  0.00    +0.173 HD
BRANCH  11  18
ATOM     15  C   UNL     1       6.154   2.390  -0.416  0.00  0.00    -0.007 A 
ATOM     16  C   UNL     1       6.341   1.048  -0.524  0.00  0.00    -0.040 A 
ATOM     17  C   UNL     1       5.248   0.217  -0.517  0.00  0.00    +0.024 A 
ATOM     18  C   UNL     1       4.002   0.813  -0.399  0.00  0.00    +0.076 A 
ATOM     19  S   UNL     1       4.431   2.543  -0.308  0.00  0.00    -0.088 S 
ATOM     20  C   UNL     1       7.731   0.479  -0.648  0.00  0.00    +0.044 C 
BRANCH  15  22
ATOM     21  C   UNL     1       7.458   3.953  -1.833  0.00  0.00    +0.009 C 
ATOM     22  C   UNL     1       7.194   3.481  -0.402  0.00  0.00    +0.039 C 
ENDBRANCH  15  22
ENDBRANCH  11  18
ENDBRANCH   7  13
ENDBRANCH   1   8
BRANCH   4  23
ATOM     23  N   UNL     1      -5.892  -1.293   0.018  0.00  0.00    -0.217 N 
ATOM     24  H   UNL     1      -6.544  -1.017   0.681  0.00  0.00    +0.174 HD
BRANCH  23  25
ATOM     25  S   UNL     1      -6.275  -2.470  -1.081  0.00  0.00    +0.066 S 
ATOM     26  O   UNL     1      -5.245  -3.447  -1.006  0.00  0.00    -0.151 OA
ATOM     27  O   UNL     1      -7.644  -2.790  -0.874  0.00  0.00    -0.151 OA
BRANCH  25  28
ATOM     28  C   UNL     1      -6.164  -1.744  -2.683  0.00  0.00    +0.157 C 
ATOM     29  C   UNL     1      -5.245  -2.166  -3.540  0.00  0.00    +0.028 C 
BRANCH  29  30
ATOM     30  C   UNL     1      -5.152  -1.557  -4.884  0.00  0.00    -0.024 A 
ATOM     31  C   UNL     1      -6.034  -0.541  -5.255  0.00  0.00    +0.008 A 
ATOM     32  C   UNL     1      -5.938   0.027  -6.508  0.00  0.00    +0.001 A 
ATOM     33  C   UNL     1      -4.978  -0.416  -7.401  0.00  0.00    +0.000 A 
ATOM     34  C   UNL     1      -4.104  -1.426  -7.041  0.00  0.00    +0.001 A 
ATOM     35  C   UNL     1      -4.186  -1.999  -5.788  0.00  0.00    +0.008 A 
ENDBRANCH  29  30
ENDBRANCH  25  28
ENDBRANCH  23  25
ENDBRANCH   4  23
TORSDOF 8
