REMARK  Name = ZINC11839964
REMARK  11 active torsions:
REMARK  status: ('A' for Active; 'I' for Inactive)
REMARK    1  A    between atoms: C_1  and  C_2
REMARK    2  A    between atoms: C_2  and  C_4
REMARK    3  A    between atoms: C_2  and  N_60
REMARK    4  A    between atoms: C_4  and  S_5
REMARK    5  A    between atoms: S_5  and  C_6
REMARK    6  A    between atoms: C_9  and  C_12
REMARK    7  A    between atoms: C_12  and  C_14
REMARK    8  A    between atoms: C_12  and  N_22
REMARK    9  A    between atoms: C_14  and  C_15
REMARK   10  A    between atoms: N_22  and  C_23
REMARK   11  A    between atoms: C_24  and  C_26
REMARK                            x       y       z     vdW  Elec       q    Type
REMARK                         _______ _______ _______ _____ _____    ______ ____
ROOT
ATOM      1  C   UNL     1      -2.715   6.956   0.368  0.00  0.00    +0.083 C 
ENDROOT
BRANCH   1   4
ATOM      2  C   UNL     1      -3.239   6.838   4.180  0.00  0.00    -0.078 C 
ATOM      3  C   UNL     1      -3.374   6.409   2.717  0.00  0.00    -0.013 C 
ATOM      4  C   UNL     1      -2.635   7.412   1.827  0.00  0.00    +0.006 C 
ATOM      5  C   UNL     1      -1.169   7.487   2.260  0.00  0.00    -0.013 C 
ATOM      6  C   UNL     1      -1.098   7.883   3.737  0.00  0.00    -0.078 C 
ATOM      7  N   UNL     1      -1.806   6.866   4.542  0.00  0.00    +0.382 N 
ATOM      8  H   UNL     1      -1.396   5.944   4.349  0.00  0.00    -0.081 HD
BRANCH   7  10
ATOM      9  C   UNL     1      -2.301   8.511   6.321  0.00  0.00    -0.012 C 
ATOM     10  C   UNL     1      -1.655   7.166   5.981  0.00  0.00    -0.062 C 
BRANCH  10  11
ATOM     11  C   UNL     1      -0.165   7.215   6.324  0.00  0.00    +0.053 C 
BRANCH  11  12
ATOM     12  S   UNL     1       0.601   5.621   5.922  0.00  0.00    -0.166 S 
ATOM     13  C   UNL     1       2.342   5.842   6.381  0.00  0.00    +0.084 C 
ENDBRANCH  11  12
ENDBRANCH  10  11
ENDBRANCH   7  10
ENDBRANCH   1   4
BRANCH   1  14
ATOM     14  N   UNL     1      -1.947   5.719   0.201  0.00  0.00    -0.297 N 
ATOM     15  C   UNL     1      -0.546   5.778  -0.221  0.00  0.00    +0.132 C 
ATOM     16  C   UNL     1      -2.531   4.527   0.436  0.00  0.00    +0.247 C 
ATOM     17  O   UNL     1      -3.708   4.475   0.738  0.00  0.00    -0.270 OA
BRANCH  16  18
ATOM     18  C   UNL     1      -1.744   3.288   0.328  0.00  0.00    +0.044 A 
ATOM     19  C   UNL     1      -1.968   2.174   1.214  0.00  0.00    +0.020 A 
ATOM     20  C   UNL     1      -1.194   1.085   1.038  0.00  0.00    +0.046 A 
ATOM     21  S   UNL     1      -0.158   1.544  -0.336  0.00  0.00    -0.104 S 
ATOM     22  C   UNL     1      -0.763   3.140  -0.630  0.00  0.00    +0.058 A 
ENDBRANCH  16  18
ENDBRANCH   1  14
BRANCH   1  23
ATOM     23  C   UNL     1      -2.134   8.043  -0.538  0.00  0.00    +0.060 C 
BRANCH  23  24
ATOM     24  C   UNL     1      -2.299   7.636  -1.980  0.00  0.00    -0.010 A 
ATOM     25  C   UNL     1      -1.207   7.193  -2.703  0.00  0.00    +0.006 A 
ATOM     26  C   UNL     1      -1.360   6.814  -4.023  0.00  0.00    +0.000 A 
ATOM     27  C   UNL     1      -2.602   6.888  -4.626  0.00  0.00    +0.003 A 
ATOM     28  C   UNL     1      -3.693   7.335  -3.907  0.00  0.00    +0.038 A 
ATOM     29  C   UNL     1      -3.543   7.710  -2.582  0.00  0.00    +0.127 A 
ATOM     30  F   UNL     1      -4.610   8.148  -1.878  0.00  0.00    -0.205 F 
ENDBRANCH  23  24
ENDBRANCH   1  23
TORSDOF 8
