REMARK  Name = ZINC15673340
REMARK  9 active torsions:
REMARK  status: ('A' for Active; 'I' for Inactive)
REMARK    1  A    between atoms: C_1  and  C_2
REMARK    2  A    between atoms: C_2  and  C_3
REMARK    3  A    between atoms: C_12  and  C_24
REMARK    4  A    between atoms: C_12  and  C_25
REMARK    5  A    between atoms: N_13  and  C_16
REMARK    6  A    between atoms: C_16  and  C_17
REMARK    7  A    between atoms: C_17  and  N_77
REMARK    8  A    between atoms: N_27  and  C_28
REMARK    9  A    between atoms: C_31  and  C_34
REMARK                            x       y       z     vdW  Elec       q    Type
REMARK                         _______ _______ _______ _____ _____    ______ ____
ROOT
ATOM      1  C   UNL     1      -4.608   5.061  -0.031  0.00  0.00    -0.008 A 
ATOM      2  C   UNL     1      -3.266   5.033  -0.170  0.00  0.00    +0.037 A 
ATOM      3  C   UNL     1      -2.574   3.816  -0.087  0.00  0.00    +0.057 A 
ATOM      4  C   UNL     1      -3.366   2.681   0.145  0.00  0.00    +0.038 A 
ATOM      5  S   UNL     1      -5.010   3.342   0.233  0.00  0.00    -0.092 S 
ATOM      6  C   UNL     1      -2.557   1.554   0.209  0.00  0.00    +0.048 A 
ATOM      7  C   UNL     1      -1.272   1.971   0.018  0.00  0.00    +0.106 A 
ATOM      8  N   UNL     1      -1.275   3.348  -0.167  0.00  0.00    -0.333 N 
ATOM      9  C   UNL     1      -0.041   4.098  -0.417  0.00  0.00    +0.157 C 
ATOM     10  C   UNL     1       1.127   3.379   0.258  0.00  0.00    +0.128 C 
ATOM     11  N   UNL     1       1.126   1.943   0.002  0.00  0.00    -0.282 N 
ATOM     12  C   UNL     1      -0.014   1.213   0.009  0.00  0.00    +0.264 C 
ATOM     13  O   UNL     1       0.002  -0.004   0.002  0.00  0.00    -0.268 OA
ATOM     14  C   UNL     1       2.437   3.973  -0.263  0.00  0.00    +0.043 C 
ENDROOT
BRANCH  10  15
ATOM     15  C   UNL     1       1.046   3.608   1.745  0.00  0.00    +0.238 C 
ATOM     16  O   UNL     1       1.631   4.544   2.247  0.00  0.00    -0.273 OA
ATOM     17  N   UNL     1       0.323   2.773   2.517  0.00  0.00    -0.311 N 
ATOM     18  H   UNL     1      -0.145   2.024   2.116  0.00  0.00    +0.149 HD
BRANCH  17  19
ATOM     19  C   UNL     1       0.244   2.995   3.963  0.00  0.00    +0.073 C 
ATOM     20  C   UNL     1       1.450   2.347   4.645  0.00  0.00    +0.022 C 
ATOM     21  C   UNL     1       1.450   0.844   4.360  0.00  0.00    +0.005 C 
ATOM     22  C   UNL     1       0.162   0.222   4.903  0.00  0.00    -0.014 C 
ATOM     23  C   UNL     1      -1.044   0.870   4.221  0.00  0.00    +0.005 C 
ATOM     24  C   UNL     1      -1.044   2.374   4.506  0.00  0.00    +0.022 C 
ATOM     25  C   UNL     1       0.162  -1.281   4.618  0.00  0.00    +0.007 C 
ENDBRANCH  17  19
ENDBRANCH  10  15
BRANCH   1  27
ATOM     26  C   UNL     1      -6.000   6.466  -1.527  0.00  0.00    +0.009 C 
ATOM     27  C   UNL     1      -5.536   6.248  -0.086  0.00  0.00    +0.039 C 
ENDBRANCH   1  27
BRANCH  11  28
ATOM     28  C   UNL     1       2.398   1.270  -0.271  0.00  0.00    +0.091 C 
BRANCH  28  29
ATOM     29  C   UNL     1       2.671   1.287  -1.776  0.00  0.00    -0.060 C 
BRANCH  29  36
ATOM     30  C   UNL     1       5.069   1.308  -1.381  0.00  0.00    -0.079 C 
ATOM     31  C   UNL     1       6.416   0.823  -1.846  0.00  0.00    -0.019 C 
ATOM     32  C   UNL     1       6.897   1.738  -2.992  0.00  0.00    -0.002 C 
ATOM     33  C   UNL     1       6.254   1.415  -4.261  0.00  0.00    -0.002 C 
ATOM     34  C   UNL     1       4.722   1.591  -4.199  0.00  0.00    -0.019 C 
ATOM     35  C   UNL     1       4.132   0.396  -3.502  0.00  0.00    -0.079 C 
ATOM     36  N   UNL     1       3.931   0.566  -2.023  0.00  0.00    +0.381 N 
ATOM     37  H   UNL     1       3.869  -0.365  -1.595  0.00  0.00    -0.082 HD
ENDBRANCH  29  36
ENDBRANCH  28  29
ENDBRANCH  11  28
TORSDOF 6
