REMARK  Name = ZINC36534535
REMARK  16 active torsions:
REMARK  status: ('A' for Active; 'I' for Inactive)
REMARK    1  A    between atoms: C_1  and  C_2
REMARK    2  A    between atoms: C_2  and  C_3
REMARK    3  A    between atoms: C_2  and  C_4
REMARK    4  A    between atoms: C_2  and  C_5
REMARK    5  A    between atoms: C_5  and  C_6
REMARK    6  A    between atoms: C_6  and  C_7
REMARK    7  A    between atoms: C_6  and  C_8
REMARK    8  A    between atoms: C_6  and  N_9
REMARK    9  A    between atoms: C_10  and  C_12
REMARK   10  A    between atoms: C_12  and  C_14
REMARK   11  A    between atoms: C_12  and  N_20
REMARK   12  A    between atoms: N_20  and  C_21
REMARK   13  A    between atoms: C_22  and  C_24
REMARK   14  A    between atoms: C_24  and  C_25
REMARK   15  A    between atoms: C_24  and  C_31
REMARK   16  A    between atoms: C_24  and  O_37
REMARK                            x       y       z     vdW  Elec       q    Type
REMARK                         _______ _______ _______ _____ _____    ______ ____
ROOT
ATOM      1  C   UNL     1       3.396  -0.917  -4.899  0.00  0.00    +0.165 C 
ENDROOT
BRANCH   1   2
ATOM      2  C   UNL     1       2.950  -0.174  -6.160  0.00  0.00    +0.018 C 
ATOM      3  C   UNL     1       1.427  -0.021  -6.149  0.00  0.00    +0.006 C 
ATOM      4  C   UNL     1       0.981   0.722  -7.410  0.00  0.00    +0.000 C 
ATOM      5  C   UNL     1       1.405  -0.072  -8.647  0.00  0.00    +0.000 C 
ATOM      6  C   UNL     1       2.927  -0.226  -8.658  0.00  0.00    +0.000 C 
ATOM      7  C   UNL     1       3.373  -0.969  -7.397  0.00  0.00    +0.006 C 
ENDBRANCH   1   2
BRANCH   1   9
ATOM      8  N   UNL     1       1.665  -0.266  -3.256  0.00  0.00    -0.309 N 
ATOM      9  C   UNL     1       2.940  -0.157  -3.680  0.00  0.00    +0.234 C 
ATOM     10  O   UNL     1       3.720   0.553  -3.081  0.00  0.00    -0.274 OA
ATOM     11  H   UNL     1       1.062  -0.889  -3.690  0.00  0.00    +0.149 HD
BRANCH   8  12
ATOM     12  C   UNL     1       1.192   0.556  -2.139  0.00  0.00    +0.030 C 
ATOM     13  C   UNL     1       1.197   2.029  -2.553  0.00  0.00    +0.031 C 
ATOM     14  C   UNL     1       2.116   0.361  -0.935  0.00  0.00    +0.031 C 
BRANCH  12  15
ATOM     15  C   UNL     1      -0.230   0.136  -1.764  0.00  0.00    +0.031 C 
BRANCH  15  17
ATOM     16  C   UNL     1       0.492  -1.201   0.219  0.00  0.00    +0.010 C 
ATOM     17  C   UNL     1      -0.202  -1.262  -1.143  0.00  0.00    -0.036 C 
ATOM     18  C   UNL     1       0.564  -2.214  -2.064  0.00  0.00    +0.010 C 
ATOM     19  C   UNL     1      -1.635  -1.769  -0.963  0.00  0.00    +0.010 C 
ENDBRANCH  15  17
ENDBRANCH  12  15
ENDBRANCH   8  12
ENDBRANCH   1   9
BRANCH   1  20
ATOM     20  N   UNL     1       4.857  -1.026  -4.888  0.00  0.00    -0.290 N 
ATOM     21  C   UNL     1       5.682   0.184  -4.886  0.00  0.00    +0.133 C 
ATOM     22  C   UNL     1       5.442  -2.240  -4.880  0.00  0.00    +0.257 C 
ATOM     23  O   UNL     1       4.763  -3.241  -4.977  0.00  0.00    -0.272 OA
BRANCH  22  24
ATOM     24  C   UNL     1       6.939  -2.355  -4.752  0.00  0.00    +0.192 C 
BRANCH  24  25
ATOM     25  C   UNL     1       7.339  -2.122  -3.317  0.00  0.00    -0.003 A 
ATOM     26  C   UNL     1       6.473  -2.460  -2.295  0.00  0.00    +0.007 A 
ATOM     27  C   UNL     1       6.840  -2.247  -0.979  0.00  0.00    +0.000 A 
ATOM     28  C   UNL     1       8.073  -1.696  -0.686  0.00  0.00    +0.000 A 
ATOM     29  C   UNL     1       8.940  -1.359  -1.709  0.00  0.00    +0.000 A 
ATOM     30  C   UNL     1       8.575  -1.576  -3.024  0.00  0.00    +0.007 A 
ENDBRANCH  24  25
BRANCH  24  31
ATOM     31  C   UNL     1       7.376  -3.733  -5.178  0.00  0.00    -0.003 A 
ATOM     32  C   UNL     1       8.160  -3.891  -6.305  0.00  0.00    +0.007 A 
ATOM     33  C   UNL     1       8.561  -5.155  -6.697  0.00  0.00    +0.000 A 
ATOM     34  C   UNL     1       8.178  -6.260  -5.960  0.00  0.00    +0.000 A 
ATOM     35  C   UNL     1       7.395  -6.102  -4.832  0.00  0.00    +0.000 A 
ATOM     36  C   UNL     1       6.998  -4.838  -4.438  0.00  0.00    +0.007 A 
ENDBRANCH  24  31
BRANCH  24  37
ATOM     37  O   UNL     1       7.565  -1.377  -5.585  0.00  0.00    -0.371 OA
ATOM     38  H   UNL     1       7.352  -1.466  -6.524  0.00  0.00    +0.212 HD
ENDBRANCH  24  37
ENDBRANCH  22  24
ENDBRANCH   1  20
TORSDOF 10
