REMARK  Name = ZINC13065195
REMARK  12 active torsions:
REMARK  status: ('A' for Active; 'I' for Inactive)
REMARK    1  A    between atoms: C_1  and  C_2
REMARK    2  A    between atoms: C_2  and  C_3
REMARK    3  A    between atoms: C_3  and  C_5
REMARK    4  A    between atoms: C_3  and  N_72
REMARK    5  A    between atoms: N_9  and  C_10
REMARK    6  A    between atoms: C_15  and  C_16
REMARK    7  A    between atoms: C_15  and  N_72
REMARK    8  A    between atoms: C_16  and  C_17
REMARK    9  A    between atoms: C_23  and  C_24
REMARK   10  A    between atoms: C_23  and  N_72
REMARK   11  A    between atoms: C_27  and  C_37
REMARK   12  A    between atoms: C_30  and  C_36
REMARK                            x       y       z     vdW  Elec       q    Type
REMARK                         _______ _______ _______ _____ _____    ______ ____
ROOT
ATOM      1  N   UNL     1      -2.126   1.792  -0.678  0.00  0.00    +0.389 N 
ATOM      2  H   UNL     1      -1.903   1.568  -1.655  0.00  0.00    -0.080 HD
ENDROOT
BRANCH   1   3
ATOM      3  C   UNL     1      -0.866   1.926   0.083  0.00  0.00    +0.003 C 
BRANCH   3   4
ATOM      4  C   UNL     1       0.026   0.758  -0.248  0.00  0.00    +0.138 A 
ATOM      5  N   UNL     1      -0.325  -0.504  -0.305  0.00  0.00    -0.115 NA
ATOM      6  N   UNL     1       0.716  -1.193  -0.624  0.00  0.00    -0.023 NA
ATOM      7  N   UNL     1       1.722  -0.404  -0.772  0.00  0.00    -0.044 NA
ATOM      8  N   UNL     1       1.337   0.807  -0.549  0.00  0.00    -0.228 N 
BRANCH   8   9
ATOM      9  C   UNL     1       2.171   2.011  -0.612  0.00  0.00    +0.111 C 
ATOM     10  C   UNL     1       2.802   2.143  -2.013  0.00  0.00    +0.027 C 
ATOM     11  C   UNL     1       4.221   2.704  -1.738  0.00  0.00    +0.002 C 
ATOM     12  C   UNL     1       4.635   1.966  -0.441  0.00  0.00    +0.002 C 
ATOM     13  C   UNL     1       3.335   1.899   0.388  0.00  0.00    +0.027 C 
ENDBRANCH   8   9
ENDBRANCH   3   4
BRANCH   3  15
ATOM     14  C   UNL     1       0.152   2.216   2.346  0.00  0.00    +0.002 C 
ATOM     15  C   UNL     1      -1.147   1.943   1.587  0.00  0.00    -0.011 C 
ENDBRANCH   3  15
ENDBRANCH   1   3
BRANCH   1  16
ATOM     16  C   UNL     1      -2.946   0.702  -0.110  0.00  0.00    -0.073 C 
BRANCH  16  17
ATOM     17  C   UNL     1      -4.034   0.328  -1.119  0.00  0.00    +0.016 C 
BRANCH  17  18
ATOM     18  C   UNL     1      -4.895  -0.768  -0.546  0.00  0.00    -0.049 A 
ATOM     19  C   UNL     1      -4.513  -2.090  -0.683  0.00  0.00    +0.003 A 
ATOM     20  C   UNL     1      -5.300  -3.095  -0.153  0.00  0.00    +0.000 A 
ATOM     21  C   UNL     1      -6.475  -2.779   0.504  0.00  0.00    +0.000 A 
ATOM     22  C   UNL     1      -6.860  -1.458   0.635  0.00  0.00    +0.000 A 
ATOM     23  C   UNL     1      -6.070  -0.452   0.110  0.00  0.00    +0.003 A 
ENDBRANCH  17  18
ENDBRANCH  16  17
ENDBRANCH   1  16
BRANCH   1  24
ATOM     24  C   UNL     1      -2.878   3.064  -0.638  0.00  0.00    -0.037 C 
BRANCH  24  25
ATOM     25  C   UNL     1      -2.247   4.029  -1.608  0.00  0.00    +0.001 A 
ATOM     26  C   UNL     1      -2.709   4.107  -2.880  0.00  0.00    +0.017 A 
ATOM     27  C   UNL     1      -2.078   5.059  -3.796  0.00  0.00    +0.002 A 
ATOM     28  C   UNL     1      -2.514   5.188  -5.119  0.00  0.00    -0.041 A 
ATOM     29  C   UNL     1      -1.901   6.082  -5.950  0.00  0.00    +0.004 A 
ATOM     30  C   UNL     1      -0.849   6.864  -5.494  0.00  0.00    +0.005 A 
ATOM     31  C   UNL     1      -0.402   6.753  -4.195  0.00  0.00    -0.026 A 
ATOM     32  C   UNL     1      -1.011   5.849  -3.330  0.00  0.00    +0.052 A 
ATOM     33  N   UNL     1      -0.585   5.719  -2.026  0.00  0.00    -0.322 N 
ATOM     34  H   UNL     1       0.150   6.264  -1.706  0.00  0.00    +0.169 HD
ATOM     35  C   UNL     1      -1.174   4.845  -1.190  0.00  0.00    +0.251 A 
ATOM     36  O   UNL     1      -0.771   4.756  -0.043  0.00  0.00    -0.268 OA
ATOM     37  C   UNL     1       0.742   7.608  -3.713  0.00  0.00    +0.046 C 
ATOM     38  C   UNL     1      -3.656   4.345  -5.625  0.00  0.00    +0.044 C 
ENDBRANCH  24  25
ENDBRANCH   1  24
TORSDOF 9
