REMARK  Name = ZINC22785185
REMARK  8 active torsions:
REMARK  status: ('A' for Active; 'I' for Inactive)
REMARK    1  A    between atoms: C_1  and  C_2
REMARK    2  A    between atoms: C_4  and  C_7
REMARK    3  A    between atoms: C_7  and  N_8
REMARK    4  A    between atoms: N_11  and  C_14
REMARK    5  A    between atoms: C_14  and  C_16
REMARK    6  A    between atoms: C_14  and  C_17
REMARK    7  A    between atoms: C_20  and  C_32
REMARK    8  A    between atoms: C_23  and  C_25
REMARK                            x       y       z     vdW  Elec       q    Type
REMARK                         _______ _______ _______ _____ _____    ______ ____
ROOT
ATOM      1  C   UNL     1      -4.234  -6.395  -4.936  0.00  0.00    +0.252 C 
ATOM      2  O   UNL     1      -4.542  -6.895  -3.874  0.00  0.00    -0.272 OA
ATOM      3  N   UNL     1      -4.459  -7.061  -6.085  0.00  0.00    -0.181 N 
ATOM      4  C   UNL     1      -5.074  -8.393  -6.196  0.00  0.00    +0.173 C 
ATOM      5  C   UNL     1      -5.087  -8.661  -7.714  0.00  0.00    +0.090 C 
ATOM      6  C   UNL     1      -4.462  -7.419  -8.308  0.00  0.00    +0.069 C 
ATOM      7  N   UNL     1      -4.154  -6.598  -7.364  0.00  0.00    -0.181 NA
ENDROOT
BRANCH   6   8
ATOM      8  C   UNL     1      -4.244  -7.181  -9.747  0.00  0.00    -0.002 A 
ATOM      9  C   UNL     1      -4.630  -8.142 -10.684  0.00  0.00    +0.011 A 
ATOM     10  C   UNL     1      -4.424  -7.913 -12.028  0.00  0.00    +0.020 A 
ATOM     11  C   UNL     1      -3.834  -6.733 -12.450  0.00  0.00    +0.041 A 
ATOM     12  C   UNL     1      -3.449  -5.776 -11.526  0.00  0.00    +0.020 A 
ATOM     13  C   UNL     1      -3.655  -5.990 -10.179  0.00  0.00    +0.011 A 
ATOM     14 CL   UNL     1      -3.577  -6.453 -14.143  0.00  0.00    -0.084 Cl
ENDBRANCH   6   8
BRANCH   4  15
ATOM     15  C   UNL     1      -4.240  -9.424  -5.479  0.00  0.00    +0.128 A 
ATOM     16  C   UNL     1      -4.713 -10.457  -4.759  0.00  0.00    +0.046 A 
ATOM     17  C   UNL     1      -3.591 -11.163  -4.269  0.00  0.00    +0.041 A 
ATOM     18  C   UNL     1      -2.499 -10.519  -4.719  0.00  0.00    +0.195 A 
ATOM     19  O   UNL     1      -2.898  -9.470  -5.457  0.00  0.00    -0.466 OA
ENDBRANCH   4  15
BRANCH   1  20
ATOM     20  C   UNL     1      -3.599  -5.028  -4.969  0.00  0.00    +0.142 C 
ATOM     21  C   UNL     1      -4.634  -3.996  -5.419  0.00  0.00    +0.034 C 
BRANCH  20  25
ATOM     22  N   UNL     1      -2.770  -2.940  -1.388  0.00  0.00    +0.385 N 
ATOM     23  C   UNL     1      -3.689  -4.084  -1.324  0.00  0.00    -0.063 C 
ATOM     24  C   UNL     1      -4.233  -4.381  -2.723  0.00  0.00    +0.066 C 
ATOM     25  N   UNL     1      -3.113  -4.681  -3.627  0.00  0.00    -0.295 NA
ATOM     26  C   UNL     1      -2.171  -3.555  -3.682  0.00  0.00    +0.066 C 
ATOM     27  C   UNL     1      -1.645  -3.264  -2.275  0.00  0.00    -0.063 C 
ATOM     28  H   UNL     1      -3.260  -2.135  -1.748  0.00  0.00    -0.081 HD
BRANCH  22  29
ATOM     29  C   UNL     1      -2.262  -2.644  -0.042  0.00  0.00    -0.019 C 
BRANCH  29  33
ATOM     30  C   UNL     1      -6.090  -2.708   3.318  0.00  0.00    +0.089 C 
ATOM     31  C   UNL     1      -5.073  -2.240   2.310  0.00  0.00    +0.134 A 
ATOM     32  C   UNL     1      -4.150  -3.010   1.701  0.00  0.00    +0.068 A 
ATOM     33  C   UNL     1      -3.401  -2.193   0.836  0.00  0.00    +0.067 A 
ATOM     34  N   UNL     1      -3.862  -0.978   0.927  0.00  0.00    -0.085 NA
ATOM     35  O   UNL     1      -4.931  -0.986   1.856  0.00  0.00    -0.360 OA
ENDBRANCH  29  33
ENDBRANCH  22  29
ENDBRANCH  20  25
ENDBRANCH   1  20
TORSDOF 6
