REMARK  Name = ZINC36803517
REMARK  15 active torsions:
REMARK  status: ('A' for Active; 'I' for Inactive)
REMARK    1  A    between atoms: C_1  and  C_2
REMARK    2  A    between atoms: C_2  and  C_3
REMARK    3  A    between atoms: C_2  and  N_4
REMARK    4  A    between atoms: N_4  and  C_5
REMARK    5  A    between atoms: N_4  and  C_32
REMARK    6  A    between atoms: C_5  and  C_6
REMARK    7  A    between atoms: C_6  and  N_7
REMARK    8  A    between atoms: C_17  and  S_18
REMARK    9  A    between atoms: S_18  and  C_19
REMARK   10  A    between atoms: C_19  and  C_20
REMARK   11  A    between atoms: N_22  and  C_23
REMARK   12  A    between atoms: C_23  and  C_24
REMARK   13  A    between atoms: C_24  and  C_25
REMARK   14  A    between atoms: C_32  and  C_33
REMARK   15  A    between atoms: C_32  and  C_34
REMARK                            x       y       z     vdW  Elec       q    Type
REMARK                         _______ _______ _______ _____ _____    ______ ____
ROOT
ATOM      1  N   UNL     1      -3.039   2.030  -2.229  0.00  0.00    -0.289 N 
ATOM      2  C   UNL     1      -2.426   2.331  -3.397  0.00  0.00    +0.262 A 
ATOM      3  O   UNL     1      -1.219   2.233  -3.521  0.00  0.00    -0.267 OA
ATOM      4  C   UNL     1      -3.272   2.781  -4.511  0.00  0.00    +0.065 A 
ATOM      5  C   UNL     1      -2.737   3.115  -5.754  0.00  0.00    +0.015 A 
ATOM      6  C   UNL     1      -3.570   3.527  -6.757  0.00  0.00    +0.001 A 
ATOM      7  C   UNL     1      -4.941   3.617  -6.550  0.00  0.00    +0.002 A 
ATOM      8  C   UNL     1      -5.492   3.296  -5.341  0.00  0.00    +0.028 A 
ATOM      9  C   UNL     1      -4.666   2.871  -4.296  0.00  0.00    +0.079 A 
ATOM     10  N   UNL     1      -5.168   2.544  -3.088  0.00  0.00    -0.223 NA
ATOM     11  C   UNL     1      -4.395   2.140  -2.110  0.00  0.00    +0.173 A 
ENDROOT
BRANCH   1  12
ATOM     12  C   UNL     1      -2.243   1.576  -1.085  0.00  0.00    +0.109 C 
BRANCH  12  13
ATOM     13  C   UNL     1      -2.116   0.052  -1.126  0.00  0.00    -0.056 C 
BRANCH  13  14
ATOM     14  N   UNL     1      -1.452  -0.416   0.098  0.00  0.00    +0.384 N 
ATOM     15  H   UNL     1      -1.937  -0.052   0.904  0.00  0.00    -0.081 HD
BRANCH  14  17
ATOM     16  C   UNL     1       0.440   0.204  -1.328  0.00  0.00    -0.014 C 
ATOM     17  C   UNL     1      -0.060   0.054   0.110  0.00  0.00    -0.074 C 
ATOM     18  C   UNL     1       0.015   1.407   0.820  0.00  0.00    -0.014 C 
ENDBRANCH  14  17
BRANCH  14  19
ATOM     19  C   UNL     1      -1.473  -1.885   0.135  0.00  0.00    -0.074 C 
ATOM     20  C   UNL     1      -0.893  -2.369   1.466  0.00  0.00    -0.014 C 
ATOM     21  C   UNL     1      -2.915  -2.378  -0.002  0.00  0.00    -0.014 C 
ENDBRANCH  14  19
ENDBRANCH  13  14
ENDBRANCH  12  13
ENDBRANCH   1  12
BRANCH  11  22
ATOM     22  S   UNL     1      -5.139   1.728  -0.567  0.00  0.00    -0.078 S 
BRANCH  22  23
ATOM     23  C   UNL     1      -6.910   2.010  -0.844  0.00  0.00    +0.173 C 
BRANCH  23  24
ATOM     24  C   UNL     1      -7.673   1.691   0.415  0.00  0.00    +0.223 C 
ATOM     25  O   UNL     1      -7.081   1.310   1.403  0.00  0.00    -0.275 OA
ATOM     26  N   UNL     1      -9.013   1.828   0.445  0.00  0.00    -0.314 N 
ATOM     27  H   UNL     1      -9.487   2.133  -0.345  0.00  0.00    +0.149 HD
BRANCH  26  28
ATOM     28  C   UNL     1      -9.755   1.517   1.669  0.00  0.00    +0.109 C 
BRANCH  28  29
ATOM     29  C   UNL     1     -11.248   1.756   1.435  0.00  0.00    +0.054 C 
BRANCH  29  30
ATOM     30  C   UNL     1     -12.011   1.436   2.695  0.00  0.00    -0.046 A 
ATOM     31  C   UNL     1     -12.480   0.154   2.912  0.00  0.00    +0.006 A 
ATOM     32  C   UNL     1     -13.180  -0.141   4.066  0.00  0.00    +0.038 A 
ATOM     33  C   UNL     1     -13.411   0.849   5.007  0.00  0.00    +0.123 A 
ATOM     34  C   UNL     1     -12.940   2.133   4.789  0.00  0.00    +0.038 A 
ATOM     35  C   UNL     1     -12.236   2.424   3.635  0.00  0.00    +0.006 A 
ATOM     36  F   UNL     1     -14.095   0.562   6.136  0.00  0.00    -0.205 F 
ENDBRANCH  29  30
ENDBRANCH  28  29
ENDBRANCH  26  28
ENDBRANCH  23  24
ENDBRANCH  22  23
ENDBRANCH  11  22
TORSDOF 11
