REMARK  Name = ZINC35552889
REMARK  11 active torsions:
REMARK  status: ('A' for Active; 'I' for Inactive)
REMARK    1  A    between atoms: C_1  and  C_2
REMARK    2  A    between atoms: C_2  and  C_3
REMARK    3  A    between atoms: C_3  and  C_4
REMARK    4  A    between atoms: C_4  and  C_5
REMARK    5  A    between atoms: N_21  and  C_24
REMARK    6  A    between atoms: C_24  and  C_25
REMARK    7  A    between atoms: C_25  and  N_26
REMARK    8  A    between atoms: N_26  and  C_27
REMARK    9  A    between atoms: N_26  and  C_30
REMARK   10  A    between atoms: C_27  and  C_28
REMARK   11  A    between atoms: C_30  and  C_31
REMARK                            x       y       z     vdW  Elec       q    Type
REMARK                         _______ _______ _______ _____ _____    ______ ____
ROOT
ATOM      1  C   UNL     1      -3.351  -4.067  -0.638  0.00  0.00    +0.132 A 
ATOM      2  N   UNL     1      -3.965  -4.278   0.513  0.00  0.00    -0.217 NA
ATOM      3  C   UNL     1      -4.843  -3.423   1.010  0.00  0.00    +0.133 A 
ATOM      4  C   UNL     1      -5.141  -2.236   0.284  0.00  0.00    +0.051 A 
ATOM      5  C   UNL     1      -6.068  -1.158   0.631  0.00  0.00    -0.025 A 
ATOM      6  C   UNL     1      -6.166  -0.132  -0.238  0.00  0.00    -0.004 A 
ATOM      7  S   UNL     1      -5.045  -0.530  -1.553  0.00  0.00    -0.073 S 
ATOM      8  C   UNL     1      -4.447  -2.080  -0.932  0.00  0.00    +0.114 A 
ATOM      9  N   UNL     1      -3.581  -2.982  -1.352  0.00  0.00    -0.225 NA
ATOM     10  C   UNL     1      -7.036   1.082  -0.116  0.00  0.00    +0.043 C 
ATOM     11  C   UNL     1      -8.088   0.817   0.971  0.00  0.00    +0.005 C 
ATOM     12  C   UNL     1      -7.385   0.244   2.205  0.00  0.00    +0.005 C 
ATOM     13  C   UNL     1      -6.897  -1.175   1.913  0.00  0.00    +0.037 C 
ATOM     14  N   UNL     1      -5.465  -3.680   2.218  0.00  0.00    -0.318 N 
ATOM     15  C   UNL     1      -6.785  -4.327   2.267  0.00  0.00    +0.088 C 
ATOM     16  C   UNL     1      -6.715  -5.502   3.248  0.00  0.00    -0.060 C 
ATOM     17  N   UNL     1      -6.225  -5.025   4.547  0.00  0.00    +0.383 N 
ATOM     18  C   UNL     1      -4.846  -4.538   4.414  0.00  0.00    -0.060 C 
ATOM     19  C   UNL     1      -4.822  -3.320   3.491  0.00  0.00    +0.088 C 
ATOM     20  H   UNL     1      -6.816  -4.274   4.873  0.00  0.00    -0.082 HD
ENDROOT
BRANCH   1  21
ATOM     21  C   UNL     1      -2.361  -5.086  -1.143  0.00  0.00    +0.076 C 
BRANCH  21  22
ATOM     22  C   UNL     1      -0.966  -4.746  -0.616  0.00  0.00    +0.007 C 
BRANCH  22  24
ATOM     23  C   UNL     1       1.434  -5.441  -0.602  0.00  0.00    +0.004 C 
ATOM     24  C   UNL     1       0.038  -5.780  -1.129  0.00  0.00    -0.003 C 
ENDBRANCH  22  24
ENDBRANCH  21  22
ENDBRANCH   1  21
BRANCH  17  25
ATOM     25  C   UNL     1      -6.261  -6.128   5.517  0.00  0.00    -0.063 C 
BRANCH  25  26
ATOM     26  C   UNL     1      -5.871  -5.603   6.901  0.00  0.00    +0.066 C 
BRANCH  26  27
ATOM     27  N   UNL     1      -5.907  -6.706   7.870  0.00  0.00    -0.297 NA
BRANCH  27  28
ATOM     28  C   UNL     1      -4.873  -7.705   7.571  0.00  0.00    +0.111 C 
BRANCH  28  29
ATOM     29  C   UNL     1      -3.512  -7.064   7.668  0.00  0.00    -0.019 C 
ATOM     30  C   UNL     1      -2.601  -7.578   8.457  0.00  0.00    +0.005 C 
ENDBRANCH  28  29
ENDBRANCH  27  28
BRANCH  27  31
ATOM     31  C   UNL     1      -5.771  -6.204   9.244  0.00  0.00    +0.111 C 
BRANCH  31  32
ATOM     32  C   UNL     1      -6.199  -7.274  10.215  0.00  0.00    -0.019 C 
ATOM     33  C   UNL     1      -5.383  -7.660  11.165  0.00  0.00    +0.005 C 
ENDBRANCH  31  32
ENDBRANCH  27  31
ENDBRANCH  26  27
ENDBRANCH  25  26
ENDBRANCH  17  25
TORSDOF 10
