REMARK  Name = ZINC63350646
REMARK  5 active torsions:
REMARK  status: ('A' for Active; 'I' for Inactive)
REMARK    1  A    between atoms: C_1  and  C_2
REMARK    2  A    between atoms: C_2  and  O_3
REMARK    3  A    between atoms: O_3  and  C_4
REMARK    4  A    between atoms: C_7  and  N_10
REMARK    5  A    between atoms: C_13  and  C_20
REMARK                            x       y       z     vdW  Elec       q    Type
REMARK                         _______ _______ _______ _____ _____    ______ ____
ROOT
ATOM      1  N   UNL     1      -1.994  -5.992  -0.078  0.00  0.00    -0.256 N 
ATOM      2  C   UNL     1      -3.230  -6.519   0.021  0.00  0.00    +0.268 A 
ATOM      3  O   UNL     1      -4.207  -5.791   0.057  0.00  0.00    -0.267 OA
ATOM      4  C   UNL     1      -3.385  -7.915   0.081  0.00  0.00    +0.101 A 
ATOM      5  C   UNL     1      -2.276  -8.708   0.038  0.00  0.00    +0.261 A 
ATOM      6  N   UNL     1      -1.037  -8.129  -0.063  0.00  0.00    -0.302 N 
ATOM      7  H   UNL     1      -0.245  -8.688  -0.094  0.00  0.00    +0.171 HD
ATOM      8  C   UNL     1      -0.912  -6.790  -0.124  0.00  0.00    +0.168 A 
ATOM      9  S   UNL     1       0.646  -6.094  -0.256  0.00  0.00    -0.012 S 
ATOM     10  O   UNL     1      -2.397 -10.051   0.094  0.00  0.00    -0.267 OA
ENDROOT
BRANCH   4  11
ATOM     11  C   UNL     1      -4.758  -8.528   0.192  0.00  0.00    +0.121 C 
ATOM     12  C   UNL     1      -4.819  -9.435   1.423  0.00  0.00    +0.128 C 
ATOM     13  C   UNL     1      -3.871 -10.596   1.144  0.00  0.00    -0.035 C 
ATOM     14  C   UNL     1      -3.032 -10.649   2.169  0.00  0.00    -0.001 A 
ATOM     15  C   UNL     1      -1.958 -11.596   2.511  0.00  0.00    +0.010 A 
ATOM     16  C   UNL     1      -1.272 -11.337   3.655  0.00  0.00    +0.001 A 
ATOM     17  C   UNL     1      -1.543 -10.244   4.484  0.00  0.00    +0.002 A 
ATOM     18  C   UNL     1      -2.515  -9.327   4.250  0.00  0.00    +0.026 A 
ATOM     19  C   UNL     1      -3.309  -9.496   3.079  0.00  0.00    +0.043 A 
ATOM     20  N   UNL     1      -4.322  -8.780   2.631  0.00  0.00    -0.376 N 
ATOM     21  C   UNL     1      -3.933 -11.378  -0.146  0.00  0.00    +0.048 C 
ATOM     22  C   UNL     1      -3.989 -10.335  -1.278  0.00  0.00    +0.086 C 
ATOM     23  N   UNL     1      -5.034  -9.344  -1.001  0.00  0.00    -0.307 NA
ATOM     24  H   UNL     1      -5.941  -9.783  -0.936  0.00  0.00    +0.123 HD
ATOM     25  H   UNL     1      -4.676  -7.965   3.021  0.00  0.00    +0.160 HD
ENDBRANCH   4  11
BRANCH   1  29
ATOM     26  C   UNL     1      -1.520  -1.851  -0.258  0.00  0.00    +0.121 A 
ATOM     27  C   UNL     1      -1.680  -2.583  -1.426  0.00  0.00    +0.047 A 
ATOM     28  C   UNL     1      -1.837  -3.953  -1.367  0.00  0.00    +0.030 A 
ATOM     29  C   UNL     1      -1.834  -4.600  -0.139  0.00  0.00    +0.052 A 
ATOM     30  C   UNL     1      -1.674  -3.867   1.030  0.00  0.00    +0.030 A 
ATOM     31  C   UNL     1      -1.511  -2.498   0.969  0.00  0.00    +0.047 A 
BRANCH  26  32
ATOM     32  O   UNL     1      -1.365  -0.502  -0.317  0.00  0.00    -0.492 OA
BRANCH  32  34
ATOM     33  C   UNL     1      -1.197   1.610  -1.480  0.00  0.00    +0.048 C 
ATOM     34  C   UNL     1      -1.384   0.097  -1.614  0.00  0.00    +0.225 C 
ENDBRANCH  32  34
ENDBRANCH  26  32
ENDBRANCH   1  29
TORSDOF 4
