REMARK  Name = ZINC36514586
REMARK  14 active torsions:
REMARK  status: ('A' for Active; 'I' for Inactive)
REMARK    1  A    between atoms: C_1  and  C_2
REMARK    2  A    between atoms: C_2  and  C_3
REMARK    3  A    between atoms: C_3  and  C_4
REMARK    4  A    between atoms: C_4  and  C_5
REMARK    5  A    between atoms: C_5  and  C_6
REMARK    6  A    between atoms: C_6  and  N_7
REMARK    7  A    between atoms: N_7  and  C_8
REMARK    8  A    between atoms: C_8  and  C_10
REMARK    9  A    between atoms: C_8  and  C_20
REMARK   10  A    between atoms: C_12  and  N_17
REMARK   11  A    between atoms: N_22  and  C_23
REMARK   12  A    between atoms: C_29  and  C_31
REMARK   13  A    between atoms: C_32  and  O_38
REMARK   14  A    between atoms: C_36  and  O_37
REMARK                            x       y       z     vdW  Elec       q    Type
REMARK                         _______ _______ _______ _____ _____    ______ ____
ROOT
ATOM      1  C   UNL     1      -4.766  -4.838  -1.321  0.00  0.00    +0.194 C 
ENDROOT
BRANCH   1   2
ATOM      2  C   UNL     1      -4.994  -6.307  -1.569  0.00  0.00    +0.002 A 
ATOM      3  C   UNL     1      -6.281  -6.806  -1.634  0.00  0.00    +0.040 A 
ATOM      4  C   UNL     1      -6.490  -8.153  -1.861  0.00  0.00    +0.127 A 
ATOM      5  C   UNL     1      -5.412  -9.003  -2.023  0.00  0.00    +0.034 A 
ATOM      6  C   UNL     1      -4.124  -8.505  -1.958  0.00  0.00    +0.022 A 
ATOM      7  C   UNL     1      -3.914  -7.155  -1.737  0.00  0.00    +0.047 A 
ATOM      8 CL   UNL     1      -2.297  -6.529  -1.663  0.00  0.00    -0.083 Cl
BRANCH   4   9
ATOM      9  N   UNL     1      -7.869  -8.686  -1.930  0.00  0.00    +0.056 N 
ATOM     10  O   UNL     1      -8.812  -7.943  -1.788  0.00  0.00    -0.126 OA
ATOM     11  O   UNL     1      -8.052  -9.865  -2.129  0.00  0.00    -0.126 OA
ENDBRANCH   4   9
ENDBRANCH   1   2
BRANCH   1  12
ATOM     12  C   UNL     1      -6.038  -4.079  -1.599  0.00  0.00    +0.238 C 
ATOM     13  O   UNL     1      -6.562  -3.431  -0.718  0.00  0.00    -0.273 OA
ATOM     14  N   UNL     1      -6.592  -4.120  -2.827  0.00  0.00    -0.311 N 
ATOM     15  H   UNL     1      -6.173  -4.638  -3.531  0.00  0.00    +0.149 HD
BRANCH  14  16
ATOM     16  C   UNL     1      -7.829  -3.381  -3.097  0.00  0.00    +0.073 C 
ATOM     17  C   UNL     1      -9.031  -4.233  -2.685  0.00  0.00    +0.022 C 
ATOM     18  C   UNL     1     -10.322  -3.462  -2.967  0.00  0.00    +0.002 C 
ATOM     19  C   UNL     1     -10.410  -3.143  -4.461  0.00  0.00    +0.000 C 
ATOM     20  C   UNL     1      -9.208  -2.292  -4.873  0.00  0.00    +0.002 C 
ATOM     21  C   UNL     1      -7.917  -3.063  -4.591  0.00  0.00    +0.022 C 
ENDBRANCH  14  16
ENDBRANCH   1  12
BRANCH   1  22
ATOM     22  N   UNL     1      -4.370  -4.634   0.074  0.00  0.00    -0.282 N 
ATOM     23  C   UNL     1      -5.206  -4.989   1.071  0.00  0.00    +0.255 C 
ATOM     24  O   UNL     1      -6.249  -5.559   0.815  0.00  0.00    -0.270 OA
BRANCH  23  25
ATOM     25  C   UNL     1      -4.856  -4.686   2.468  0.00  0.00    +0.119 A 
ATOM     26  C   UNL     1      -5.255  -3.474   3.050  0.00  0.00    +0.133 A 
ATOM     27  C   UNL     1      -4.921  -3.199   4.366  0.00  0.00    +0.046 A 
ATOM     28  C   UNL     1      -4.196  -4.115   5.106  0.00  0.00    +0.007 A 
ATOM     29  C   UNL     1      -3.797  -5.313   4.542  0.00  0.00    +0.046 A 
ATOM     30  C   UNL     1      -4.125  -5.610   3.230  0.00  0.00    +0.133 A 
BRANCH  30  31
ATOM     31  O   UNL     1      -3.738  -6.789   2.681  0.00  0.00    -0.506 OA
ATOM     32  H   UNL     1      -2.872  -6.757   2.252  0.00  0.00    +0.292 HD
ENDBRANCH  30  31
BRANCH  26  33
ATOM     33  O   UNL     1      -5.966  -2.573   2.326  0.00  0.00    -0.506 OA
ATOM     34  H   UNL     1      -6.924  -2.689   2.386  0.00  0.00    +0.292 HD
ENDBRANCH  26  33
ENDBRANCH  23  25
BRANCH  22  35
ATOM     35  C   UNL     1      -3.066  -4.044   0.388  0.00  0.00    +0.109 C 
BRANCH  35  36
ATOM     36  C   UNL     1      -3.202  -2.522   0.471  0.00  0.00    +0.019 C 
BRANCH  36  37
ATOM     37  C   UNL     1      -1.840  -1.906   0.798  0.00  0.00    +0.002 C 
BRANCH  37  38
ATOM     38  C   UNL     1      -1.975  -0.384   0.881  0.00  0.00    -0.000 C 
BRANCH  38  40
ATOM     39  C   UNL     1      -0.749   1.753   1.292  0.00  0.00    +0.004 C 
ATOM     40  C   UNL     1      -0.614   0.232   1.208  0.00  0.00    -0.003 C 
ENDBRANCH  38  40
ENDBRANCH  37  38
ENDBRANCH  36  37
ENDBRANCH  35  36
ENDBRANCH  22  35
ENDBRANCH   1  22
TORSDOF 13
