REMARK  Name = ZINC23473272
REMARK  10 active torsions:
REMARK  status: ('A' for Active; 'I' for Inactive)
REMARK    1  A    between atoms: C_4  and  C_7
REMARK    2  A    between atoms: C_7  and  C_8
REMARK    3  A    between atoms: C_7  and  N_14
REMARK    4  A    between atoms: N_17  and  C_20
REMARK    5  A    between atoms: C_20  and  C_21
REMARK    6  A    between atoms: C_21  and  C_23
REMARK    7  A    between atoms: C_21  and  O_37
REMARK    8  A    between atoms: C_23  and  O_24
REMARK    9  A    between atoms: O_24  and  C_25
REMARK   10  A    between atoms: C_25  and  C_26
REMARK                            x       y       z     vdW  Elec       q    Type
REMARK                         _______ _______ _______ _____ _____    ______ ____
ROOT
ATOM      1  N   UNL     1       2.601   8.287  -0.984  0.00  0.00    +0.389 N 
ATOM      2  C   UNL     1       3.402   7.822   0.158  0.00  0.00    -0.062 C 
ATOM      3  C   UNL     1       3.385   6.292   0.200  0.00  0.00    +0.066 C 
ATOM      4  N   UNL     1       1.996   5.823   0.308  0.00  0.00    -0.303 NA
ATOM      5  C   UNL     1       1.196   6.288  -0.833  0.00  0.00    +0.066 C 
ATOM      6  C   UNL     1       1.213   7.817  -0.875  0.00  0.00    -0.062 C 
ATOM      7  H   UNL     1       3.034   7.858  -1.899  0.00  0.00    -0.080 HD
ENDROOT
BRANCH   1   8
ATOM      8  C   UNL     1       2.654   9.750  -1.103  0.00  0.00    -0.007 C 
BRANCH   8  12
ATOM      9  C   UNL     1       6.674  10.970  -1.877  0.00  0.00    +0.000 A 
ATOM     10  C   UNL     1       5.909  11.658  -0.955  0.00  0.00    +0.000 A 
ATOM     11  C   UNL     1       4.608  11.264  -0.705  0.00  0.00    +0.002 A 
ATOM     12  C   UNL     1       4.072  10.180  -1.376  0.00  0.00    -0.057 A 
ATOM     13  C   UNL     1       4.840   9.489  -2.295  0.00  0.00    +0.002 A 
ATOM     14  C   UNL     1       6.139   9.886  -2.549  0.00  0.00    +0.000 A 
ENDBRANCH   8  12
BRANCH   8  15
ATOM     15  C   UNL     1       1.767  10.194  -2.237  0.00  0.00    -0.057 A 
ATOM     16  C   UNL     1       1.810   9.530  -3.449  0.00  0.00    +0.002 A 
ATOM     17  C   UNL     1       0.993   9.935  -4.488  0.00  0.00    +0.000 A 
ATOM     18  C   UNL     1       0.140  11.009  -4.319  0.00  0.00    +0.000 A 
ATOM     19  C   UNL     1       0.101  11.676  -3.109  0.00  0.00    +0.000 A 
ATOM     20  C   UNL     1       0.914  11.269  -2.068  0.00  0.00    +0.002 A 
ENDBRANCH   8  15
ENDBRANCH   1   8
BRANCH   4  21
ATOM     21  C   UNL     1       1.943   4.360   0.427  0.00  0.00    +0.117 C 
BRANCH  21  22
ATOM     22  C   UNL     1       0.519   3.929   0.786  0.00  0.00    +0.154 C 
BRANCH  22  23
ATOM     23  O   UNL     1       0.141   4.522   2.030  0.00  0.00    -0.388 OA
ATOM     24  H   UNL     1      -0.855   4.326   2.452  0.00  0.00    +0.210 HD
ENDBRANCH  22  23
BRANCH  22  25
ATOM     25  C   UNL     1       0.464   2.405   0.910  0.00  0.00    +0.192 C 
BRANCH  25  26
ATOM     26  O   UNL     1      -0.887   1.994   1.130  0.00  0.00    -0.373 OA
BRANCH  26  27
ATOM     27  C   UNL     1      -1.050   0.580   1.261  0.00  0.00    +0.207 C 
BRANCH  27  28
ATOM     28  C   UNL     1      -2.528   0.257   1.492  0.00  0.00    +0.236 C 
ATOM     29  C   UNL     1      -2.693  -1.246   1.757  0.00  0.00    +0.276 C 
ATOM     30  O   UNL     1      -4.086  -1.515   1.955  0.00  0.00    -0.485 OA
ATOM     31  C   UNL     1      -4.950  -0.956   1.065  0.00  0.00    +0.162 A 
ATOM     32  C   UNL     1      -6.244  -1.445   0.973  0.00  0.00    +0.049 A 
ATOM     33  C   UNL     1      -7.134  -0.885   0.076  0.00  0.00    +0.004 A 
ATOM     34  C   UNL     1      -6.737   0.164  -0.731  0.00  0.00    +0.004 A 
ATOM     35  C   UNL     1      -5.449   0.656  -0.646  0.00  0.00    +0.049 A 
ATOM     36  C   UNL     1      -4.550   0.098   0.252  0.00  0.00    +0.163 A 
ATOM     37  O   UNL     1      -3.284   0.591   0.322  0.00  0.00    -0.479 OA
ENDBRANCH  27  28
ENDBRANCH  26  27
ENDBRANCH  25  26
ENDBRANCH  22  25
ENDBRANCH  21  22
ENDBRANCH   4  21
TORSDOF 10
