REMARK  Name = ZINC10383985
REMARK  6 active torsions:
REMARK  status: ('A' for Active; 'I' for Inactive)
REMARK    1  A    between atoms: C_1  and  C_2
REMARK    2  A    between atoms: C_4  and  O_9
REMARK    3  A    between atoms: O_9  and  C_10
REMARK    4  A    between atoms: C_10  and  C_11
REMARK    5  A    between atoms: N_13  and  N_14
REMARK    6  A    between atoms: C_15  and  C_17
REMARK                            x       y       z     vdW  Elec       q    Type
REMARK                         _______ _______ _______ _____ _____    ______ ____
ROOT
ATOM      1  C   UNL     1      -1.156  -0.694   0.009  0.00  0.00    +0.267 C 
ATOM      2  O   UNL     1      -2.214  -0.102   0.023  0.00  0.00    -0.271 OA
ATOM      3  N   UNL     1       0.002  -0.004   0.002  0.00  0.00    -0.231 N 
ATOM      4  H   UNL     1       0.849  -0.478  -0.009  0.00  0.00    +0.173 HD
ENDROOT
BRANCH   3   5
ATOM      5  N   UNL     1      -0.017   1.397   0.010  0.00  0.00    -0.230 N 
ATOM      6  C   UNL     1       1.141   2.087   0.002  0.00  0.00    +0.260 C 
ATOM      7  O   UNL     1       2.202   1.493  -0.011  0.00  0.00    -0.269 OA
ATOM      8  H   UNL     1      -0.864   1.870   0.016  0.00  0.00    +0.173 HD
BRANCH   6   9
ATOM      9  C   UNL     1       1.121   3.565   0.011  0.00  0.00    +0.041 A 
ATOM     10  C   UNL     1      -0.096   4.249   0.020  0.00  0.00    +0.033 A 
ATOM     11  C   UNL     1      -0.108   5.630   0.032  0.00  0.00    +0.043 A 
ATOM     12  C   UNL     1       1.083   6.335   0.025  0.00  0.00    +0.040 A 
ATOM     13  C   UNL     1       2.293   5.662   0.010  0.00  0.00    +0.043 A 
ATOM     14  C   UNL     1       2.318   4.282   0.003  0.00  0.00    +0.033 A 
ATOM     15 CL   UNL     1       3.781   6.556   0.001  0.00  0.00    -0.083 Cl
ATOM     16 CL   UNL     1      -1.620   6.482   0.050  0.00  0.00    -0.083 Cl
ENDBRANCH   6   9
ENDBRANCH   3   5
BRANCH   1  17
ATOM     17  C   UNL     1      -1.135  -2.201   0.001  0.00  0.00    +0.326 C 
BRANCH  17  18
ATOM     18  O   UNL     1      -2.476  -2.695   0.011  0.00  0.00    -0.483 OA
BRANCH  18  22
ATOM     19  C   UNL     1      -5.454  -6.562   0.019  0.00  0.00    +0.045 C 
ATOM     20  C   UNL     1      -4.070  -5.966   0.008  0.00  0.00    -0.029 A 
ATOM     21  C   UNL     1      -3.910  -4.593   0.015  0.00  0.00    +0.050 A 
ATOM     22  C   UNL     1      -2.636  -4.045   0.005  0.00  0.00    +0.122 A 
ATOM     23  C   UNL     1      -1.525  -4.876  -0.015  0.00  0.00    +0.047 A 
ATOM     24  C   UNL     1      -1.689  -6.247  -0.016  0.00  0.00    +0.024 A 
ATOM     25  C   UNL     1      -2.961  -6.793  -0.007  0.00  0.00    +0.044 A 
ATOM     26 CL   UNL     1      -3.165  -8.517  -0.014  0.00  0.00    -0.083 Cl
ENDBRANCH  18  22
ENDBRANCH  17  18
ENDBRANCH   1  17
TORSDOF 5
