REMARK  Name = ZINC20527536
REMARK  9 active torsions:
REMARK  status: ('A' for Active; 'I' for Inactive)
REMARK    1  A    between atoms: C_2  and  C_3
REMARK    2  A    between atoms: C_3  and  C_4
REMARK    3  A    between atoms: C_8  and  C_11
REMARK    4  A    between atoms: C_9  and  O_10
REMARK    5  A    between atoms: N_12  and  N_13
REMARK    6  A    between atoms: C_17  and  S_20
REMARK    7  A    between atoms: N_18  and  N_19
REMARK    8  A    between atoms: S_20  and  C_21
REMARK    9  A    between atoms: C_21  and  C_22
REMARK                            x       y       z     vdW  Elec       q    Type
REMARK                         _______ _______ _______ _____ _____    ______ ____
ROOT
ATOM      1  N   UNL     1      -3.757   5.851   0.069  0.00  0.00    -0.204 N 
ATOM      2  C   UNL     1      -3.772   7.239   0.077  0.00  0.00    +0.254 A 
ATOM      3  N   UNL     1      -2.720   8.021   0.077  0.00  0.00    -0.109 NA
ATOM      4  N   UNL     1      -3.167   9.348   0.083  0.00  0.00    -0.119 NA
ATOM      5  C   UNL     1      -4.479   9.334   0.096  0.00  0.00    +0.210 A 
ATOM      6  N   UNL     1      -4.886   8.030   0.092  0.00  0.00    -0.211 N 
ATOM      7  H   UNL     1      -4.703   5.291   0.074  0.00  0.00    +0.177 HD
ENDROOT
BRANCH   6   8
ATOM      8  N   UNL     1      -6.181   7.594   0.102  0.00  0.00    -0.294 N 
ATOM      9  H   UNL     1      -7.006   8.321   0.114  0.00  0.00    +0.163 HD
ATOM     10  H   UNL     1      -6.398   6.516   0.098  0.00  0.00    +0.163 HD
ENDBRANCH   6   8
BRANCH   1  12
ATOM     11  C   UNL     1      -2.522   3.865   0.046  0.00  0.00    +0.142 C 
ATOM     12  N   UNL     1      -2.536   5.164   0.054  0.00  0.00    -0.187 NA
BRANCH  11  17
ATOM     13  C   UNL     1       1.172   3.164   0.008  0.00  0.00    -0.002 A 
ATOM     14  C   UNL     1       1.178   1.781   0.000  0.00  0.00    +0.007 A 
ATOM     15  C   UNL     1      -0.013   1.076   0.008  0.00  0.00    +0.001 A 
ATOM     16  C   UNL     1      -1.218   1.746   0.017  0.00  0.00    +0.013 A 
ATOM     17  C   UNL     1      -1.238   3.143   0.030  0.00  0.00    +0.036 A 
ATOM     18  C   UNL     1      -0.029   3.853   0.023  0.00  0.00    +0.129 A 
BRANCH  18  19
ATOM     19  O   UNL     1      -0.036   5.211   0.030  0.00  0.00    -0.506 OA
ATOM     20  H   UNL     1      -0.992   5.756   0.042  0.00  0.00    +0.292 HD
ENDBRANCH  18  19
BRANCH  13  21
ATOM     21  C   UNL     1       2.474   3.922  -0.001  0.00  0.00    +0.065 C 
BRANCH  21  23
ATOM     22  C   UNL     1       4.031   3.921   1.880  0.00  0.00    +0.004 C 
ATOM     23  C   UNL     1       2.859   4.274   1.413  0.00  0.00    -0.030 C 
ENDBRANCH  21  23
ENDBRANCH  13  21
ENDBRANCH  11  17
ENDBRANCH   1  12
BRANCH   5  24
ATOM     24  S   UNL     1      -5.530  10.748   0.113  0.00  0.00    -0.080 S 
BRANCH  24  25
ATOM     25  C   UNL     1      -4.379  12.150   0.111  0.00  0.00    +0.112 C 
BRANCH  25  26
ATOM     26  C   UNL     1      -5.159  13.440   0.125  0.00  0.00    -0.036 A 
ATOM     27  C   UNL     1      -5.522  14.041  -1.066  0.00  0.00    +0.006 A 
ATOM     28  C   UNL     1      -6.242  15.220  -1.054  0.00  0.00    +0.022 A 
ATOM     29  C   UNL     1      -6.589  15.807   0.149  0.00  0.00    +0.059 A 
ATOM     30  C   UNL     1      -6.221  15.208   1.342  0.00  0.00    +0.060 A 
ATOM     31  C   UNL     1      -5.505  14.024   1.328  0.00  0.00    +0.026 A 
ATOM     32 CL   UNL     1      -6.657  15.942   2.853  0.00  0.00    -0.082 Cl
ATOM     33 CL   UNL     1      -7.488  17.292   0.165  0.00  0.00    -0.082 Cl
ENDBRANCH  25  26
ENDBRANCH  24  25
ENDBRANCH   5  24
TORSDOF 9
