REMARK  Name = ZINC35734537
REMARK  5 active torsions:
REMARK  status: ('A' for Active; 'I' for Inactive)
REMARK    1  A    between atoms: C_1  and  C_2
REMARK    2  A    between atoms: C_2  and  C_4
REMARK    3  A    between atoms: C_2  and  N_10
REMARK    4  A    between atoms: N_10  and  C_11
REMARK    5  A    between atoms: C_16  and  N_17
REMARK                            x       y       z     vdW  Elec       q    Type
REMARK                         _______ _______ _______ _____ _____    ______ ____
ROOT
ATOM      1  C   UNL     1      -0.017  -0.613  -2.398  0.00  0.00    +0.050 A 
ATOM      2  C   UNL     1      -1.363  -0.294  -2.440  0.00  0.00    +0.053 A 
ATOM      3  C   UNL     1      -2.068  -0.430  -3.635  0.00  0.00    +0.080 A 
ATOM      4  C   UNL     1      -1.399  -0.892  -4.791  0.00  0.00    +0.067 A 
ATOM      5  C   UNL     1      -0.041  -1.210  -4.737  0.00  0.00    +0.040 A 
ATOM      6  C   UNL     1       0.645  -1.065  -3.548  0.00  0.00    +0.047 A 
ATOM      7  C   UNL     1      -2.174  -1.022  -6.031  0.00  0.00    +0.259 A 
ATOM      8  O   UNL     1      -1.657  -1.415  -7.061  0.00  0.00    -0.267 OA
ATOM      9  N   UNL     1      -3.485  -0.690  -5.985  0.00  0.00    -0.313 N 
ATOM     10  H   UNL     1      -4.028  -0.764  -6.785  0.00  0.00    +0.170 HD
ATOM     11  C   UNL     1      -4.049  -0.254  -4.827  0.00  0.00    +0.199 A 
ATOM     12  N   UNL     1      -3.390  -0.128  -3.716  0.00  0.00    -0.237 NA
ENDROOT
BRANCH   6  13
ATOM     13  N   UNL     1       2.009  -1.377  -3.489  0.00  0.00    -0.357 N 
ATOM     14  H   UNL     1       2.493  -1.280  -2.654  0.00  0.00    +0.142 HD
ATOM     15  H   UNL     1       2.470  -1.691  -4.282  0.00  0.00    +0.142 HD
ENDBRANCH   6  13
BRANCH   1  16
ATOM     16  N   UNL     1       0.688  -0.476  -1.203  0.00  0.00    -0.337 N 
ATOM     17  H   UNL     1       1.632  -0.695  -1.170  0.00  0.00    +0.146 HD
BRANCH  16  19
ATOM     18  C   UNL     1      -0.019   1.526   0.010  0.00  0.00    +0.030 C 
ATOM     19  C   UNL     1       0.002  -0.004   0.002  0.00  0.00    +0.096 C 
BRANCH  19  20
ATOM     20  C   UNL     1       0.742  -0.511   1.242  0.00  0.00    +0.138 C 
ATOM     21  C   UNL     1      -0.040  -0.120   2.514  0.00  0.00    +0.035 C 
ATOM     22  C   UNL     1       1.101   0.265   3.496  0.00  0.00    +0.031 C 
ATOM     23  C   UNL     1       2.131   0.888   2.521  0.00  0.00    +0.160 C 
ATOM     24  O   UNL     1       2.034   0.102   1.320  0.00  0.00    -0.375 OA
ENDBRANCH  19  20
ENDBRANCH  16  19
ENDBRANCH   1  16
TORSDOF 4
