REMARK  Name = ZINC02137239
REMARK  7 active torsions:
REMARK  status: ('A' for Active; 'I' for Inactive)
REMARK    1  A    between atoms: C_1  and  C_2
REMARK    2  A    between atoms: C_5  and  C_8
REMARK    3  A    between atoms: N_10  and  C_11
REMARK    4  A    between atoms: C_11  and  C_13
REMARK    5  A    between atoms: C_11  and  O_17
REMARK    6  A    between atoms: O_17  and  C_18
REMARK    7  A    between atoms: C_18  and  C_19
REMARK                            x       y       z     vdW  Elec       q    Type
REMARK                         _______ _______ _______ _____ _____    ______ ____
ROOT
ATOM      1  C   UNL     1       0.093  -6.396   1.134  0.00  0.00    +0.257 C 
ENDROOT
BRANCH   1   4
ATOM      2  C   UNL     1       0.059  -4.251  -0.021  0.00  0.00    +0.246 C 
ATOM      3  O   UNL     1       0.062  -4.853  -1.077  0.00  0.00    -0.270 OA
ATOM      4  N   UNL     1       0.074  -4.931   1.142  0.00  0.00    -0.283 N 
ATOM      5  H   UNL     1       0.072  -4.451   1.985  0.00  0.00    +0.152 HD
BRANCH   2  10
ATOM      6  C   UNL     1      -0.018   1.503   0.010  0.00  0.00    +0.044 C 
ATOM      7  C   UNL     1       0.002  -0.004   0.002  0.00  0.00    -0.050 A 
ATOM      8  C   UNL     1       0.006  -0.686  -1.202  0.00  0.00    +0.004 A 
ATOM      9  C   UNL     1       0.024  -2.066  -1.216  0.00  0.00    +0.013 A 
ATOM     10  C   UNL     1       0.040  -2.773  -0.013  0.00  0.00    +0.037 A 
ATOM     11  C   UNL     1       0.036  -2.079   1.198  0.00  0.00    +0.013 A 
ATOM     12  C   UNL     1       0.023  -0.699   1.198  0.00  0.00    +0.004 A 
ENDBRANCH   2  10
ENDBRANCH   1   4
BRANCH   1  13
ATOM     13  C   UNL     1       0.933  -6.902   2.309  0.00  0.00    +0.233 C 
ATOM     14 CL   UNL     1       0.957  -8.704   2.299  0.00  0.00    -0.079 Cl
ATOM     15 CL   UNL     1       2.618  -6.277   2.156  0.00  0.00    -0.079 Cl
ATOM     16 CL   UNL     1       0.215  -6.319   3.856  0.00  0.00    -0.079 Cl
ENDBRANCH   1  13
BRANCH   1  17
ATOM     17  O   UNL     1      -1.242  -6.891   1.255  0.00  0.00    -0.354 OA
BRANCH  17  18
ATOM     18  C   UNL     1      -2.017  -6.770   0.061  0.00  0.00    +0.164 C 
BRANCH  18  19
ATOM     19  C   UNL     1      -3.421  -7.328   0.306  0.00  0.00    +0.001 C 
ATOM     20  C   UNL     1      -4.137  -6.465   1.347  0.00  0.00    +0.002 C 
ATOM     21  C   UNL     1      -5.561  -7.000   1.532  0.00  0.00    -0.018 C 
ATOM     22  C   UNL     1      -6.276  -6.976   0.181  0.00  0.00    -0.078 C 
ATOM     23  N   UNL     1      -5.566  -7.828  -0.784  0.00  0.00    +0.382 N 
ATOM     24  C   UNL     1      -4.210  -7.315  -1.007  0.00  0.00    -0.063 C 
ATOM     25  C   UNL     1      -3.473  -8.204  -2.015  0.00  0.00    -0.015 C 
ATOM     26  C   UNL     1      -4.242  -8.236  -3.337  0.00  0.00    -0.003 C 
ATOM     27  C   UNL     1      -5.664  -8.739  -3.065  0.00  0.00    -0.019 C 
ATOM     28  C   UNL     1      -6.325  -7.819  -2.043  0.00  0.00    -0.078 C 
ATOM     29  H   UNL     1      -5.515  -8.771  -0.428  0.00  0.00    -0.081 HD
ENDBRANCH  18  19
ENDBRANCH  17  18
ENDBRANCH   1  17
TORSDOF 6
