REMARK  Name = ZINC04140526
REMARK  6 active torsions:
REMARK  status: ('A' for Active; 'I' for Inactive)
REMARK    1  A    between atoms: C_1  and  O_2
REMARK    2  A    between atoms: O_2  and  C_3
REMARK    3  A    between atoms: C_7  and  O_9
REMARK    4  A    between atoms: O_9  and  C_10
REMARK    5  A    between atoms: C_12  and  C_21
REMARK    6  A    between atoms: C_24  and  C_27
REMARK                            x       y       z     vdW  Elec       q    Type
REMARK                         _______ _______ _______ _____ _____    ______ ____
ROOT
ATOM      1  C   UNL     1      -3.168   8.630   1.024  0.00  0.00    +0.124 A 
ATOM      2  C   UNL     1      -3.359   7.488   1.787  0.00  0.00    +0.052 A 
ATOM      3  C   UNL     1      -3.922   6.359   1.229  0.00  0.00    -0.012 A 
ATOM      4  C   UNL     1      -4.324   6.352  -0.108  0.00  0.00    +0.074 A 
ATOM      5  C   UNL     1      -4.121   7.508  -0.870  0.00  0.00    +0.145 A 
ATOM      6  C   UNL     1      -3.548   8.633  -0.309  0.00  0.00    +0.093 A 
ATOM      7  N   UNL     1      -4.924   5.258  -0.740  0.00  0.00    -0.334 N 
ATOM      8  C   UNL     1      -5.036   4.019   0.047  0.00  0.00    +0.105 C 
ATOM      9  C   UNL     1      -5.391   4.424   1.463  0.00  0.00    +0.029 C 
ATOM     10  C   UNL     1      -4.103   5.115   2.010  0.00  0.00    +0.049 C 
ATOM     11  C   UNL     1      -4.323   5.119   3.477  0.00  0.00    -0.023 C 
ATOM     12  C   UNL     1      -5.097   4.086   3.792  0.00  0.00    -0.030 C 
ATOM     13  C   UNL     1      -5.487   3.322   2.524  0.00  0.00    +0.033 C 
ATOM     14  H   UNL     1      -5.815   5.515  -1.139  0.00  0.00    +0.147 HD
ENDROOT
BRANCH   8  15
ATOM     15  C   UNL     1      -3.720   3.284   0.037  0.00  0.00    -0.027 A 
ATOM     16  C   UNL     1      -2.545   3.977  -0.190  0.00  0.00    +0.006 A 
ATOM     17  C   UNL     1      -1.338   3.310  -0.200  0.00  0.00    +0.015 A 
ATOM     18  C   UNL     1      -1.304   1.932   0.021  0.00  0.00    +0.063 A 
ATOM     19  C   UNL     1      -2.494   1.237   0.243  0.00  0.00    +0.015 A 
ATOM     20  C   UNL     1      -3.694   1.918   0.256  0.00  0.00    +0.006 A 
BRANCH  18  21
ATOM     21  C   UNL     1      -0.014   1.211   0.012  0.00  0.00    +0.387 C 
ATOM     22  O   UNL     1       1.019   1.817  -0.188  0.00  0.00    -0.241 OA
ATOM     23  O   UNL     1       0.016  -0.118   0.230  0.00  0.00    -0.241 OA
ENDBRANCH  18  21
ENDBRANCH   8  15
BRANCH   1  25
ATOM     24  C   UNL     1      -2.447  10.877   0.731  0.00  0.00    +0.277 C 
ATOM     25  O   UNL     1      -2.611   9.739   1.580  0.00  0.00    -0.495 OA
ENDBRANCH   1  25
BRANCH   5  26
ATOM     26  O   UNL     1      -4.492   7.524  -2.179  0.00  0.00    -0.493 OA
ATOM     27  C   UNL     1      -4.259   8.733  -2.904  0.00  0.00    +0.277 C 
ENDBRANCH   5  26
TORSDOF 4
