REMARK  Name = ZINC38706007
REMARK  10 active torsions:
REMARK  status: ('A' for Active; 'I' for Inactive)
REMARK    1  A    between atoms: C_1  and  C_2
REMARK    2  A    between atoms: C_4  and  C_36
REMARK    3  A    between atoms: C_5  and  C_9
REMARK    4  A    between atoms: C_6  and  O_8
REMARK    5  A    between atoms: N_17  and  C_29
REMARK    6  A    between atoms: C_18  and  C_20
REMARK    7  A    between atoms: C_23  and  C_26
REMARK    8  A    between atoms: C_26  and  C_27
REMARK    9  A    between atoms: C_26  and  C_28
REMARK   10  A    between atoms: C_29  and  C_30
REMARK                            x       y       z     vdW  Elec       q    Type
REMARK                         _______ _______ _______ _____ _____    ______ ____
ROOT
ATOM      1  C   UNL     1       0.220  -4.526  -0.149  0.00  0.00    +0.102 A 
ATOM      2  C   UNL     1       0.244  -5.252   1.046  0.00  0.00    +0.035 A 
ATOM      3  C   UNL     1       0.189  -6.583   0.679  0.00  0.00    +0.126 A 
ATOM      4  N   UNL     1       0.136  -6.598  -0.686  0.00  0.00    -0.272 N 
ATOM      5  H   UNL     1       0.089  -7.398  -1.233  0.00  0.00    +0.189 HD
ATOM      6  N   UNL     1       0.149  -5.395  -1.138  0.00  0.00    -0.173 NA
ATOM      7  C   UNL     1       0.210  -7.404   1.895  0.00  0.00    +0.266 C 
ATOM      8  O   UNL     1       0.173  -8.619   1.913  0.00  0.00    -0.268 OA
ATOM      9  N   UNL     1       0.276  -6.621   2.987  0.00  0.00    -0.281 N 
ATOM     10  C   UNL     1       0.303  -5.220   2.549  0.00  0.00    +0.142 C 
ENDROOT
BRANCH   1  15
ATOM     11  C   UNL     1       0.380   1.212  -0.662  0.00  0.00    +0.044 C 
ATOM     12  C   UNL     1       0.336  -0.288  -0.526  0.00  0.00    -0.047 A 
ATOM     13  C   UNL     1       1.202  -1.072  -1.267  0.00  0.00    +0.007 A 
ATOM     14  C   UNL     1       1.169  -2.447  -1.148  0.00  0.00    -0.037 A 
ATOM     15  C   UNL     1       0.260  -3.048  -0.280  0.00  0.00    +0.047 A 
ATOM     16  C   UNL     1      -0.614  -2.253   0.467  0.00  0.00    +0.127 A 
ATOM     17  C   UNL     1      -0.566  -0.874   0.342  0.00  0.00    +0.049 A 
ATOM     18  C   UNL     1       2.114  -3.297  -1.957  0.00  0.00    +0.044 C 
BRANCH  16  19
ATOM     19  O   UNL     1      -1.503  -2.830   1.316  0.00  0.00    -0.506 OA
ATOM     20  H   UNL     1      -1.197  -2.881   2.232  0.00  0.00    +0.292 HD
ENDBRANCH  16  19
ENDBRANCH   1  15
BRANCH  10  21
ATOM     21  C   UNL     1       1.578  -4.558   3.003  0.00  0.00    -0.022 A 
ATOM     22  C   UNL     1       2.795  -5.175   2.781  0.00  0.00    +0.006 A 
ATOM     23  C   UNL     1       3.964  -4.568   3.199  0.00  0.00    +0.004 A 
ATOM     24  C   UNL     1       3.917  -3.343   3.837  0.00  0.00    -0.045 A 
ATOM     25  C   UNL     1       2.701  -2.725   4.058  0.00  0.00    +0.004 A 
ATOM     26  C   UNL     1       1.531  -3.330   3.637  0.00  0.00    +0.006 A 
BRANCH  24  27
ATOM     27  C   UNL     1       5.192  -2.681   4.293  0.00  0.00    +0.013 C 
ATOM     28  C   UNL     1       5.337  -1.323   3.603  0.00  0.00    +0.012 C 
ATOM     29  C   UNL     1       5.149  -2.481   5.809  0.00  0.00    +0.012 C 
ENDBRANCH  24  27
ENDBRANCH  10  21
BRANCH   9  30
ATOM     30  C   UNL     1       0.314  -7.087   4.375  0.00  0.00    +0.144 C 
BRANCH  30  31
ATOM     31  C   UNL     1       1.746  -7.291   4.798  0.00  0.00    -0.030 A 
ATOM     32  C   UNL     1       2.355  -8.517   4.608  0.00  0.00    +0.005 A 
ATOM     33  C   UNL     1       3.668  -8.704   4.996  0.00  0.00    +0.000 A 
ATOM     34  C   UNL     1       4.373  -7.665   5.574  0.00  0.00    +0.000 A 
ATOM     35  C   UNL     1       3.764  -6.438   5.763  0.00  0.00    +0.000 A 
ATOM     36  C   UNL     1       2.452  -6.250   5.371  0.00  0.00    +0.005 A 
ENDBRANCH  30  31
ENDBRANCH   9  30
TORSDOF 6
