REMARK  Name = ZINC17179978
REMARK  6 active torsions:
REMARK  status: ('A' for Active; 'I' for Inactive)
REMARK    1  A    between atoms: C_1  and  C_2
REMARK    2  A    between atoms: C_5  and  O_36
REMARK    3  A    between atoms: C_18  and  C_35
REMARK    4  A    between atoms: C_23  and  N_25
REMARK    5  A    between atoms: C_26  and  C_28
REMARK    6  A    between atoms: C_28  and  N_29
REMARK                            x       y       z     vdW  Elec       q    Type
REMARK                         _______ _______ _______ _____ _____    ______ ____
ROOT
ATOM      1  C   UNL     1       3.854   2.227   1.035  0.00  0.00    +0.012 C 
ATOM      2  C   UNL     1       2.481   1.569   1.184  0.00  0.00    -0.026 C 
ATOM      3  C   UNL     1       2.653   0.053   1.297  0.00  0.00    +0.010 C 
ATOM      4  C   UNL     1       3.515  -0.274   2.517  0.00  0.00    +0.032 C 
ATOM      5  C   UNL     1       2.832   0.255   3.780  0.00  0.00    +0.115 C 
ATOM      6  C   UNL     1       2.661   1.771   3.669  0.00  0.00    +0.035 C 
ATOM      7  C   UNL     1       1.799   2.097   2.448  0.00  0.00    -0.002 C 
ATOM      8  C   UNL     1       0.426   1.438   2.595  0.00  0.00    +0.004 C 
ATOM      9  C   UNL     1      -0.433   1.795   1.380  0.00  0.00    +0.004 C 
ATOM     10  C   UNL     1       0.238   1.271   0.109  0.00  0.00    -0.004 C 
ATOM     11  C   UNL     1       1.624   1.898  -0.037  0.00  0.00    -0.001 C 
ATOM     12  C   UNL     1       1.458   3.415  -0.163  0.00  0.00    +0.005 C 
ATOM     13  C   UNL     1       0.686   3.713  -1.446  0.00  0.00    +0.009 C 
ATOM     14  C   UNL     1      -0.710   3.088  -1.400  0.00  0.00    -0.011 C 
ATOM     15  C   UNL     1      -0.628   1.594  -1.089  0.00  0.00    +0.000 C 
ATOM     16  C   UNL     1      -0.104   0.962  -2.385  0.00  0.00    +0.006 C 
ATOM     17  C   UNL     1      -0.503   1.929  -3.518  0.00  0.00    +0.023 C 
ATOM     18  C   UNL     1      -1.240   3.081  -2.865  0.00  0.00    +0.079 C 
ATOM     19  C   UNL     1      -1.640   3.822  -0.432  0.00  0.00    +0.013 C 
ENDROOT
BRANCH  18  20
ATOM     20  N   UNL     1      -0.917   4.343  -3.535  0.00  0.00    -0.311 N 
ATOM     21  C   UNL     1      -1.668   4.768  -4.570  0.00  0.00    +0.227 C 
ATOM     22  O   UNL     1      -2.611   4.105  -4.947  0.00  0.00    -0.274 OA
ATOM     23  H   UNL     1      -0.061   4.944  -3.193  0.00  0.00    +0.149 HD
BRANCH  21  24
ATOM     24  C   UNL     1      -1.336   6.066  -5.260  0.00  0.00    +0.180 C 
BRANCH  24  25
ATOM     25  N   UNL     1      -2.295   6.303  -6.346  0.00  0.00    -0.290 NA
ATOM     26  C   UNL     1      -2.143   5.301  -7.411  0.00  0.00    +0.113 C 
ATOM     27  C   UNL     1      -3.199   5.549  -8.492  0.00  0.00    +0.175 C 
ATOM     28  O   UNL     1      -3.066   6.886  -8.983  0.00  0.00    -0.377 OA
ATOM     29  C   UNL     1      -3.209   7.888  -7.973  0.00  0.00    +0.175 C 
ATOM     30  C   UNL     1      -2.153   7.663  -6.887  0.00  0.00    +0.113 C 
ENDBRANCH  24  25
ENDBRANCH  21  24
ENDBRANCH  18  20
BRANCH   5  31
ATOM     31  O   UNL     1       1.550  -0.360   3.921  0.00  0.00    -0.392 OA
ATOM     32  H   UNL     1       0.907  -0.102   4.776  0.00  0.00    +0.210 HD
ENDBRANCH   5  31
TORSDOF 4
