REMARK  Name = ZINC66151969
REMARK  5 active torsions:
REMARK  status: ('A' for Active; 'I' for Inactive)
REMARK    1  A    between atoms: C_5  and  O_8
REMARK    2  A    between atoms: O_8  and  C_9
REMARK    3  A    between atoms: C_9  and  C_10
REMARK    4  A    between atoms: C_16  and  C_19
REMARK    5  A    between atoms: N_21  and  N_22
REMARK                            x       y       z     vdW  Elec       q    Type
REMARK                         _______ _______ _______ _____ _____    ______ ____
ROOT
ATOM      1  C   UNL     1       1.279  -4.189   1.041  0.00  0.00    +0.253 C 
ATOM      2  O   UNL     1       1.274  -4.646  -0.083  0.00  0.00    -0.272 OA
ATOM      3  N   UNL     1       1.303  -5.016   2.104  0.00  0.00    -0.298 N 
ATOM      4  C   UNL     1       1.302  -4.478   3.471  0.00  0.00    +0.108 C 
ATOM      5  C   UNL     1       0.152  -5.120   4.254  0.00  0.00    +0.020 C 
ATOM      6  C   UNL     1       0.278  -6.644   4.178  0.00  0.00    +0.016 C 
ATOM      7  C   UNL     1       0.179  -7.093   2.719  0.00  0.00    +0.094 C 
ATOM      8  C   UNL     1       1.323  -6.474   1.919  0.00  0.00    +0.120 C 
ENDROOT
BRANCH   7   9
ATOM      9  C   UNL     1       0.270  -8.596   2.648  0.00  0.00    +0.231 C 
ATOM     10  O   UNL     1       0.400  -9.244   3.665  0.00  0.00    -0.274 OA
ATOM     11  N   UNL     1       0.205  -9.220   1.455  0.00  0.00    -0.253 N 
ATOM     12  H   UNL     1       0.101  -8.702   0.642  0.00  0.00    +0.169 HD
BRANCH  11  13
ATOM     13  N   UNL     1       0.287 -10.582   1.391  0.00  0.00    -0.254 NA
ATOM     14  H   UNL     1       0.225 -10.904   0.437  0.00  0.00    +0.140 HD
ATOM     15  H   UNL     1       1.133 -10.914   1.830  0.00  0.00    +0.140 HD
ENDBRANCH  11  13
ENDBRANCH   7   9
BRANCH   1  16
ATOM     16  C   UNL     1       1.258  -2.696   1.247  0.00  0.00    +0.324 C 
BRANCH  16  17
ATOM     17  O   UNL     1       1.235  -2.040  -0.022  0.00  0.00    -0.480 OA
BRANCH  17  22
ATOM     18  C   UNL     1      -0.017   1.378   0.010  0.00  0.00    +0.043 A 
ATOM     19  C   UNL     1       1.172   2.087   0.002  0.00  0.00    +0.044 A 
ATOM     20  C   UNL     1       2.381   1.415  -0.013  0.00  0.00    +0.039 A 
ATOM     21  C   UNL     1       2.404   0.033  -0.021  0.00  0.00    +0.062 A 
ATOM     22  C   UNL     1       1.214  -0.681  -0.014  0.00  0.00    +0.153 A 
ATOM     23  C   UNL     1       0.002  -0.004   0.002  0.00  0.00    +0.085 A 
ATOM     24 CL   UNL     1      -1.489  -0.893   0.012  0.00  0.00    -0.080 Cl
ATOM     25 BR   UNL     1       4.057  -0.885  -0.044  0.00  0.00    -0.046 Br
ATOM     26 CL   UNL     1       1.145   3.823   0.012  0.00  0.00    -0.083 Cl
ENDBRANCH  17  22
ENDBRANCH  16  17
ENDBRANCH   1  16
TORSDOF 5
