REMARK  Name = ZINC44527611
REMARK  6 active torsions:
REMARK  status: ('A' for Active; 'I' for Inactive)
REMARK    1  A    between atoms: C_1  and  C_2
REMARK    2  A    between atoms: C_2  and  C_4
REMARK    3  A    between atoms: C_2  and  N_15
REMARK    4  A    between atoms: C_13  and  O_14
REMARK    5  A    between atoms: C_19  and  C_22
REMARK    6  A    between atoms: C_22  and  N_23
REMARK                            x       y       z     vdW  Elec       q    Type
REMARK                         _______ _______ _______ _____ _____    ______ ____
ROOT
ATOM      1  C   UNL     1      -0.019   1.526   0.010  0.00  0.00    +0.029 C 
ATOM      2  C   UNL     1       0.002  -0.004   0.002  0.00  0.00    +0.087 C 
ENDROOT
BRANCH   2   3
ATOM      3  C   UNL     1       0.707  -0.490  -1.238  0.00  0.00    +0.011 A 
ATOM      4  C   UNL     1       2.034  -0.905  -1.155  0.00  0.00    +0.009 A 
ATOM      5  C   UNL     1       2.701  -1.350  -2.255  0.00  0.00    +0.009 A 
ATOM      6  C   UNL     1       2.046  -1.393  -3.498  0.00  0.00    -0.014 A 
ATOM      7  C   UNL     1       2.704  -1.847  -4.654  0.00  0.00    +0.008 A 
ATOM      8  C   UNL     1       2.038  -1.876  -5.841  0.00  0.00    +0.001 A 
ATOM      9  C   UNL     1       0.710  -1.461  -5.928  0.00  0.00    +0.001 A 
ATOM     10  C   UNL     1       0.042  -1.016  -4.829  0.00  0.00    +0.012 A 
ATOM     11  C   UNL     1       0.696  -0.972  -3.588  0.00  0.00    +0.024 A 
ATOM     12  C   UNL     1       0.035  -0.523  -2.427  0.00  0.00    +0.129 A 
BRANCH  12  13
ATOM     13  O   UNL     1      -1.261  -0.120  -2.490  0.00  0.00    -0.506 OA
ATOM     14  H   UNL     1      -1.371   0.822  -2.681  0.00  0.00    +0.292 HD
ENDBRANCH  12  13
ENDBRANCH   2   3
BRANCH   2  15
ATOM     15  N   UNL     1       0.713  -0.491   1.192  0.00  0.00    -0.295 NA
ATOM     16  C   UNL     1       0.840  -1.954   1.168  0.00  0.00    +0.085 C 
ATOM     17  C   UNL     1       1.707  -2.411   2.342  0.00  0.00    +0.016 C 
ATOM     18  C   UNL     1       1.061  -1.958   3.655  0.00  0.00    +0.004 C 
ATOM     19  C   UNL     1       0.896  -0.436   3.634  0.00  0.00    -0.014 C 
ATOM     20  C   UNL     1       0.052  -0.035   2.422  0.00  0.00    +0.086 C 
BRANCH  19  21
ATOM     21  C   UNL     1       0.198   0.019   4.917  0.00  0.00    -0.082 C 
BRANCH  21  22
ATOM     22  N   UNL     1       1.062  -0.262   6.071  0.00  0.00    +0.378 N 
ATOM     23  H   UNL     1       1.244  -1.253   6.121  0.00  0.00    -0.090 HD
ATOM     24  H   UNL     1       1.933   0.236   5.968  0.00  0.00    -0.090 HD
ATOM     25  H   UNL     1       0.601   0.038   6.917  0.00  0.00    -0.090 HD
ENDBRANCH  21  22
ENDBRANCH  19  21
ENDBRANCH   2  15
TORSDOF 5
