REMARK  Name = ZINC38874217
REMARK  9 active torsions:
REMARK  status: ('A' for Active; 'I' for Inactive)
REMARK    1  A    between atoms: C_1  and  C_2
REMARK    2  A    between atoms: C_6  and  O_8
REMARK    3  A    between atoms: O_8  and  C_9
REMARK    4  A    between atoms: C_9  and  C_10
REMARK    5  A    between atoms: C_10  and  N_12
REMARK    6  A    between atoms: N_14  and  C_26
REMARK    7  A    between atoms: C_18  and  S_22
REMARK    8  A    between atoms: S_22  and  C_25
REMARK    9  A    between atoms: C_26  and  C_27
REMARK                            x       y       z     vdW  Elec       q    Type
REMARK                         _______ _______ _______ _____ _____    ______ ____
ROOT
ATOM      1  N   UNL     1       0.076  -6.117   3.725  0.00  0.00    -0.153 NA
ATOM      2  C   UNL     1       0.059  -6.725   4.910  0.00  0.00    +0.167 A 
ATOM      3  N   UNL     1      -0.084  -6.157   6.134  0.00  0.00    -0.310 N 
ATOM      4  C   UNL     1      -0.079  -6.952   7.265  0.00  0.00    +0.059 A 
ATOM      5  C   UNL     1      -0.209  -6.579   8.610  0.00  0.00    +0.029 A 
ATOM      6  C   UNL     1      -0.178  -7.527   9.606  0.00  0.00    +0.029 A 
ATOM      7  C   UNL     1      -0.018  -8.871   9.312  0.00  0.00    +0.089 A 
ATOM      8  C   UNL     1       0.113  -9.265   7.992  0.00  0.00    +0.044 A 
ATOM      9  C   UNL     1       0.082  -8.319   6.996  0.00  0.00    +0.041 A 
ATOM     10  S   UNL     1       0.201  -8.370   5.227  0.00  0.00    -0.052 S 
ENDROOT
BRANCH   7  11
ATOM     11  S   UNL     1       0.020 -10.066  10.606  0.00  0.00    -0.006 S 
ATOM     12  O   UNL     1       0.776 -11.147  10.079  0.00  0.00    -0.170 OA
ATOM     13  O   UNL     1       0.475  -9.351  11.746  0.00  0.00    -0.170 OA
ATOM     14  C   UNL     1      -1.710 -10.564  10.831  0.00  0.00    +0.200 C 
ENDBRANCH   7  11
BRANCH   1  15
ATOM     15  C   UNL     1       0.097  -4.791   3.659  0.00  0.00    +0.276 C 
ATOM     16  O   UNL     1      -0.947  -4.168   3.603  0.00  0.00    -0.270 OA
BRANCH  15  17
ATOM     17  C   UNL     1       1.413  -4.057   3.654  0.00  0.00    +0.326 C 
BRANCH  17  18
ATOM     18  O   UNL     1       1.178  -2.659   3.469  0.00  0.00    -0.483 OA
BRANCH  18  24
ATOM     19  C   UNL     1       3.057   1.825   3.042  0.00  0.00    +0.044 C 
ATOM     20  C   UNL     1       3.224   0.340   3.234  0.00  0.00    -0.047 A 
ATOM     21  C   UNL     1       4.489  -0.200   3.381  0.00  0.00    +0.003 A 
ATOM     22  C   UNL     1       4.646  -1.562   3.558  0.00  0.00    +0.004 A 
ATOM     23  C   UNL     1       3.538  -2.388   3.588  0.00  0.00    +0.045 A 
ATOM     24  C   UNL     1       2.269  -1.849   3.440  0.00  0.00    +0.121 A 
ATOM     25  C   UNL     1       2.114  -0.481   3.269  0.00  0.00    +0.049 A 
ENDBRANCH  18  24
ENDBRANCH  17  18
ENDBRANCH  15  17
ENDBRANCH   1  15
BRANCH   3  26
ATOM     26  C   UNL     1      -0.243  -4.706   6.257  0.00  0.00    +0.212 C 
BRANCH  26  27
ATOM     27  C   UNL     1      -1.658  -4.349   6.066  0.00  0.00    -0.084 C 
ATOM     28  C   UNL     1      -2.787  -4.065   5.914  0.00  0.00    +0.005 C 
ENDBRANCH  26  27
ENDBRANCH   3  26
TORSDOF 7
