REMARK  Name = ZINC64083737
REMARK  10 active torsions:
REMARK  status: ('A' for Active; 'I' for Inactive)
REMARK    1  A    between atoms: C_1  and  C_2
REMARK    2  A    between atoms: N_5  and  C_11
REMARK    3  A    between atoms: C_7  and  C_10
REMARK    4  A    between atoms: C_11  and  C_12
REMARK    5  A    between atoms: N_17  and  C_18
REMARK    6  A    between atoms: C_18  and  C_19
REMARK    7  A    between atoms: N_21  and  C_22
REMARK    8  A    between atoms: C_22  and  C_23
REMARK    9  A    between atoms: C_23  and  C_24
REMARK   10  A    between atoms: C_32  and  C_34
REMARK                            x       y       z     vdW  Elec       q    Type
REMARK                         _______ _______ _______ _____ _____    ______ ____
ROOT
ATOM      1  C   UNL     1      -2.628  -4.080  -0.045  0.00  0.00    +0.139 C 
ATOM      2  N   UNL     1      -1.799  -4.386  -1.235  0.00  0.00    -0.331 NA
ATOM      3  N   UNL     1      -0.946  -5.503  -0.801  0.00  0.00    +0.408 N 
ATOM      4  N   UNL     1      -0.635  -5.164   0.597  0.00  0.00    -0.280 NA
ATOM      5  N   UNL     1      -1.877  -4.587   1.122  0.00  0.00    -0.230 NA
ATOM      6  H   UNL     1      -2.376  -4.654  -2.018  0.00  0.00    +0.105 HD
ATOM      7  H   UNL     1      -1.448  -6.376  -0.853  0.00  0.00    -0.032 HD
ATOM      8  H   UNL     1       0.123  -4.500   0.648  0.00  0.00    +0.121 HD
ATOM      9  H   UNL     1      -0.102  -5.542  -1.353  0.00  0.00    -0.032 HD
ENDROOT
BRANCH   1  10
ATOM     10  C   UNL     1      -2.836  -2.570   0.077  0.00  0.00    +0.119 C 
BRANCH  10  14
ATOM     11  C   UNL     1      -4.632   0.844   3.134  0.00  0.00    +0.039 C 
ATOM     12  C   UNL     1      -4.629  -0.642   2.772  0.00  0.00    +0.130 C 
ATOM     13  C   UNL     1      -3.699  -0.875   1.578  0.00  0.00    +0.115 C 
ATOM     14  N   UNL     1      -3.759  -2.291   1.186  0.00  0.00    -0.295 NA
ATOM     15  C   UNL     1      -5.134  -2.677   0.837  0.00  0.00    +0.115 C 
ATOM     16  C   UNL     1      -6.049  -2.426   2.038  0.00  0.00    +0.130 C 
ATOM     17  O   UNL     1      -5.954  -1.052   2.426  0.00  0.00    -0.371 OA
ATOM     18  C   UNL     1      -7.494  -2.751   1.656  0.00  0.00    +0.039 C 
ENDBRANCH  10  14
ENDBRANCH   1  10
BRANCH   5  19
ATOM     19  C   UNL     1      -1.594  -3.506   2.075  0.00  0.00    +0.197 C 
BRANCH  19  20
ATOM     20  C   UNL     1      -0.869  -4.067   3.271  0.00  0.00    +0.228 C 
ATOM     21  O   UNL     1      -0.614  -5.251   3.325  0.00  0.00    -0.274 OA
ATOM     22  N   UNL     1      -0.504  -3.253   4.282  0.00  0.00    -0.314 N 
ATOM     23  H   UNL     1      -0.708  -2.306   4.239  0.00  0.00    +0.149 HD
BRANCH  22  24
ATOM     24  C   UNL     1       0.200  -3.799   5.444  0.00  0.00    +0.108 C 
BRANCH  24  25
ATOM     25  C   UNL     1       0.495  -2.672   6.437  0.00  0.00    +0.052 C 
BRANCH  25  26
ATOM     26  C   UNL     1       1.220  -3.234   7.633  0.00  0.00    -0.037 C 
ATOM     27  C   UNL     1       1.579  -4.522   7.835  0.00  0.00    -0.001 A 
ATOM     28  C   UNL     1       1.407  -5.740   7.034  0.00  0.00    +0.010 A 
ATOM     29  C   UNL     1       1.884  -6.912   7.511  0.00  0.00    +0.001 A 
ATOM     30  C   UNL     1       2.535  -6.993   8.749  0.00  0.00    +0.002 A 
ATOM     31  C   UNL     1       2.730  -5.918   9.543  0.00  0.00    +0.026 A 
ATOM     32  C   UNL     1       2.271  -4.635   9.139  0.00  0.00    +0.043 A 
ATOM     33  N   UNL     1       2.337  -3.461   9.720  0.00  0.00    -0.378 N 
ATOM     34  C   UNL     1       1.699  -2.470   8.847  0.00  0.00    +0.103 C 
ATOM     35  C   UNL     1       0.513  -1.824   9.565  0.00  0.00    +0.035 C 
ATOM     36  H   UNL     1       2.743  -3.279  10.582  0.00  0.00    +0.160 HD
ENDBRANCH  25  26
ENDBRANCH  24  25
ENDBRANCH  22  24
ENDBRANCH  19  20
ENDBRANCH   5  19
TORSDOF 7
