REMARK  Name = ZINC36273487
REMARK  10 active torsions:
REMARK  status: ('A' for Active; 'I' for Inactive)
REMARK    1  A    between atoms: C_1  and  C_2
REMARK    2  A    between atoms: C_2  and  C_3
REMARK    3  A    between atoms: C_3  and  C_4
REMARK    4  A    between atoms: C_4  and  N_5
REMARK    5  A    between atoms: N_5  and  C_6
REMARK    6  A    between atoms: N_5  and  C_7
REMARK    7  A    between atoms: C_7  and  C_8
REMARK    8  A    between atoms: C_9  and  C_18
REMARK    9  A    between atoms: C_14  and  N_17
REMARK   10  A    between atoms: C_27  and  C_29
REMARK                            x       y       z     vdW  Elec       q    Type
REMARK                         _______ _______ _______ _____ _____    ______ ____
ROOT
ATOM      1  C   UNL     1      -4.296  -4.316   0.282  0.00  0.00    +0.035 A 
ATOM      2  C   UNL     1      -4.837  -4.823   1.425  0.00  0.00    +0.091 A 
ATOM      3  N   UNL     1      -5.959  -5.485   1.102  0.00  0.00    -0.228 NA
ATOM      4  C   UNL     1      -6.143  -5.413  -0.209  0.00  0.00    +0.138 A 
ATOM      5  N   UNL     1      -5.118  -4.680  -0.747  0.00  0.00    -0.303 N 
ATOM      6  C   UNL     1      -5.066  -4.445  -2.094  0.00  0.00    +0.115 A 
ATOM      7  C   UNL     1      -6.030  -4.929  -2.914  0.00  0.00    +0.041 A 
ATOM      8  C   UNL     1      -7.097  -5.683  -2.386  0.00  0.00    +0.028 A 
ATOM      9  C   UNL     1      -7.151  -5.928  -1.050  0.00  0.00    +0.048 A 
ENDROOT
BRANCH   2  10
ATOM     10  C   UNL     1      -4.281  -4.670   2.792  0.00  0.00    +0.002 A 
ATOM     11  C   UNL     1      -5.124  -4.374   3.863  0.00  0.00    +0.012 A 
ATOM     12  C   UNL     1      -4.606  -4.233   5.130  0.00  0.00    +0.024 A 
ATOM     13  C   UNL     1      -3.235  -4.385   5.356  0.00  0.00    +0.040 A 
ATOM     14  C   UNL     1      -2.401  -4.679   4.287  0.00  0.00    -0.024 A 
ATOM     15  C   UNL     1      -2.915  -4.827   3.016  0.00  0.00    +0.015 A 
ATOM     16  C   UNL     1      -0.983  -4.789   4.800  0.00  0.00    +0.056 C 
ATOM     17  C   UNL     1      -1.095  -4.521   6.310  0.00  0.00    +0.118 C 
ATOM     18  N   UNL     1      -2.520  -4.283   6.553  0.00  0.00    -0.271 N 
ATOM     19  C   UNL     1      -3.063  -4.006   7.755  0.00  0.00    +0.217 C 
ATOM     20  O   UNL     1      -2.356  -3.939   8.739  0.00  0.00    -0.276 OA
ATOM     21  C   UNL     1      -4.548  -3.780   7.878  0.00  0.00    +0.109 C 
ENDBRANCH   2  10
BRANCH   7  22
ATOM     22  N   UNL     1      -5.965  -4.679  -4.292  0.00  0.00    -0.357 N 
ATOM     23  H   UNL     1      -5.231  -4.161  -4.657  0.00  0.00    +0.142 HD
ATOM     24  H   UNL     1      -6.654  -5.026  -4.880  0.00  0.00    +0.142 HD
ENDBRANCH   7  22
BRANCH   1  25
ATOM     25  C   UNL     1      -3.032  -3.502   0.174  0.00  0.00    -0.022 C 
BRANCH  25  26
ATOM     26  N   UNL     1      -3.331  -2.094   0.466  0.00  0.00    +0.382 N 
ATOM     27  C   UNL     1      -4.227  -1.559  -0.568  0.00  0.00    -0.096 C 
ATOM     28  H   UNL     1      -3.778  -2.025   1.368  0.00  0.00    -0.082 HD
BRANCH  26  29
ATOM     29  C   UNL     1      -2.081  -1.321   0.478  0.00  0.00    -0.079 C 
BRANCH  29  30
ATOM     30  C   UNL     1      -2.377   0.119   0.904  0.00  0.00    -0.019 C 
BRANCH  30  32
ATOM     31  C   UNL     1      -1.371   2.363   1.343  0.00  0.00    +0.004 C 
ATOM     32  C   UNL     1      -1.075   0.924   0.917  0.00  0.00    -0.005 C 
ENDBRANCH  30  32
ENDBRANCH  29  30
ENDBRANCH  26  29
ENDBRANCH  25  26
ENDBRANCH   1  25
TORSDOF 7
