REMARK  Name = ZINC02070857
REMARK  12 active torsions:
REMARK  status: ('A' for Active; 'I' for Inactive)
REMARK    1  A    between atoms: C_1  and  C_2
REMARK    2  A    between atoms: C_2  and  C_3
REMARK    3  A    between atoms: C_3  and  C_4
REMARK    4  A    between atoms: C_4  and  O_5
REMARK    5  A    between atoms: O_5  and  C_6
REMARK    6  A    between atoms: C_6  and  C_8
REMARK    7  A    between atoms: C_9  and  C_27
REMARK    8  A    between atoms: N_10  and  C_26
REMARK    9  A    between atoms: C_14  and  C_16
REMARK   10  A    between atoms: C_18  and  O_24
REMARK   11  A    between atoms: C_19  and  O_23
REMARK   12  A    between atoms: O_24  and  C_25
REMARK                            x       y       z     vdW  Elec       q    Type
REMARK                         _______ _______ _______ _____ _____    ______ ____
ROOT
ATOM      1  C   UNL     1      -1.260   1.849  -0.333  0.00  0.00    +0.078 C 
ATOM      2  C   UNL     1      -2.433   1.182  -0.386  0.00  0.00    +0.024 C 
ATOM      3  N   UNL     1      -3.580   1.804  -0.787  0.00  0.00    -0.262 N 
ATOM      4  C   UNL     1      -3.639   3.092  -1.151  0.00  0.00    +0.307 C 
ATOM      5  O   UNL     1      -4.708   3.558  -1.492  0.00  0.00    -0.252 OA
ATOM      6  N   UNL     1      -2.551   3.887  -1.149  0.00  0.00    -0.288 N 
ATOM      7  C   UNL     1      -1.263   3.312  -0.728  0.00  0.00    +0.144 C 
ATOM      8  C   UNL     1      -4.817   1.019  -0.821  0.00  0.00    +0.139 C 
ATOM      9  C   UNL     1      -2.476  -0.273   0.003  0.00  0.00    +0.061 C 
ATOM     10  H   UNL     1      -2.616   4.818  -1.416  0.00  0.00    +0.151 HD
ENDROOT
BRANCH   7  11
ATOM     11  C   UNL     1      -0.755   4.111   0.445  0.00  0.00    -0.017 A 
ATOM     12  C   UNL     1       0.490   4.710   0.384  0.00  0.00    +0.055 A 
ATOM     13  C   UNL     1       0.957   5.449   1.459  0.00  0.00    +0.163 A 
ATOM     14  C   UNL     1       0.175   5.577   2.604  0.00  0.00    +0.177 A 
ATOM     15  C   UNL     1      -1.069   4.969   2.661  0.00  0.00    +0.086 A 
ATOM     16  C   UNL     1      -1.532   4.237   1.581  0.00  0.00    +0.029 A 
ATOM     17 CL   UNL     1      -2.047   5.126   4.086  0.00  0.00    -0.080 Cl
BRANCH  14  18
ATOM     18  O   UNL     1       0.632   6.297   3.664  0.00  0.00    -0.502 OA
ATOM     19  H   UNL     1       1.135   5.776   4.305  0.00  0.00    +0.292 HD
ENDBRANCH  14  18
BRANCH  13  20
ATOM     20  O   UNL     1       2.179   6.043   1.399  0.00  0.00    -0.491 OA
ATOM     21  C   UNL     1       2.877   5.964   0.155  0.00  0.00    +0.277 C 
ENDBRANCH  13  20
ENDBRANCH   7  11
BRANCH   1  22
ATOM     22  C   UNL     1      -0.071   1.206   0.082  0.00  0.00    +0.339 C 
ATOM     23  O   UNL     1      -0.076   0.013   0.321  0.00  0.00    -0.245 OA
BRANCH  22  24
ATOM     24  O   UNL     1       1.071   1.914   0.207  0.00  0.00    -0.461 OA
BRANCH  24  25
ATOM     25  C   UNL     1       2.209   1.224   0.728  0.00  0.00    +0.232 C 
BRANCH  25  26
ATOM     26  C   UNL     1       3.364   2.211   0.911  0.00  0.00    +0.041 C 
BRANCH  26  28
ATOM     27  C   UNL     1       5.696   2.486   1.765  0.00  0.00    +0.004 C 
ATOM     28  C   UNL     1       4.540   1.499   1.582  0.00  0.00    -0.000 C 
ENDBRANCH  26  28
ENDBRANCH  25  26
ENDBRANCH  24  25
ENDBRANCH  22  24
ENDBRANCH   1  22
TORSDOF 8
