REMARK  Name = ZINC39771295
REMARK  7 active torsions:
REMARK  status: ('A' for Active; 'I' for Inactive)
REMARK    1  A    between atoms: C_1  and  C_2
REMARK    2  A    between atoms: C_4  and  C_24
REMARK    3  A    between atoms: C_7  and  N_8
REMARK    4  A    between atoms: C_12  and  S_15
REMARK    5  A    between atoms: S_15  and  N_18
REMARK    6  A    between atoms: C_24  and  C_26
REMARK    7  A    between atoms: C_24  and  C_28
REMARK                            x       y       z     vdW  Elec       q    Type
REMARK                         _______ _______ _______ _____ _____    ______ ____
ROOT
ATOM      1  C   UNL     1      -0.813   0.476   0.889  0.00  0.00    +0.045 C 
ATOM      2  C   UNL     1      -0.226  -0.904   0.732  0.00  0.00    -0.029 A 
ATOM      3  C   UNL     1      -0.004  -1.421  -0.529  0.00  0.00    +0.011 A 
ATOM      4  C   UNL     1       0.535  -2.686  -0.674  0.00  0.00    -0.008 A 
ATOM      5  C   UNL     1       0.852  -3.439   0.443  0.00  0.00    +0.047 A 
ATOM      6  C   UNL     1       0.632  -2.926   1.708  0.00  0.00    +0.043 A 
ATOM      7  C   UNL     1       0.097  -1.653   1.856  0.00  0.00    +0.037 A 
ATOM      8 CL   UNL     1       1.528  -5.027   0.256  0.00  0.00    -0.083 Cl
ENDROOT
BRANCH   7   9
ATOM      9  N   UNL     1      -0.122  -1.130   3.134  0.00  0.00    -0.299 N 
ATOM     10  C   UNL     1      -0.407  -1.982   4.195  0.00  0.00    +0.123 A 
ATOM     11  C   UNL     1      -0.491  -1.471   5.486  0.00  0.00    +0.046 A 
ATOM     12  C   UNL     1      -0.776  -2.330   6.532  0.00  0.00    +0.033 A 
ATOM     13  C   UNL     1      -0.968  -3.676   6.251  0.00  0.00    +0.124 A 
ATOM     14  C   UNL     1      -0.870  -4.115   4.946  0.00  0.00    +0.141 A 
ATOM     15  N   UNL     1      -0.602  -3.272   3.967  0.00  0.00    -0.238 NA
ATOM     16  H   UNL     1      -0.074  -0.172   3.280  0.00  0.00    +0.154 HD
BRANCH  13  17
ATOM     17  S   UNL     1      -1.333  -4.813   7.547  0.00  0.00    +0.062 S 
ATOM     18  O   UNL     1      -0.927  -6.095   7.088  0.00  0.00    -0.153 OA
ATOM     19  O   UNL     1      -0.829  -4.238   8.745  0.00  0.00    -0.153 OA
BRANCH  17  20
ATOM     20  N   UNL     1      -2.981  -4.865   7.703  0.00  0.00    -0.177 NA
ATOM     21  C   UNL     1      -3.787  -3.997   8.573  0.00  0.00    +0.109 C 
ATOM     22  C   UNL     1      -5.260  -4.425   8.409  0.00  0.00    +0.018 C 
ATOM     23  C   UNL     1      -5.143  -5.881   7.886  0.00  0.00    +0.018 C 
ATOM     24  C   UNL     1      -3.882  -5.786   6.987  0.00  0.00    +0.109 C 
ENDBRANCH  17  20
ENDBRANCH  13  17
ENDBRANCH   7   9
BRANCH   4  25
ATOM     25  C   UNL     1       0.776  -3.247  -2.052  0.00  0.00    +0.153 C 
BRANCH  25  26
ATOM     26  C   UNL     1      -0.545  -3.449  -2.750  0.00  0.00    -0.026 A 
ATOM     27  C   UNL     1      -1.289  -2.354  -3.149  0.00  0.00    +0.006 A 
ATOM     28  C   UNL     1      -2.500  -2.539  -3.789  0.00  0.00    +0.020 A 
ATOM     29  C   UNL     1      -2.967  -3.818  -4.031  0.00  0.00    +0.041 A 
ATOM     30  C   UNL     1      -2.221  -4.913  -3.632  0.00  0.00    +0.020 A 
ATOM     31  C   UNL     1      -1.008  -4.728  -2.997  0.00  0.00    +0.006 A 
ATOM     32 CL   UNL     1      -4.488  -4.051  -4.835  0.00  0.00    -0.084 Cl
ENDBRANCH  25  26
BRANCH  25  33
ATOM     33  C   UNL     1       1.602  -2.307  -2.827  0.00  0.00    +0.075 C 
ATOM     34  N   UNL     1       2.240  -1.582  -3.425  0.00  0.00    -0.196 NA
ENDBRANCH  25  33
ENDBRANCH   4  25
TORSDOF 6
