REMARK  Name = ZINC05639166
REMARK  11 active torsions:
REMARK  status: ('A' for Active; 'I' for Inactive)
REMARK    1  A    between atoms: C_1  and  C_2
REMARK    2  A    between atoms: C_2  and  C_4
REMARK    3  A    between atoms: C_8  and  C_10
REMARK    4  A    between atoms: C_10  and  C_11
REMARK    5  A    between atoms: C_10  and  C_12
REMARK    6  A    between atoms: C_10  and  N_13
REMARK    7  A    between atoms: N_16  and  N_17
REMARK    8  A    between atoms: C_18  and  C_19
REMARK    9  A    between atoms: C_22  and  O_27
REMARK   10  A    between atoms: C_23  and  O_25
REMARK   11  A    between atoms: O_25  and  C_26
REMARK                            x       y       z     vdW  Elec       q    Type
REMARK                         _______ _______ _______ _____ _____    ______ ____
ROOT
ATOM      1  N   UNL     1      -0.011   0.966   0.007  0.00  0.00    -0.289 N 
ATOM      2  C   UNL     1       1.147   1.655   0.000  0.00  0.00    +0.320 C 
ATOM      3  O   UNL     1       1.130   2.871   0.007  0.00  0.00    -0.251 OA
ATOM      4  N   UNL     1       2.323   0.998  -0.015  0.00  0.00    -0.191 N 
ATOM      5  H   UNL     1       0.002  -0.004   0.002  0.00  0.00    +0.151 HD
ATOM      6  H   UNL     1       3.156   1.494  -0.020  0.00  0.00    +0.179 HD
ENDROOT
BRANCH   1   7
ATOM      7  C   UNL     1      -1.290   1.681   0.017  0.00  0.00    +0.056 C 
ATOM      8  C   UNL     1      -1.377   2.553   1.272  0.00  0.00    +0.036 C 
ATOM      9  C   UNL     1      -1.389   2.566  -1.227  0.00  0.00    +0.036 C 
BRANCH   7  14
ATOM     10  C   UNL     1      -3.307  -1.463  -0.587  0.00  0.00    -0.022 A 
ATOM     11  C   UNL     1      -4.516  -1.133   0.028  0.00  0.00    +0.008 A 
ATOM     12  C   UNL     1      -4.667   0.099   0.629  0.00  0.00    +0.001 A 
ATOM     13  C   UNL     1      -3.620   1.005   0.629  0.00  0.00    +0.006 A 
ATOM     14  C   UNL     1      -2.422   0.686   0.017  0.00  0.00    -0.024 A 
ATOM     15  C   UNL     1      -2.258  -0.543  -0.588  0.00  0.00    +0.014 A 
BRANCH  10  17
ATOM     16  C   UNL     1      -3.964  -3.139  -2.442  0.00  0.00    +0.044 C 
ATOM     17  C   UNL     1      -3.138  -2.782  -1.233  0.00  0.00    -0.050 C 
ATOM     18  C   UNL     1      -2.261  -3.650  -0.749  0.00  0.00    +0.012 C 
ENDBRANCH  10  17
ENDBRANCH   7  14
ENDBRANCH   1   7
BRANCH   4  19
ATOM     19  N   UNL     1       2.342  -0.403  -0.022  0.00  0.00    -0.186 NA
ATOM     20  C   UNL     1       3.474  -1.037  -0.037  0.00  0.00    +0.138 C 
BRANCH  20  21
ATOM     21  C   UNL     1       3.494  -2.511  -0.045  0.00  0.00    -0.002 A 
ATOM     22  C   UNL     1       2.295  -3.228  -0.031  0.00  0.00    +0.013 A 
ATOM     23  C   UNL     1       2.316  -4.606  -0.044  0.00  0.00    +0.050 A 
ATOM     24  C   UNL     1       3.526  -5.285  -0.059  0.00  0.00    +0.158 A 
ATOM     25  C   UNL     1       4.726  -4.577  -0.067  0.00  0.00    +0.162 A 
ATOM     26  C   UNL     1       4.713  -3.195  -0.060  0.00  0.00    +0.058 A 
BRANCH  25  27
ATOM     27  O   UNL     1       5.910  -5.246  -0.082  0.00  0.00    -0.491 OA
ATOM     28  C   UNL     1       7.101  -4.456  -0.090  0.00  0.00    +0.277 C 
ENDBRANCH  25  27
BRANCH  24  29
ATOM     29  O   UNL     1       3.541  -6.644  -0.067  0.00  0.00    -0.503 OA
ATOM     30  H   UNL     1       3.553  -7.042   0.815  0.00  0.00    +0.292 HD
ENDBRANCH  24  29
ENDBRANCH  20  21
ENDBRANCH   4  19
TORSDOF 7
