REMARK  Name = ZINC28570463
REMARK  7 active torsions:
REMARK  status: ('A' for Active; 'I' for Inactive)
REMARK    1  A    between atoms: C_1  and  C_2
REMARK    2  A    between atoms: C_6  and  O_9
REMARK    3  A    between atoms: O_9  and  C_10
REMARK    4  A    between atoms: C_11  and  C_29
REMARK    5  A    between atoms: C_12  and  C_25
REMARK    6  A    between atoms: C_18  and  S_21
REMARK    7  A    between atoms: S_21  and  C_24
REMARK                            x       y       z     vdW  Elec       q    Type
REMARK                         _______ _______ _______ _____ _____    ______ ____
ROOT
ATOM      1  C   UNL     1       3.638   0.001   6.238  0.00  0.00    +0.238 A 
ATOM      2  C   UNL     1       4.036  -0.687   7.378  0.00  0.00    +0.145 A 
ATOM      3  C   UNL     1       2.944  -1.493   7.778  0.00  0.00    +0.187 A 
ATOM      4  N   UNL     1       1.963  -1.295   6.942  0.00  0.00    -0.156 NA
ATOM      5  N   UNL     1       2.365  -0.368   5.974  0.00  0.00    -0.180 N 
ATOM      6  C   UNL     1       1.584   0.095   4.912  0.00  0.00    +0.158 A 
ATOM      7  C   UNL     1       0.544  -0.690   4.429  0.00  0.00    +0.050 A 
ATOM      8  C   UNL     1      -0.225  -0.218   3.380  0.00  0.00    +0.032 A 
ATOM      9  C   UNL     1       0.082   1.024   2.841  0.00  0.00    +0.106 A 
ATOM     10  C   UNL     1       1.130   1.751   3.371  0.00  0.00    +0.140 A 
ATOM     11  N   UNL     1       1.842   1.277   4.375  0.00  0.00    -0.234 NA
ENDROOT
BRANCH   9  12
ATOM     12  S   UNL     1      -0.862   1.671   1.500  0.00  0.00    -0.004 S 
ATOM     13  O   UNL     1      -0.735   3.082   1.615  0.00  0.00    -0.170 OA
ATOM     14  O   UNL     1      -2.133   1.046   1.617  0.00  0.00    -0.170 OA
ATOM     15  C   UNL     1      -0.013   1.086   0.008  0.00  0.00    +0.200 C 
ENDBRANCH   9  12
BRANCH   3  16
ATOM     16  C   UNL     1       2.918  -2.419   8.966  0.00  0.00    +0.437 C 
ATOM     17  F   UNL     1       1.713  -3.130   8.978  0.00  0.00    -0.164 F 
ATOM     18  F   UNL     1       3.988  -3.316   8.881  0.00  0.00    -0.164 F 
ATOM     19  F   UNL     1       3.029  -1.671  10.143  0.00  0.00    -0.164 F 
ENDBRANCH   3  16
BRANCH   2  20
ATOM     20  C   UNL     1       5.312  -0.602   8.022  0.00  0.00    +0.107 C 
ATOM     21  N   UNL     1       6.324  -0.535   8.533  0.00  0.00    -0.191 NA
ENDBRANCH   2  20
BRANCH   1  22
ATOM     22  O   UNL     1       4.386   0.878   5.527  0.00  0.00    -0.472 OA
BRANCH  22  27
ATOM     23  C   UNL     1       6.076   5.133   4.381  0.00  0.00    +0.007 C 
ATOM     24  C   UNL     1       5.255   4.462   5.484  0.00  0.00    -0.010 C 
ATOM     25  C   UNL     1       3.760   4.490   5.119  0.00  0.00    +0.007 C 
ATOM     26  C   UNL     1       3.300   3.020   5.034  0.00  0.00    +0.045 C 
ATOM     27  C   UNL     1       4.317   2.252   5.914  0.00  0.00    +0.175 C 
ATOM     28  C   UNL     1       5.651   2.976   5.607  0.00  0.00    +0.048 C 
ENDBRANCH  22  27
ENDBRANCH   1  22
TORSDOF 5
