REMARK  Name = ZINC26146547
REMARK  9 active torsions:
REMARK  status: ('A' for Active; 'I' for Inactive)
REMARK    1  A    between atoms: C_1  and  C_2
REMARK    2  A    between atoms: N_5  and  C_11
REMARK    3  A    between atoms: C_7  and  C_10
REMARK    4  A    between atoms: C_11  and  C_12
REMARK    5  A    between atoms: C_12  and  N_13
REMARK    6  A    between atoms: N_13  and  C_14
REMARK    7  A    between atoms: C_17  and  S_23
REMARK    8  A    between atoms: C_19  and  N_20
REMARK    9  A    between atoms: S_23  and  C_26
REMARK                            x       y       z     vdW  Elec       q    Type
REMARK                         _______ _______ _______ _____ _____    ______ ____
ROOT
ATOM      1  C   UNL     1       1.193   1.811   0.053  0.00  0.00    +0.058 A 
ATOM      2  C   UNL     1       0.020   1.103   0.285  0.00  0.00    +0.027 A 
ATOM      3  C   UNL     1      -1.197   1.754   0.241  0.00  0.00    +0.029 A 
ATOM      4  C   UNL     1      -1.249   3.111  -0.022  0.00  0.00    +0.090 A 
ATOM      5  C   UNL     1      -0.083   3.818  -0.254  0.00  0.00    +0.061 A 
ATOM      6  C   UNL     1       1.137   3.172  -0.217  0.00  0.00    +0.149 A 
ENDROOT
BRANCH   4   7
ATOM      7  S   UNL     1      -2.803   3.939  -0.070  0.00  0.00    -0.006 S 
ATOM      8  O   UNL     1      -3.652   3.165   0.767  0.00  0.00    -0.170 OA
ATOM      9  O   UNL     1      -2.505   5.290   0.252  0.00  0.00    -0.170 OA
ATOM     10  C   UNL     1      -3.346   3.813  -1.796  0.00  0.00    +0.200 C 
ENDBRANCH   4   7
BRANCH   6  11
ATOM     11  N   UNL     1       2.384   3.929  -0.465  0.00  0.00    +0.058 N 
ATOM     12  O   UNL     1       2.498   5.068  -0.048  0.00  0.00    -0.126 OA
ATOM     13  O   UNL     1       3.296   3.415  -1.088  0.00  0.00    -0.126 OA
ENDBRANCH   6  11
BRANCH   1  14
ATOM     14  N   UNL     1       2.425   1.154   0.091  0.00  0.00    -0.341 N 
ATOM     15  H   UNL     1       3.358   1.731   0.003  0.00  0.00    +0.146 HD
BRANCH  14  16
ATOM     16  C   UNL     1       2.475  -0.301   0.248  0.00  0.00    +0.117 C 
BRANCH  16  17
ATOM     17  C   UNL     1       3.934  -0.763   0.259  0.00  0.00    +0.103 C 
BRANCH  17  21
ATOM     18  C   UNL     1       4.459  -4.849  -0.791  0.00  0.00    +0.039 C 
ATOM     19  C   UNL     1       5.341  -4.257   0.309  0.00  0.00    +0.130 C 
ATOM     20  C   UNL     1       5.346  -2.730   0.195  0.00  0.00    +0.115 C 
ATOM     21  N   UNL     1       3.984  -2.223   0.416  0.00  0.00    -0.296 NA
ATOM     22  C   UNL     1       3.486  -2.628   1.739  0.00  0.00    +0.115 C 
ATOM     23  C   UNL     1       3.500  -4.155   1.838  0.00  0.00    +0.130 C 
ATOM     24  O   UNL     1       4.825  -4.632   1.589  0.00  0.00    -0.371 OA
ATOM     25  C   UNL     1       3.058  -4.581   3.239  0.00  0.00    +0.039 C 
ENDBRANCH  17  21
ENDBRANCH  16  17
ENDBRANCH  14  16
ENDBRANCH   1  14
TORSDOF 6
