REMARK  Name = ZINC13592312
REMARK  6 active torsions:
REMARK  status: ('A' for Active; 'I' for Inactive)
REMARK    1  A    between atoms: C_1  and  C_2
REMARK    2  A    between atoms: C_5  and  C_35
REMARK    3  A    between atoms: N_8  and  S_10
REMARK    4  A    between atoms: S_10  and  C_13
REMARK    5  A    between atoms: C_16  and  C_19
REMARK    6  A    between atoms: C_19  and  C_21
REMARK                            x       y       z     vdW  Elec       q    Type
REMARK                         _______ _______ _______ _____ _____    ______ ____
ROOT
ATOM      1  C   UNL     1       2.509  -3.318  -0.236  0.00  0.00    +0.106 A 
ATOM      2  C   UNL     1       1.895  -4.310  -0.981  0.00  0.00    +0.029 A 
ATOM      3  C   UNL     1       2.294  -4.547  -2.280  0.00  0.00    +0.013 A 
ATOM      4  C   UNL     1       3.318  -3.784  -2.843  0.00  0.00    +0.022 A 
ATOM      5  C   UNL     1       3.933  -2.786  -2.087  0.00  0.00    +0.013 A 
ATOM      6  C   UNL     1       3.521  -2.555  -0.790  0.00  0.00    +0.029 A 
ENDROOT
BRANCH   1   7
ATOM      7  S   UNL     1       1.995  -3.022   1.423  0.00  0.00    +0.061 S 
ATOM      8  O   UNL     1       3.091  -2.404   2.083  0.00  0.00    -0.153 OA
ATOM      9  O   UNL     1       1.407  -4.229   1.888  0.00  0.00    -0.153 OA
BRANCH   7  15
ATOM     10  C   UNL     1       0.636   1.755   0.372  0.00  0.00    +0.009 C 
ATOM     11  C   UNL     1       0.443   0.243   0.241  0.00  0.00    +0.002 C 
ATOM     12  C   UNL     1      -1.053  -0.080   0.208  0.00  0.00    +0.009 C 
ATOM     13  C   UNL     1      -1.247  -1.589   0.044  0.00  0.00    +0.002 C 
ATOM     14  C   UNL     1      -0.622  -2.314   1.240  0.00  0.00    +0.112 C 
ATOM     15  N   UNL     1       0.781  -1.896   1.365  0.00  0.00    -0.176 NA
ATOM     16  C   UNL     1       1.088  -0.461   1.439  0.00  0.00    +0.112 C 
ATOM     17  C   UNL     1      -0.569  -2.054  -1.247  0.00  0.00    +0.009 C 
ENDBRANCH   7  15
ENDBRANCH   1   7
BRANCH   4  18
ATOM     18  C   UNL     1       3.750  -4.034  -4.237  0.00  0.00    +0.188 C 
ATOM     19  O   UNL     1       3.212  -4.907  -4.895  0.00  0.00    -0.287 OA
BRANCH  18  20
ATOM     20  C   UNL     1       4.782  -3.264  -4.801  0.00  0.00    +0.075 C 
ATOM     21  C   UNL     1       5.290  -3.594  -6.038  0.00  0.00    +0.038 C 
ATOM     22  C   UNL     1       5.363  -4.998  -6.500  0.00  0.00    +0.003 A 
ATOM     23  C   UNL     1       5.058  -6.038  -5.619  0.00  0.00    +0.059 A 
ATOM     24  C   UNL     1       5.120  -7.347  -6.056  0.00  0.00    +0.167 A 
ATOM     25  C   UNL     1       5.485  -7.624  -7.374  0.00  0.00    +0.167 A 
ATOM     26  C   UNL     1       5.789  -6.588  -8.245  0.00  0.00    +0.054 A 
ATOM     27  C   UNL     1       5.735  -5.275  -7.817  0.00  0.00    -0.033 A 
ATOM     28  C   UNL     1       6.089  -4.172  -8.779  0.00  0.00    +0.054 C 
ATOM     29  C   UNL     1       5.467  -2.846  -8.342  0.00  0.00    +0.106 C 
ATOM     30  N   UNL     1       5.755  -2.627  -6.918  0.00  0.00    -0.343 N 
ATOM     31  O   UNL     1       5.468  -8.976  -7.554  0.00  0.00    -0.453 OA
ATOM     32  C   UNL     1       5.491  -9.542  -6.231  0.00  0.00    +0.466 C 
ATOM     33  O   UNL     1       4.878  -8.527  -5.413  0.00  0.00    -0.453 OA
ATOM     34  H   UNL     1       6.245  -1.848  -6.611  0.00  0.00    +0.146 HD
ENDBRANCH  18  20
ENDBRANCH   4  18
TORSDOF 4
