REMARK  Name = ZINC02969657
REMARK  13 active torsions:
REMARK  status: ('A' for Active; 'I' for Inactive)
REMARK    1  A    between atoms: C_1  and  C_2
REMARK    2  A    between atoms: C_2  and  C_3
REMARK    3  A    between atoms: C_3  and  C_5
REMARK    4  A    between atoms: C_3  and  S_16
REMARK    5  A    between atoms: N_7  and  C_8
REMARK    6  A    between atoms: C_8  and  C_9
REMARK    7  A    between atoms: C_12  and  C_15
REMARK    8  A    between atoms: S_16  and  C_17
REMARK    9  A    between atoms: C_28  and  C_30
REMARK   10  A    between atoms: C_30  and  C_31
REMARK   11  A    between atoms: C_31  and  C_32
REMARK   12  A    between atoms: C_33  and  C_39
REMARK   13  A    between atoms: C_37  and  C_38
REMARK                            x       y       z     vdW  Elec       q    Type
REMARK                         _______ _______ _______ _____ _____    ______ ____
ROOT
ATOM      1  C   UNL     1      -1.592   3.680  -3.958  0.00  0.00    +0.193 A 
ATOM      2  N   UNL     1      -2.560   3.597  -4.835  0.00  0.00    -0.222 NA
ATOM      3  C   UNL     1      -3.399   2.534  -4.879  0.00  0.00    +0.077 A 
ATOM      4  C   UNL     1      -4.429   2.458  -5.820  0.00  0.00    +0.028 A 
ATOM      5  C   UNL     1      -5.258   1.372  -5.836  0.00  0.00    +0.002 A 
ATOM      6  C   UNL     1      -5.094   0.336  -4.926  0.00  0.00    +0.001 A 
ATOM      7  C   UNL     1      -4.087   0.382  -3.986  0.00  0.00    +0.014 A 
ATOM      8  C   UNL     1      -3.231   1.480  -3.952  0.00  0.00    +0.045 A 
ATOM      9  C   UNL     1      -2.141   1.589  -2.976  0.00  0.00    +0.168 A 
ATOM     10  N   UNL     1      -1.354   2.708  -3.024  0.00  0.00    -0.188 N 
ATOM     11  N   UNL     1      -0.409   2.558  -2.001  0.00  0.00    -0.148 NA
ATOM     12  C   UNL     1      -0.656   1.414  -1.413  0.00  0.00    +0.152 A 
ATOM     13  N   UNL     1      -1.694   0.827  -2.001  0.00  0.00    -0.211 NA
ENDROOT
BRANCH   1  14
ATOM     14  S   UNL     1      -0.552   5.102  -3.980  0.00  0.00    -0.073 S 
BRANCH  14  15
ATOM     15  C   UNL     1      -1.210   5.949  -5.438  0.00  0.00    +0.140 C 
BRANCH  15  16
ATOM     16  C   UNL     1      -2.600   6.452  -5.142  0.00  0.00    +0.227 C 
ATOM     17  O   UNL     1      -2.932   6.678  -3.997  0.00  0.00    -0.275 OA
ATOM     18  N   UNL     1      -3.473   6.652  -6.149  0.00  0.00    -0.310 N 
ATOM     19  H   UNL     1      -3.207   6.472  -7.064  0.00  0.00    +0.149 HD
BRANCH  18  20
ATOM     20  C   UNL     1      -4.824   7.141  -5.861  0.00  0.00    +0.139 C 
BRANCH  20  21
ATOM     21  C   UNL     1      -5.593   7.278  -7.150  0.00  0.00    -0.030 A 
ATOM     22  C   UNL     1      -5.566   8.471  -7.848  0.00  0.00    +0.005 A 
ATOM     23  C   UNL     1      -6.268   8.595  -9.032  0.00  0.00    +0.003 A 
ATOM     24  C   UNL     1      -7.006   7.529  -9.513  0.00  0.00    -0.050 A 
ATOM     25  C   UNL     1      -7.037   6.338  -8.812  0.00  0.00    +0.003 A 
ATOM     26  C   UNL     1      -6.331   6.213  -7.630  0.00  0.00    +0.005 A 
ATOM     27  C   UNL     1      -7.776   7.666 -10.801  0.00  0.00    +0.044 C 
ENDBRANCH  20  21
ENDBRANCH  18  20
ENDBRANCH  15  16
BRANCH  15  29
ATOM     28  C   UNL     1       1.066   6.610  -6.229  0.00  0.00    +0.005 C 
ATOM     29  C   UNL     1      -0.305   7.131  -5.793  0.00  0.00    +0.020 C 
ENDBRANCH  15  29
ENDBRANCH  14  15
ENDBRANCH   1  14
BRANCH  12  30
ATOM     30  C   UNL     1       0.120   0.847  -0.252  0.00  0.00    +0.083 C 
BRANCH  30  31
ATOM     31  C   UNL     1      -0.508   1.320   1.061  0.00  0.00    +0.046 C 
BRANCH  31  32
ATOM     32  C   UNL     1       0.268   0.753   2.222  0.00  0.00    -0.004 A 
ATOM     33  C   UNL     1       1.329   1.334   2.829  0.00  0.00    +0.036 A 
ATOM     34  N   UNL     1       1.737   0.511   3.819  0.00  0.00    -0.281 N 
ATOM     35  H   UNL     1       2.502   0.674   4.441  0.00  0.00    +0.189 HD
ATOM     36  N   UNL     1       0.899  -0.611   3.819  0.00  0.00    -0.179 NA
ATOM     37  C   UNL     1       0.015  -0.462   2.866  0.00  0.00    +0.063 A 
ATOM     38  C   UNL     1      -1.082  -1.435   2.518  0.00  0.00    +0.068 C 
ATOM     39  C   UNL     1       1.945   2.660   2.466  0.00  0.00    +0.065 C 
ENDBRANCH  31  32
ENDBRANCH  30  31
ENDBRANCH  12  30
TORSDOF 9
