REMARK  Name = ZINC40018064
REMARK  9 active torsions:
REMARK  status: ('A' for Active; 'I' for Inactive)
REMARK    1  A    between atoms: C_1  and  C_2
REMARK    2  A    between atoms: C_2  and  N_3
REMARK    3  A    between atoms: N_3  and  C_4
REMARK    4  A    between atoms: N_3  and  S_10
REMARK    5  A    between atoms: S_10  and  C_13
REMARK    6  A    between atoms: C_16  and  N_22
REMARK    7  A    between atoms: C_17  and  N_19
REMARK    8  A    between atoms: C_28  and  N_32
REMARK    9  A    between atoms: C_29  and  C_30
REMARK                            x       y       z     vdW  Elec       q    Type
REMARK                         _______ _______ _______ _____ _____    ______ ____
ROOT
ATOM      1  C   UNL     1      -2.741  -1.627   2.123  0.00  0.00    +0.111 A 
ATOM      2  C   UNL     1      -2.752  -0.789   3.224  0.00  0.00    +0.031 A 
ATOM      3  C   UNL     1      -3.877  -0.708   4.020  0.00  0.00    +0.027 A 
ATOM      4  C   UNL     1      -4.999  -1.470   3.715  0.00  0.00    +0.061 A 
ATOM      5  C   UNL     1      -4.984  -2.310   2.609  0.00  0.00    +0.149 A 
ATOM      6  C   UNL     1      -3.857  -2.382   1.814  0.00  0.00    +0.063 A 
ENDROOT
BRANCH   4   7
ATOM      7  N   UNL     1      -6.138  -1.391   4.519  0.00  0.00    -0.323 N 
ATOM      8  C   UNL     1      -6.317  -2.279   5.677  0.00  0.00    +0.110 C 
ATOM      9  C   UNL     1      -6.333  -1.449   6.963  0.00  0.00    +0.056 C 
ATOM     10  C   UNL     1      -7.268  -0.263   6.778  0.00  0.00    -0.015 A 
ATOM     11  C   UNL     1      -7.630   0.170   5.551  0.00  0.00    +0.013 A 
ATOM     12  S   UNL     1      -8.699   1.545   5.854  0.00  0.00    -0.076 S 
ATOM     13  C   UNL     1      -8.681   1.558   7.533  0.00  0.00    +0.081 A 
ATOM     14  C   UNL     1      -7.848   0.502   7.870  0.00  0.00    +0.083 A 
ATOM     15  C   UNL     1      -7.205  -0.408   4.239  0.00  0.00    +0.147 C 
BRANCH  13  16
ATOM     16  N   UNL     1      -9.344   2.424   8.384  0.00  0.00    -0.352 N 
ATOM     17  H   UNL     1      -9.902   3.129   8.021  0.00  0.00    +0.143 HD
ATOM     18  H   UNL     1      -9.250   2.326   9.345  0.00  0.00    +0.143 HD
ENDBRANCH  13  16
BRANCH  14  19
ATOM     19  C   UNL     1      -7.572   0.177   9.237  0.00  0.00    +0.102 C 
ATOM     20  N   UNL     1      -7.353  -0.080  10.322  0.00  0.00    -0.191 NA
ENDBRANCH  14  19
ENDBRANCH   4   7
BRANCH   1  21
ATOM     21  S   UNL     1      -1.303  -1.726   1.109  0.00  0.00    +0.075 S 
ATOM     22  O   UNL     1      -1.433  -2.911   0.336  0.00  0.00    -0.150 OA
ATOM     23  O   UNL     1      -0.189  -1.490   1.960  0.00  0.00    -0.150 OA
BRANCH  21  24
ATOM     24  N   UNL     1      -1.365  -0.458   0.047  0.00  0.00    -0.203 N 
BRANCH  24  25
ATOM     25  C   UNL     1      -1.879  -0.647  -1.238  0.00  0.00    +0.051 A 
ATOM     26  C   UNL     1      -3.236  -0.889  -1.415  0.00  0.00    +0.025 A 
ATOM     27  C   UNL     1      -3.742  -1.075  -2.687  0.00  0.00    +0.002 A 
ATOM     28  C   UNL     1      -2.900  -1.022  -3.782  0.00  0.00    +0.000 A 
ATOM     29  C   UNL     1      -1.549  -0.782  -3.609  0.00  0.00    +0.002 A 
ATOM     30  C   UNL     1      -1.037  -0.589  -2.341  0.00  0.00    +0.025 A 
ENDBRANCH  24  25
BRANCH  24  32
ATOM     31  C   UNL     1      -2.053   1.705   0.959  0.00  0.00    +0.026 C 
ATOM     32  C   UNL     1      -0.879   0.863   0.454  0.00  0.00    +0.128 C 
ENDBRANCH  24  32
ENDBRANCH  21  24
ENDBRANCH   1  21
BRANCH   5  33
ATOM     33  N   UNL     1      -6.176  -3.123   2.280  0.00  0.00    +0.058 N 
ATOM     34  O   UNL     1      -6.162  -3.854   1.317  0.00  0.00    -0.126 OA
ATOM     35  O   UNL     1      -7.163  -3.056   2.974  0.00  0.00    -0.126 OA
ENDBRANCH   5  33
TORSDOF 8
