REMARK  Name = ZINC01435295
REMARK  7 active torsions:
REMARK  status: ('A' for Active; 'I' for Inactive)
REMARK    1  A    between atoms: C_3  and  C_7
REMARK    2  A    between atoms: N_9  and  N_10
REMARK    3  A    between atoms: C_11  and  C_12
REMARK    4  A    between atoms: C_14  and  N_29
REMARK    5  A    between atoms: C_17  and  O_18
REMARK    6  A    between atoms: O_18  and  C_19
REMARK    7  A    between atoms: C_19  and  C_21
REMARK                            x       y       z     vdW  Elec       q    Type
REMARK                         _______ _______ _______ _____ _____    ______ ____
ROOT
ATOM      1  C   UNL     1       8.462   1.960  -0.070  0.00  0.00    +0.040 A 
ATOM      2  C   UNL     1       9.646   1.219  -0.091  0.00  0.00    +0.046 A 
ATOM      3  C   UNL     1      10.863   1.869  -0.099  0.00  0.00    +0.128 A 
ATOM      4  C   UNL     1      10.916   3.252  -0.087  0.00  0.00    +0.051 A 
ATOM      5  C   UNL     1       9.751   3.997  -0.066  0.00  0.00    +0.063 A 
ATOM      6  C   UNL     1       8.520   3.360  -0.063  0.00  0.00    +0.155 A 
ATOM      7 BR   UNL     1       9.838   5.885  -0.048  0.00  0.00    -0.046 Br
ENDROOT
BRANCH   3   8
ATOM      8  N   UNL     1      12.117   1.083  -0.121  0.00  0.00    +0.056 N 
ATOM      9  O   UNL     1      12.073  -0.125  -0.131  0.00  0.00    -0.126 OA
ATOM     10  O   UNL     1      13.185   1.649  -0.129  0.00  0.00    -0.126 OA
ENDBRANCH   3   8
BRANCH   1  12
ATOM     11  N   UNL     1       6.060   1.964  -0.046  0.00  0.00    -0.187 NA
ATOM     12  C   UNL     1       7.158   1.272  -0.060  0.00  0.00    +0.142 C 
BRANCH  11  15
ATOM     13  C   UNL     1       3.680   2.028  -0.023  0.00  0.00    +0.265 C 
ATOM     14  O   UNL     1       3.726   3.243  -0.017  0.00  0.00    -0.268 OA
ATOM     15  N   UNL     1       4.820   1.310  -0.037  0.00  0.00    -0.203 N 
ATOM     16  H   UNL     1       4.783   0.341  -0.042  0.00  0.00    +0.178 HD
BRANCH  13  19
ATOM     17  C   UNL     1      -0.017   1.379   0.010  0.00  0.00    +0.020 A 
ATOM     18  C   UNL     1       1.181   2.073   0.002  0.00  0.00    +0.016 A 
ATOM     19  C   UNL     1       2.373   1.339  -0.013  0.00  0.00    +0.056 A 
ATOM     20  C   UNL     1       2.306  -0.056  -0.020  0.00  0.00    +0.123 A 
ATOM     21  N   UNL     1       1.141  -0.670  -0.013  0.00  0.00    -0.263 NA
ATOM     22  C   UNL     1       0.002  -0.004   0.002  0.00  0.00    +0.111 A 
ENDBRANCH  13  19
ENDBRANCH  11  15
ENDBRANCH   1  12
BRANCH   6  23
ATOM     23  O   UNL     1       7.374   4.090  -0.049  0.00  0.00    -0.421 OA
BRANCH  23  24
ATOM     24  C   UNL     1       6.852   4.424   1.147  0.00  0.00    +0.344 C 
ATOM     25  O   UNL     1       7.405   4.073   2.171  0.00  0.00    -0.245 OA
BRANCH  24  26
ATOM     26  C   UNL     1       5.608   5.217   1.215  0.00  0.00    +0.059 A 
ATOM     27  C   UNL     1       4.968   5.617   0.040  0.00  0.00    +0.016 A 
ATOM     28  C   UNL     1       3.807   6.358   0.110  0.00  0.00    +0.016 A 
ATOM     29  C   UNL     1       3.276   6.705   1.341  0.00  0.00    +0.018 A 
ATOM     30  C   UNL     1       3.906   6.311   2.509  0.00  0.00    +0.016 A 
ATOM     31  C   UNL     1       5.064   5.565   2.453  0.00  0.00    +0.016 A 
ATOM     32 BR   UNL     1       1.683   7.721   1.427  0.00  0.00    -0.050 Br
ENDBRANCH  24  26
ENDBRANCH  23  24
ENDBRANCH   6  23
TORSDOF 7
