REMARK  Name = ZINC52594542
REMARK  5 active torsions:
REMARK  status: ('A' for Active; 'I' for Inactive)
REMARK    1  A    between atoms: C_15  and  C_17
REMARK    2  A    between atoms: C_17  and  C_19
REMARK    3  A    between atoms: C_17  and  N_29
REMARK    4  A    between atoms: C_19  and  C_20
REMARK    5  A    between atoms: N_32  and  C_33
REMARK                            x       y       z     vdW  Elec       q    Type
REMARK                         _______ _______ _______ _____ _____    ______ ____
ROOT
ATOM      1  C   UNL     1       8.139  -1.664   2.024  0.00  0.00    +0.165 C 
ENDROOT
BRANCH   1  16
ATOM      2  C   UNL     1       1.856   3.671  -1.179  0.00  0.00    +0.000 A 
ATOM      3  C   UNL     1       3.198   3.958  -1.012  0.00  0.00    +0.000 A 
ATOM      4  C   UNL     1       4.105   2.932  -0.834  0.00  0.00    +0.004 A 
ATOM      5  C   UNL     1       3.676   1.615  -0.819  0.00  0.00    -0.038 A 
ATOM      6  C   UNL     1       2.333   1.329  -0.983  0.00  0.00    -0.044 A 
ATOM      7  C   UNL     1       1.425   2.359  -1.163  0.00  0.00    +0.004 A 
ATOM      8  C   UNL     1       2.118  -0.169  -0.925  0.00  0.00    +0.036 C 
ATOM      9  C   UNL     1       3.516  -0.787  -1.146  0.00  0.00    +0.016 C 
ATOM     10  C   UNL     1       4.451   0.331  -0.647  0.00  0.00    -0.001 C 
ATOM     11  C   UNL     1       5.721   0.362  -1.493  0.00  0.00    +0.030 C 
ATOM     12  C   UNL     1       6.458  -0.975  -1.353  0.00  0.00    +0.108 C 
ATOM     13  N   UNL     1       6.675  -1.247   0.074  0.00  0.00    -0.300 N 
ATOM     14  C   UNL     1       5.519  -1.230   0.982  0.00  0.00    +0.108 C 
ATOM     15  C   UNL     1       4.790   0.108   0.824  0.00  0.00    +0.030 C 
ATOM     16  C   UNL     1       7.911  -1.509   0.542  0.00  0.00    +0.236 C 
ATOM     17  O   UNL     1       8.841  -1.620  -0.229  0.00  0.00    -0.274 OA
ENDBRANCH   1  16
BRANCH   1  18
ATOM     18  N   UNL     1       9.571  -1.561   2.312  0.00  0.00    -0.288 N 
ATOM     19  C   UNL     1       9.987  -1.122   3.517  0.00  0.00    +0.300 C 
ATOM     20  O   UNL     1       9.173  -0.812   4.364  0.00  0.00    -0.253 OA
ATOM     21  N   UNL     1      11.305  -1.027   3.781  0.00  0.00    -0.298 N 
ATOM     22  H   UNL     1      10.221  -1.809   1.635  0.00  0.00    +0.151 HD
ATOM     23  H   UNL     1      11.954  -1.275   3.105  0.00  0.00    +0.150 HD
BRANCH  21  24
ATOM     24  C   UNL     1      11.757  -0.550   5.091  0.00  0.00    +0.061 C 
ATOM     25  C   UNL     1      11.800  -1.720   6.076  0.00  0.00    -0.056 C 
ATOM     26  N   UNL     1      13.163  -1.901   6.581  0.00  0.00    +0.381 N 
ATOM     27  C   UNL     1      14.081  -2.216   5.485  0.00  0.00    -0.078 C 
ATOM     28  C   UNL     1      14.114  -1.063   4.479  0.00  0.00    -0.014 C 
ATOM     29  C   UNL     1      13.165   0.045   4.963  0.00  0.00    +0.004 C 
ATOM     30  C   UNL     1      13.625   0.502   6.354  0.00  0.00    -0.014 C 
ATOM     31  C   UNL     1      13.609  -0.705   7.300  0.00  0.00    -0.078 C 
ATOM     32  H   UNL     1      13.165  -2.679   7.224  0.00  0.00    -0.082 HD
ENDBRANCH  21  24
ENDBRANCH   1  18
BRANCH   1  33
ATOM     33  C   UNL     1       7.624  -3.032   2.479  0.00  0.00    +0.065 C 
BRANCH  33  34
ATOM     34  C   UNL     1       8.379  -4.118   1.757  0.00  0.00    -0.039 C 
ATOM     35  C   UNL     1       9.461  -4.793   2.208  0.00  0.00    -0.001 A 
ATOM     36  C   UNL     1      10.229  -4.721   3.456  0.00  0.00    +0.010 A 
ATOM     37  C   UNL     1      11.289  -5.545   3.623  0.00  0.00    +0.001 A 
ATOM     38  C   UNL     1      11.671  -6.464   2.636  0.00  0.00    +0.002 A 
ATOM     39  C   UNL     1      11.014  -6.588   1.462  0.00  0.00    +0.026 A 
ATOM     40  C   UNL     1       9.885  -5.772   1.181  0.00  0.00    +0.043 A 
ATOM     41  N   UNL     1       9.096  -5.704   0.136  0.00  0.00    -0.380 N 
ATOM     42  C   UNL     1       8.078  -4.677   0.385  0.00  0.00    +0.144 C 
ATOM     43  H   UNL     1       9.170  -6.245  -0.666  0.00  0.00    +0.160 HD
ENDBRANCH  33  34
ENDBRANCH   1  33
TORSDOF 5
