REMARK  Name = ZINC66349470
REMARK  7 active torsions:
REMARK  status: ('A' for Active; 'I' for Inactive)
REMARK    1  A    between atoms: C_3  and  S_6
REMARK    2  A    between atoms: S_6  and  N_9
REMARK    3  A    between atoms: N_9  and  C_10
REMARK    4  A    between atoms: N_13  and  C_16
REMARK    5  A    between atoms: C_16  and  C_17
REMARK    6  A    between atoms: C_17  and  C_19
REMARK    7  A    between atoms: C_17  and  O_26
REMARK                            x       y       z     vdW  Elec       q    Type
REMARK                         _______ _______ _______ _____ _____    ______ ____
ROOT
ATOM      1  C   UNL     1       4.376   0.614   2.250  0.00  0.00    +0.073 C 
ATOM      2  C   UNL     1       3.131   0.478   3.131  0.00  0.00    +0.002 C 
ATOM      3  C   UNL     1       3.356  -0.636   4.155  0.00  0.00    -0.077 C 
ATOM      4  N   UNL     1       4.516  -0.310   4.993  0.00  0.00    +0.382 N 
ATOM      5  C   UNL     1       5.727  -0.249   4.165  0.00  0.00    -0.077 C 
ATOM      6  C   UNL     1       5.593   0.881   3.141  0.00  0.00    +0.002 C 
ATOM      7  H   UNL     1       4.368   0.584   5.436  0.00  0.00    -0.082 HD
ENDROOT
BRANCH   1   8
ATOM      8  N   UNL     1       4.198   1.730   1.318  0.00  0.00    -0.187 NA
ATOM      9  H   UNL     1       4.406   2.635   1.599  0.00  0.00    +0.148 HD
BRANCH   8  10
ATOM     10  S   UNL     1       3.641   1.446  -0.216  0.00  0.00    +0.065 S 
ATOM     11  O   UNL     1       4.420   0.380  -0.740  0.00  0.00    -0.153 OA
ATOM     12  O   UNL     1       3.551   2.711  -0.856  0.00  0.00    -0.153 OA
BRANCH  10  15
ATOM     13  C   UNL     1      -0.361   0.836   0.081  0.00  0.00    +0.010 A 
ATOM     14  C   UNL     1       0.828   1.530  -0.045  0.00  0.00    +0.036 A 
ATOM     15  C   UNL     1       1.993   0.839  -0.068  0.00  0.00    +0.142 A 
ATOM     16  S   UNL     1       1.426  -0.847   0.091  0.00  0.00    -0.077 S 
ATOM     17  C   UNL     1      -0.326  -0.515   0.177  0.00  0.00    +0.047 A 
ENDBRANCH  10  15
ENDBRANCH   8  10
ENDBRANCH   1   8
BRANCH   4  18
ATOM     18  C   UNL     1       4.681  -1.344   6.023  0.00  0.00    -0.042 C 
BRANCH  18  19
ATOM     19  C   UNL     1       3.491  -1.301   6.983  0.00  0.00    +0.128 C 
BRANCH  19  20
ATOM     20  C   UNL     1       3.657  -2.365   8.037  0.00  0.00    -0.021 A 
ATOM     21  C   UNL     1       4.404  -2.105   9.170  0.00  0.00    +0.009 A 
ATOM     22  C   UNL     1       4.557  -3.080  10.137  0.00  0.00    +0.039 A 
ATOM     23  C   UNL     1       3.961  -4.319   9.971  0.00  0.00    +0.123 A 
ATOM     24  C   UNL     1       3.213  -4.579   8.835  0.00  0.00    +0.039 A 
ATOM     25  C   UNL     1       3.057  -3.600   7.872  0.00  0.00    +0.009 A 
ATOM     26  F   UNL     1       4.110  -5.273  10.915  0.00  0.00    -0.205 F 
ENDBRANCH  19  20
BRANCH  19  27
ATOM     27  O   UNL     1       3.429  -0.017   7.609  0.00  0.00    -0.389 OA
ATOM     28  H   UNL     1       4.217   0.209   8.121  0.00  0.00    +0.210 HD
ENDBRANCH  19  27
ENDBRANCH  18  19
ENDBRANCH   4  18
TORSDOF 7
