REMARK  Name = ZINC59910004
REMARK  11 active torsions:
REMARK  status: ('A' for Active; 'I' for Inactive)
REMARK    1  A    between atoms: C_1  and  C_2
REMARK    2  A    between atoms: C_2  and  C_3
REMARK    3  A    between atoms: C_2  and  C_4
REMARK    4  A    between atoms: C_7  and  S_15
REMARK    5  A    between atoms: N_8  and  C_9
REMARK    6  A    between atoms: S_15  and  C_16
REMARK    7  A    between atoms: C_16  and  C_17
REMARK    8  A    between atoms: N_19  and  C_20
REMARK    9  A    between atoms: C_23  and  S_26
REMARK   10  A    between atoms: S_26  and  N_29
REMARK   11  A    between atoms: N_29  and  C_30
REMARK                            x       y       z     vdW  Elec       q    Type
REMARK                         _______ _______ _______ _____ _____    ______ ____
ROOT
ATOM      1  C   UNL     1      -7.184  -2.530  -1.149  0.00  0.00    +0.227 C 
ATOM      2  O   UNL     1      -7.034  -3.105  -2.207  0.00  0.00    -0.275 OA
ATOM      3  N   UNL     1      -8.324  -2.696  -0.449  0.00  0.00    -0.285 N 
ATOM      4  H   UNL     1      -8.417  -2.291   0.428  0.00  0.00    +0.155 HD
ENDROOT
BRANCH   3   5
ATOM      5  C   UNL     1      -9.372  -3.450  -0.986  0.00  0.00    +0.034 A 
ATOM      6  C   UNL     1     -10.690  -3.082  -0.746  0.00  0.00    +0.025 A 
ATOM      7  C   UNL     1     -11.722  -3.828  -1.278  0.00  0.00    +0.030 A 
ATOM      8  C   UNL     1     -11.446  -4.942  -2.049  0.00  0.00    +0.109 A 
ATOM      9  C   UNL     1     -10.135  -5.313  -2.290  0.00  0.00    +0.030 A 
ATOM     10  C   UNL     1      -9.098  -4.566  -1.766  0.00  0.00    +0.025 A 
BRANCH   8  11
ATOM     11  S   UNL     1     -12.766  -5.893  -2.726  0.00  0.00    +0.072 S 
ATOM     12  O   UNL     1     -12.289  -7.226  -2.842  0.00  0.00    -0.150 OA
ATOM     13  O   UNL     1     -13.929  -5.562  -1.979  0.00  0.00    -0.150 OA
BRANCH  11  14
ATOM     14  N   UNL     1     -13.023  -5.346  -4.268  0.00  0.00    -0.216 N 
ATOM     15  H   UNL     1     -12.884  -5.940  -5.022  0.00  0.00    +0.174 HD
BRANCH  14  16
ATOM     16  C   UNL     1     -13.438  -4.030  -4.482  0.00  0.00    +0.048 A 
ATOM     17  C   UNL     1     -14.453  -3.485  -3.705  0.00  0.00    +0.024 A 
ATOM     18  C   UNL     1     -14.861  -2.183  -3.919  0.00  0.00    +0.002 A 
ATOM     19  C   UNL     1     -14.262  -1.423  -4.906  0.00  0.00    +0.000 A 
ATOM     20  C   UNL     1     -13.252  -1.962  -5.682  0.00  0.00    +0.002 A 
ATOM     21  C   UNL     1     -12.835  -3.261  -5.469  0.00  0.00    +0.024 A 
ENDBRANCH  14  16
ENDBRANCH  11  14
ENDBRANCH   8  11
ENDBRANCH   3   5
BRANCH   1  22
ATOM     22  C   UNL     1      -6.097  -1.632  -0.618  0.00  0.00    +0.173 C 
BRANCH  22  23
ATOM     23  S   UNL     1      -4.703  -1.619  -1.779  0.00  0.00    -0.076 S 
BRANCH  23  27
ATOM     24  C   UNL     1      -1.756   0.655  -0.601  0.00  0.00    +0.141 A 
ATOM     25  N   UNL     1      -2.624   0.793   0.362  0.00  0.00    -0.133 NA
ATOM     26  N   UNL     1      -3.673   0.092   0.116  0.00  0.00    -0.122 NA
ATOM     27  C   UNL     1      -3.532  -0.539  -1.026  0.00  0.00    +0.197 A 
ATOM     28  N   UNL     1      -2.305  -0.196  -1.524  0.00  0.00    -0.274 N 
BRANCH  28  29
ATOM     29  C   UNL     1      -1.727  -0.626  -2.727  0.00  0.00    +0.050 A 
ATOM     30  C   UNL     1      -1.467   0.287  -3.740  0.00  0.00    +0.026 A 
ATOM     31  C   UNL     1      -0.898  -0.140  -4.924  0.00  0.00    +0.002 A 
ATOM     32  C   UNL     1      -0.588  -1.476  -5.101  0.00  0.00    +0.000 A 
ATOM     33  C   UNL     1      -0.847  -2.388  -4.095  0.00  0.00    +0.002 A 
ATOM     34  C   UNL     1      -1.409  -1.966  -2.906  0.00  0.00    +0.026 A 
ENDBRANCH  28  29
BRANCH  24  36
ATOM     35  C   UNL     1      -0.575   2.833  -0.673  0.00  0.00    +0.015 C 
ATOM     36  C   UNL     1      -0.404   1.313  -0.685  0.00  0.00    +0.051 C 
ATOM     37  C   UNL     1       0.447   0.886   0.513  0.00  0.00    +0.015 C 
ENDBRANCH  24  36
ENDBRANCH  23  27
ENDBRANCH  22  23
ENDBRANCH   1  22
TORSDOF 9
