REMARK  Name = ZINC39442344
REMARK  9 active torsions:
REMARK  status: ('A' for Active; 'I' for Inactive)
REMARK    1  A    between atoms: C_1  and  C_2
REMARK    2  A    between atoms: C_6  and  C_12
REMARK    3  A    between atoms: C_10  and  C_11
REMARK    4  A    between atoms: C_12  and  N_13
REMARK    5  A    between atoms: N_13  and  C_14
REMARK    6  A    between atoms: N_13  and  C_15
REMARK    7  A    between atoms: C_15  and  C_16
REMARK    8  A    between atoms: C_18  and  C_32
REMARK    9  A    between atoms: C_21  and  C_24
REMARK                            x       y       z     vdW  Elec       q    Type
REMARK                         _______ _______ _______ _____ _____    ______ ____
ROOT
ATOM      1  N   UNL     1      -0.938   4.850  -6.969  0.00  0.00    +0.384 N 
ATOM      2  C   UNL     1      -2.005   5.654  -6.358  0.00  0.00    -0.096 C 
ATOM      3  H   UNL     1      -0.074   5.004  -6.471  0.00  0.00    -0.082 HD
ENDROOT
BRANCH   1   4
ATOM      4  C   UNL     1      -1.296   3.427  -6.899  0.00  0.00    -0.004 C 
BRANCH   4  10
ATOM      5  C   UNL     1      -0.013   1.086   0.008  0.00  0.00    +0.044 C 
ATOM      6  C   UNL     1      -0.742   1.585  -1.213  0.00  0.00    -0.045 A 
ATOM      7  C   UNL     1      -0.047   1.821  -2.366  0.00  0.00    +0.033 A 
ATOM      8  C   UNL     1      -0.718   2.283  -3.500  0.00  0.00    +0.089 A 
ATOM      9  N   UNL     1      -0.320   2.603  -4.759  0.00  0.00    -0.234 NA
ATOM     10  C   UNL     1      -1.347   2.992  -5.457  0.00  0.00    +0.091 A 
ATOM     11  N   UNL     1      -2.473   2.949  -4.695  0.00  0.00    -0.343 N 
ATOM     12  C   UNL     1      -2.105   2.501  -3.442  0.00  0.00    +0.066 A 
ATOM     13  C   UNL     1      -2.794   2.255  -2.263  0.00  0.00    +0.031 A 
ATOM     14  C   UNL     1      -2.112   1.795  -1.157  0.00  0.00    -0.045 A 
ATOM     15  C   UNL     1      -2.859   1.523   0.124  0.00  0.00    +0.044 C 
ATOM     16  H   UNL     1      -3.369   3.189  -4.980  0.00  0.00    +0.167 HD
ENDBRANCH   4  10
ENDBRANCH   1   4
BRANCH   1  17
ATOM     17  C   UNL     1      -0.771   5.244  -8.374  0.00  0.00    -0.057 C 
BRANCH  17  18
ATOM     18  C   UNL     1      -0.278   6.691  -8.442  0.00  0.00    +0.068 C 
ATOM     19  C   UNL     1       0.063   7.074  -9.896  0.00  0.00    +0.133 C 
ATOM     20  O   UNL     1       1.470   7.384  -9.902  0.00  0.00    -0.353 OA
ATOM     21  C   UNL     1       1.786   7.776  -8.549  0.00  0.00    +0.221 C 
ATOM     22  N   UNL     1       1.001   6.837  -7.703  0.00  0.00    -0.284 NA
ATOM     23  C   UNL     1      -0.225   5.899 -10.832  0.00  0.00    +0.039 C 
ATOM     24  H   UNL     1       0.845   7.221  -6.783  0.00  0.00    +0.125 HD
BRANCH  21  25
ATOM     25  C   UNL     1       3.262   7.620  -8.287  0.00  0.00    +0.034 A 
ATOM     26  C   UNL     1       3.723   6.544  -7.551  0.00  0.00    +0.048 A 
ATOM     27  C   UNL     1       5.079   6.401  -7.310  0.00  0.00    +0.124 A 
ATOM     28  C   UNL     1       5.973   7.334  -7.806  0.00  0.00    +0.041 A 
ATOM     29  C   UNL     1       5.512   8.409  -8.542  0.00  0.00    +0.041 A 
ATOM     30  C   UNL     1       4.156   8.550  -8.787  0.00  0.00    +0.130 A 
ATOM     31  F   UNL     1       3.706   9.598  -9.511  0.00  0.00    -0.205 F 
ATOM     32  F   UNL     1       5.529   5.350  -6.590  0.00  0.00    -0.205 F 
ENDBRANCH  21  25
ENDBRANCH  17  18
ENDBRANCH   1  17
TORSDOF 5
