REMARK  Name = ZINC54641330
REMARK  8 active torsions:
REMARK  status: ('A' for Active; 'I' for Inactive)
REMARK    1  A    between atoms: C_1  and  C_2
REMARK    2  A    between atoms: C_3  and  C_27
REMARK    3  A    between atoms: C_4  and  C_12
REMARK    4  A    between atoms: C_15  and  O_18
REMARK    5  A    between atoms: O_18  and  C_19
REMARK    6  A    between atoms: C_19  and  C_20
REMARK    7  A    between atoms: C_27  and  O_29
REMARK    8  A    between atoms: O_29  and  C_30
REMARK                            x       y       z     vdW  Elec       q    Type
REMARK                         _______ _______ _______ _____ _____    ______ ____
ROOT
ATOM      1  C   UNL     1      -0.018   1.503   0.010  0.00  0.00    +0.061 C 
ATOM      2  C   UNL     1       0.002  -0.004   0.002  0.00  0.00    +0.020 C 
ATOM      3  C   UNL     1      -1.164  -0.668   0.004  0.00  0.00    +0.082 C 
ATOM      4  C   UNL     1      -1.254  -2.171  -0.016  0.00  0.00    +0.179 C 
ATOM      5  N   UNL     1       0.064  -2.740   0.255  0.00  0.00    -0.221 N 
ATOM      6  C   UNL     1       1.210  -2.015   0.249  0.00  0.00    +0.218 A 
ATOM      7  N   UNL     1       2.199  -2.823   0.519  0.00  0.00    -0.201 NA
ATOM      8  C   UNL     1       1.727  -4.060   0.707  0.00  0.00    +0.247 A 
ATOM      9  N   UNL     1       0.426  -4.052   0.555  0.00  0.00    -0.156 NA
ATOM     10  N   UNL     1       1.212  -0.651  -0.013  0.00  0.00    -0.287 N 
ATOM     11  H   UNL     1       2.037  -0.173  -0.196  0.00  0.00    +0.155 HD
ENDROOT
BRANCH   4  12
ATOM     12  C   UNL     1      -1.730  -2.628  -1.371  0.00  0.00    -0.018 A 
ATOM     13  C   UNL     1      -0.991  -2.326  -2.500  0.00  0.00    +0.009 A 
ATOM     14  C   UNL     1      -1.425  -2.744  -3.743  0.00  0.00    +0.046 A 
ATOM     15  C   UNL     1      -2.604  -3.466  -3.858  0.00  0.00    +0.121 A 
ATOM     16  C   UNL     1      -3.343  -3.768  -2.724  0.00  0.00    +0.046 A 
ATOM     17  C   UNL     1      -2.902  -3.353  -1.482  0.00  0.00    +0.009 A 
BRANCH  15  18
ATOM     18  O   UNL     1      -3.034  -3.877  -5.080  0.00  0.00    -0.487 OA
BRANCH  18  19
ATOM     19  C   UNL     1      -4.255  -4.617  -5.123  0.00  0.00    +0.264 C 
BRANCH  19  20
ATOM     20  C   UNL     1      -4.570  -4.985  -6.550  0.00  0.00    -0.010 A 
ATOM     21  C   UNL     1      -5.323  -4.130  -7.334  0.00  0.00    +0.008 A 
ATOM     22  C   UNL     1      -5.612  -4.467  -8.643  0.00  0.00    +0.020 A 
ATOM     23  C   UNL     1      -5.148  -5.660  -9.169  0.00  0.00    +0.041 A 
ATOM     24  C   UNL     1      -4.394  -6.514  -8.384  0.00  0.00    +0.020 A 
ATOM     25  C   UNL     1      -4.101  -6.174  -7.077  0.00  0.00    +0.008 A 
ATOM     26 CL   UNL     1      -5.511  -6.083 -10.813  0.00  0.00    -0.084 Cl
ENDBRANCH  19  20
ENDBRANCH  18  19
ENDBRANCH  15  18
ENDBRANCH   4  12
BRANCH   3  27
ATOM     27  C   UNL     1      -2.364   0.077   0.027  0.00  0.00    +0.339 C 
ATOM     28  O   UNL     1      -2.324   1.293   0.044  0.00  0.00    -0.245 OA
BRANCH  27  29
ATOM     29  O   UNL     1      -3.554  -0.559   0.029  0.00  0.00    -0.458 OA
BRANCH  29  30
ATOM     30  C   UNL     1      -4.726   0.257   0.053  0.00  0.00    +0.177 C 
ATOM     31  C   UNL     1      -5.130   0.528   1.503  0.00  0.00    +0.044 C 
ATOM     32  C   UNL     1      -6.386   1.403   1.528  0.00  0.00    +0.004 C 
ATOM     33  C   UNL     1      -7.525   0.679   0.808  0.00  0.00    +0.000 C 
ATOM     34  C   UNL     1      -7.121   0.409  -0.643  0.00  0.00    +0.004 C 
ATOM     35  C   UNL     1      -5.866  -0.466  -0.668  0.00  0.00    +0.044 C 
ENDBRANCH  29  30
ENDBRANCH  27  29
ENDBRANCH   3  27
TORSDOF 7
