REMARK  Name = ZINC09343865
REMARK  12 active torsions:
REMARK  status: ('A' for Active; 'I' for Inactive)
REMARK    1  A    between atoms: C_1  and  C_2
REMARK    2  A    between atoms: C_2  and  O_3
REMARK    3  A    between atoms: O_3  and  C_4
REMARK    4  A    between atoms: N_13  and  C_14
REMARK    5  A    between atoms: C_14  and  C_15
REMARK    6  A    between atoms: C_15  and  N_56
REMARK    7  A    between atoms: C_16  and  N_56
REMARK    8  A    between atoms: C_17  and  N_56
REMARK    9  A    between atoms: C_18  and  C_20
REMARK   10  A    between atoms: C_20  and  C_21
REMARK   11  A    between atoms: C_21  and  S_22
REMARK   12  A    between atoms: S_22  and  C_23
REMARK                            x       y       z     vdW  Elec       q    Type
REMARK                         _______ _______ _______ _____ _____    ______ ____
ROOT
ATOM      1  C   UNL     1       0.002  -0.004   0.002  0.00  0.00    +0.147 A 
ATOM      2  C   UNL     1      -0.017   1.371   0.010  0.00  0.00    +0.048 A 
ATOM      3  C   UNL     1       1.157   2.111   0.002  0.00  0.00    +0.005 A 
ATOM      4  C   UNL     1       2.373   1.452  -0.013  0.00  0.00    +0.017 A 
ATOM      5  C   UNL     1       2.403   0.079  -0.020  0.00  0.00    +0.044 A 
ATOM      6  C   UNL     1       1.232  -0.710  -0.013  0.00  0.00    +0.122 A 
ATOM      7  N   UNL     1       1.426  -2.047  -0.022  0.00  0.00    -0.221 NA
ATOM      8  C   UNL     1       2.622  -2.586  -0.036  0.00  0.00    +0.168 A 
ATOM      9  S   UNL     1       3.686  -1.149  -0.039  0.00  0.00    -0.052 S 
ATOM     10  N   UNL     1       2.972  -3.927  -0.046  0.00  0.00    -0.252 N 
ATOM     11  C   UNL     1       2.013  -4.873  -0.041  0.00  0.00    +0.222 C 
ATOM     12  O   UNL     1       0.844  -4.552  -0.028  0.00  0.00    -0.275 OA
ENDROOT
BRANCH   1  13
ATOM     13  O   UNL     1      -1.170  -0.693   0.010  0.00  0.00    -0.490 OA
BRANCH  13  15
ATOM     14  C   UNL     1      -3.580  -0.867   0.033  0.00  0.00    +0.048 C 
ATOM     15  C   UNL     1      -2.374   0.075   0.026  0.00  0.00    +0.226 C 
ENDBRANCH  13  15
ENDBRANCH   1  13
BRANCH  10  16
ATOM     16  C   UNL     1       4.385  -4.315  -0.062  0.00  0.00    +0.097 C 
BRANCH  16  17
ATOM     17  C   UNL     1       4.890  -4.458   1.375  0.00  0.00    -0.060 C 
BRANCH  17  20
ATOM     18  C   UNL     1       6.891  -4.764   2.705  0.00  0.00    -0.097 C 
ATOM     19  C   UNL     1       6.476  -6.193   0.794  0.00  0.00    -0.097 C 
ATOM     20  N   UNL     1       6.321  -4.829   1.343  0.00  0.00    +0.377 N 
ATOM     21  H   UNL     1       6.823  -4.168   0.739  0.00  0.00    -0.083 HD
ENDBRANCH  17  20
ENDBRANCH  16  17
ENDBRANCH  10  16
BRANCH  11  22
ATOM     22  C   UNL     1       2.393  -6.332  -0.052  0.00  0.00    +0.107 C 
BRANCH  22  23
ATOM     23  C   UNL     1       1.126  -7.189  -0.044  0.00  0.00    +0.083 C 
BRANCH  23  24
ATOM     24  S   UNL     1       1.584  -8.944  -0.058  0.00  0.00    -0.125 S 
BRANCH  24  25
ATOM     25  C   UNL     1       0.037  -9.788  -0.047  0.00  0.00    +0.008 A 
ATOM     26  C   UNL     1      -1.150  -9.066  -0.026  0.00  0.00    +0.016 A 
ATOM     27  C   UNL     1      -2.361  -9.730  -0.022  0.00  0.00    +0.021 A 
ATOM     28  C   UNL     1      -2.393 -11.114  -0.029  0.00  0.00    +0.041 A 
ATOM     29  C   UNL     1      -1.212 -11.836  -0.044  0.00  0.00    +0.021 A 
ATOM     30  C   UNL     1       0.002 -11.178  -0.053  0.00  0.00    +0.016 A 
ATOM     31 CL   UNL     1      -3.916 -11.945  -0.019  0.00  0.00    -0.084 Cl
ENDBRANCH  24  25
ENDBRANCH  23  24
ENDBRANCH  22  23
ENDBRANCH  11  22
TORSDOF 9
