REMARK  Name = ZINC10125429
REMARK  13 active torsions:
REMARK  status: ('A' for Active; 'I' for Inactive)
REMARK    1  A    between atoms: C_1  and  C_2
REMARK    2  A    between atoms: C_2  and  C_34
REMARK    3  A    between atoms: C_7  and  C_32
REMARK    4  A    between atoms: C_7  and  C_33
REMARK    5  A    between atoms: C_9  and  C_11
REMARK    6  A    between atoms: C_11  and  O_12
REMARK    7  A    between atoms: O_12  and  C_13
REMARK    8  A    between atoms: C_13  and  C_15
REMARK    9  A    between atoms: C_17  and  S_26
REMARK   10  A    between atoms: C_20  and  N_21
REMARK   11  A    between atoms: S_26  and  N_29
REMARK   12  A    between atoms: N_29  and  C_30
REMARK   13  A    between atoms: N_29  and  C_31
REMARK                            x       y       z     vdW  Elec       q    Type
REMARK                         _______ _______ _______ _____ _____    ______ ____
ROOT
ATOM      1  C   UNL     1       0.802   1.173   0.641  0.00  0.00    +0.341 C 
ATOM      2  O   UNL     1      -0.239   1.753   0.878  0.00  0.00    -0.245 OA
ENDROOT
BRANCH   1   3
ATOM      3  C   UNL     1       2.071   1.920   0.608  0.00  0.00    +0.082 A 
ATOM      4  C   UNL     1       3.282   1.244   0.436  0.00  0.00    +0.045 A 
ATOM      5  C   UNL     1       4.465   1.948   0.407  0.00  0.00    +0.106 A 
ATOM      6  C   UNL     1       4.463   3.327   0.548  0.00  0.00    +0.030 A 
ATOM      7  C   UNL     1       3.276   4.010   0.719  0.00  0.00    +0.026 A 
ATOM      8  C   UNL     1       2.072   3.318   0.745  0.00  0.00    +0.044 A 
BRANCH   8   9
ATOM      9  N   UNL     1       0.876   4.003   0.910  0.00  0.00    -0.329 N 
ATOM     10  C   UNL     1       0.942   4.912   2.084  0.00  0.00    +0.105 C 
ATOM     11  C   UNL     1      -0.195   5.929   1.808  0.00  0.00    +0.020 C 
ATOM     12  C   UNL     1      -0.119   6.126   0.277  0.00  0.00    +0.020 C 
ATOM     13  C   UNL     1       0.596   4.870  -0.255  0.00  0.00    +0.105 C 
ENDBRANCH   8   9
BRANCH   5  14
ATOM     14  S   UNL     1       5.990   1.093   0.190  0.00  0.00    +0.060 S 
ATOM     15  O   UNL     1       7.003   1.921   0.744  0.00  0.00    -0.153 OA
ATOM     16  O   UNL     1       5.773  -0.242   0.629  0.00  0.00    -0.153 OA
BRANCH  14  17
ATOM     17  N   UNL     1       6.280   1.014  -1.438  0.00  0.00    -0.183 NA
ATOM     18  C   UNL     1       7.035   2.081  -2.100  0.00  0.00    +0.131 C 
ATOM     19  C   UNL     1       5.782  -0.122  -2.217  0.00  0.00    +0.131 C 
ENDBRANCH  14  17
ENDBRANCH   5  14
ENDBRANCH   1   3
BRANCH   1  20
ATOM     20  O   UNL     1       0.795  -0.153   0.402  0.00  0.00    -0.452 OA
BRANCH  20  21
ATOM     21  C   UNL     1      -0.491  -0.825   0.450  0.00  0.00    +0.328 C 
BRANCH  21  30
ATOM     22  C   UNL     1      -3.311  -2.937   1.778  0.00  0.00    +0.032 C 
ATOM     23  C   UNL     1      -2.704  -2.684   0.397  0.00  0.00    +0.039 C 
ATOM     24  C   UNL     1      -3.499  -3.458  -0.670  0.00  0.00    +0.099 C 
ATOM     25  C   UNL     1      -3.227  -4.935  -0.489  0.00  0.00    +0.137 C 
ATOM     26  O   UNL     1      -4.136  -5.722  -0.375  0.00  0.00    -0.297 OA
ATOM     27  C   UNL     1      -1.788  -5.403  -0.454  0.00  0.00    +0.099 C 
ATOM     28  C   UNL     1      -1.037  -4.581   0.602  0.00  0.00    +0.039 C 
ATOM     29  N   UNL     1      -1.314  -3.157   0.377  0.00  0.00    -0.287 N 
ATOM     30  C   UNL     1      -0.303  -2.292   0.160  0.00  0.00    +0.254 C 
ATOM     31  O   UNL     1       0.758  -2.694  -0.269  0.00  0.00    -0.272 OA
ATOM     32  C   UNL     1       0.466  -4.838   0.476  0.00  0.00    +0.032 C 
ATOM     33  C   UNL     1      -1.511  -4.981   2.000  0.00  0.00    +0.032 C 
ATOM     34  C   UNL     1      -2.742  -1.187   0.083  0.00  0.00    +0.032 C 
ENDBRANCH  21  30
ENDBRANCH  20  21
ENDBRANCH   1  20
TORSDOF 7
