REMARK  Name = ZINC67650735
REMARK  7 active torsions:
REMARK  status: ('A' for Active; 'I' for Inactive)
REMARK    1  A    between atoms: C_1  and  C_2
REMARK    2  A    between atoms: C_2  and  C_3
REMARK    3  A    between atoms: C_3  and  C_5
REMARK    4  A    between atoms: C_3  and  N_13
REMARK    5  A    between atoms: C_8  and  O_11
REMARK    6  A    between atoms: O_11  and  C_12
REMARK    7  A    between atoms: C_18  and  C_20
REMARK                            x       y       z     vdW  Elec       q    Type
REMARK                         _______ _______ _______ _____ _____    ______ ____
ROOT
ATOM      1  N   UNL     1      -0.008  -0.140   2.444  0.00  0.00    -0.322 N 
ATOM      2  C   UNL     1       0.169   1.111   3.013  0.00  0.00    +0.126 A 
ATOM      3  C   UNL     1      -0.538   1.474   4.164  0.00  0.00    +0.010 A 
ATOM      4  C   UNL     1      -0.333   2.724   4.700  0.00  0.00    +0.033 A 
ATOM      5  N   UNL     1       0.525   3.547   4.108  0.00  0.00    -0.234 NA
ATOM      6  C   UNL     1       1.181   3.180   3.018  0.00  0.00    +0.162 A 
ATOM      7  N   UNL     1       1.016   1.981   2.477  0.00  0.00    -0.213 NA
ATOM      8  C   UNL     1      -1.050   3.181   5.941  0.00  0.00    -0.026 C 
ATOM      9  N   UNL     1      -2.234   2.350   6.186  0.00  0.00    +0.383 N 
ATOM     10  C   UNL     1      -1.833   0.935   6.211  0.00  0.00    -0.077 C 
ATOM     11  C   UNL     1      -1.499   0.496   4.783  0.00  0.00    +0.021 C 
ATOM     12  H   UNL     1      -0.629  -0.770   2.842  0.00  0.00    +0.148 HD
ATOM     13  H   UNL     1      -2.644   2.600   7.073  0.00  0.00    -0.085 HD
ATOM     14  H   UNL     1      -2.907   2.497   5.448  0.00  0.00    -0.085 HD
ENDROOT
BRANCH   6  15
ATOM     15  C   UNL     1       2.130   4.133   2.390  0.00  0.00    +0.022 A 
ATOM     16  C   UNL     1       2.340   5.401   2.937  0.00  0.00    +0.031 A 
ATOM     17  C   UNL     1       3.232   6.257   2.321  0.00  0.00    +0.111 A 
ATOM     18  N   UNL     1       3.880   5.890   1.232  0.00  0.00    -0.263 NA
ATOM     19  C   UNL     1       3.710   4.702   0.685  0.00  0.00    +0.111 A 
ATOM     20  C   UNL     1       2.842   3.783   1.240  0.00  0.00    +0.031 A 
ENDBRANCH   6  15
BRANCH   1  21
ATOM     21  C   UNL     1       0.742  -0.511   1.242  0.00  0.00    +0.102 C 
BRANCH  21  22
ATOM     22  C   UNL     1       0.870  -2.011   1.172  0.00  0.00    -0.027 A 
ATOM     23  C   UNL     1      -0.202  -2.812   1.520  0.00  0.00    +0.009 A 
ATOM     24  C   UNL     1      -0.087  -4.187   1.457  0.00  0.00    +0.046 A 
ATOM     25  C   UNL     1       1.105  -4.764   1.044  0.00  0.00    +0.120 A 
ATOM     26  C   UNL     1       2.179  -3.958   0.696  0.00  0.00    +0.046 A 
ATOM     27  C   UNL     1       2.057  -2.584   0.755  0.00  0.00    +0.009 A 
BRANCH  25  28
ATOM     28  O   UNL     1       1.221  -6.117   0.983  0.00  0.00    -0.495 OA
ATOM     29  C   UNL     1       2.477  -6.641   0.549  0.00  0.00    +0.277 C 
ENDBRANCH  25  28
ENDBRANCH  21  22
BRANCH  21  31
ATOM     30  C   UNL     1      -0.019   1.526   0.010  0.00  0.00    +0.006 C 
ATOM     31  C   UNL     1       0.002  -0.004   0.002  0.00  0.00    +0.024 C 
ENDBRANCH  21  31
ENDBRANCH   1  21
TORSDOF 5
