REMARK  Name = ZINC12188196
REMARK  9 active torsions:
REMARK  status: ('A' for Active; 'I' for Inactive)
REMARK    1  A    between atoms: C_1  and  O_2
REMARK    2  A    between atoms: O_2  and  C_3
REMARK    3  A    between atoms: C_5  and  C_13
REMARK    4  A    between atoms: C_7  and  C_10
REMARK    5  A    between atoms: C_8  and  O_9
REMARK    6  A    between atoms: C_10  and  C_11
REMARK    7  A    between atoms: C_13  and  N_56
REMARK    8  A    between atoms: C_16  and  C_19
REMARK    9  A    between atoms: C_16  and  O_28
REMARK                            x       y       z     vdW  Elec       q    Type
REMARK                         _______ _______ _______ _____ _____    ______ ____
ROOT
ATOM      1  C   UNL     1      -2.061   0.974  -1.278  0.00  0.00    -0.075 C 
ATOM      2  C   UNL     1      -2.824   1.611  -2.442  0.00  0.00    +0.021 C 
ATOM      3  C   UNL     1      -2.047   1.380  -3.741  0.00  0.00    +0.088 C 
ATOM      4  C   UNL     1      -0.641   1.970  -3.598  0.00  0.00    +0.021 C 
ATOM      5  C   UNL     1       0.058   1.323  -2.400  0.00  0.00    -0.075 C 
ATOM      6  N   UNL     1      -0.726   1.602  -1.178  0.00  0.00    +0.383 N 
ATOM      7  H   UNL     1      -0.842   2.618  -1.082  0.00  0.00    -0.081 HD
ENDROOT
BRANCH   3   8
ATOM      8  C   UNL     1      -2.763   2.056  -4.882  0.00  0.00    -0.013 A 
ATOM      9  C   UNL     1      -2.466   3.368  -5.202  0.00  0.00    +0.010 A 
ATOM     10  C   UNL     1      -3.120   3.992  -6.248  0.00  0.00    +0.050 A 
ATOM     11  C   UNL     1      -4.074   3.303  -6.979  0.00  0.00    +0.166 A 
ATOM     12  C   UNL     1      -4.373   1.982  -6.657  0.00  0.00    +0.167 A 
ATOM     13  C   UNL     1      -3.710   1.361  -5.611  0.00  0.00    +0.056 A 
ATOM     14  O   UNL     1      -5.335   1.530  -7.514  0.00  0.00    -0.453 OA
ATOM     15  C   UNL     1      -5.328   2.452  -8.620  0.00  0.00    +0.466 C 
ATOM     16  O   UNL     1      -4.849   3.679  -8.038  0.00  0.00    -0.453 OA
ENDBRANCH   3   8
BRANCH   3  17
ATOM     17  O   UNL     1      -1.953  -0.022  -3.999  0.00  0.00    -0.384 OA
ATOM     18  H   UNL     1      -2.808  -0.462  -4.101  0.00  0.00    +0.211 HD
ENDBRANCH   3  17
BRANCH   6  19
ATOM     19  C   UNL     1      -0.013   1.086   0.008  0.00  0.00    -0.043 C 
BRANCH  19  22
ATOM     20  C   UNL     1      -1.010   3.230   2.954  0.00  0.00    +0.162 A 
ATOM     21  C   UNL     1      -0.359   2.779   1.817  0.00  0.00    +0.051 A 
ATOM     22  C   UNL     1      -0.718   1.572   1.248  0.00  0.00    -0.060 A 
ATOM     23  C   UNL     1      -1.719   0.807   1.817  0.00  0.00    +0.009 A 
ATOM     24  C   UNL     1      -2.369   1.248   2.954  0.00  0.00    +0.002 A 
ATOM     25  C   UNL     1      -2.018   2.460   3.526  0.00  0.00    +0.162 A 
BRANCH  20  27
ATOM     26  C   UNL     1       0.381   5.157   2.871  0.00  0.00    +0.277 C 
ATOM     27  O   UNL     1      -0.662   4.420   3.512  0.00  0.00    -0.491 OA
ENDBRANCH  20  27
BRANCH  25  28
ATOM     28  O   UNL     1      -2.657   2.896   4.645  0.00  0.00    -0.503 OA
ATOM     29  H   UNL     1      -2.242   2.611   5.471  0.00  0.00    +0.292 HD
ENDBRANCH  25  28
BRANCH  24  30
ATOM     30  C   UNL     1      -3.461   0.412   3.571  0.00  0.00    +0.065 C 
BRANCH  30  31
ATOM     31  C   UNL     1      -2.906  -0.349   4.748  0.00  0.00    -0.030 C 
ATOM     32  C   UNL     1      -3.473  -0.240   5.924  0.00  0.00    +0.004 C 
ENDBRANCH  30  31
ENDBRANCH  24  30
ENDBRANCH  19  22
ENDBRANCH   6  19
TORSDOF 8
