REMARK  Name = ZINC36209998
REMARK  7 active torsions:
REMARK  status: ('A' for Active; 'I' for Inactive)
REMARK    1  A    between atoms: C_7  and  C_18
REMARK    2  A    between atoms: C_9  and  C_11
REMARK    3  A    between atoms: C_18  and  O_20
REMARK    4  A    between atoms: O_20  and  C_21
REMARK    5  A    between atoms: C_21  and  C_22
REMARK    6  A    between atoms: N_24  and  C_25
REMARK    7  A    between atoms: C_25  and  C_31
REMARK                            x       y       z     vdW  Elec       q    Type
REMARK                         _______ _______ _______ _____ _____    ______ ____
ROOT
ATOM      1  C   UNL     1      -0.017   1.359  -0.031  0.00  0.00    +0.001 A 
ATOM      2  C   UNL     1       1.170   2.089  -0.037  0.00  0.00    +0.002 A 
ATOM      3  C   UNL     1       2.379   1.465  -0.040  0.00  0.00    +0.028 A 
ATOM      4  C   UNL     1       2.439   0.059  -0.034  0.00  0.00    +0.072 A 
ATOM      5  C   UNL     1       1.228  -0.678  -0.027  0.00  0.00    +0.014 A 
ATOM      6  C   UNL     1       0.002  -0.004  -0.026  0.00  0.00    +0.011 A 
ATOM      7  C   UNL     1       1.296  -2.140  -0.022  0.00  0.00    +0.070 A 
ATOM      8  C   UNL     1       2.558  -2.719  -0.024  0.00  0.00    +0.044 A 
ATOM      9  C   UNL     1       3.693  -1.894  -0.031  0.00  0.00    +0.072 A 
ATOM     10  N   UNL     1       3.609  -0.581  -0.036  0.00  0.00    -0.247 NA
ENDROOT
BRANCH   9  11
ATOM     11  C   UNL     1       5.035  -2.525  -0.034  0.00  0.00    +0.001 A 
ATOM     12  C   UNL     1       5.155  -3.914  -0.035  0.00  0.00    +0.013 A 
ATOM     13  C   UNL     1       6.405  -4.496  -0.037  0.00  0.00    +0.039 A 
ATOM     14  C   UNL     1       7.542  -3.703  -0.040  0.00  0.00    +0.123 A 
ATOM     15  C   UNL     1       7.427  -2.321  -0.038  0.00  0.00    +0.039 A 
ATOM     16  C   UNL     1       6.181  -1.730  -0.041  0.00  0.00    +0.013 A 
ATOM     17  F   UNL     1       8.764  -4.277  -0.042  0.00  0.00    -0.205 F 
ENDBRANCH   9  11
BRANCH   7  18
ATOM     18  C   UNL     1       0.071  -2.967  -0.013  0.00  0.00    +0.340 C 
ATOM     19  O   UNL     1      -1.017  -2.439   0.092  0.00  0.00    -0.245 OA
BRANCH  18  20
ATOM     20  O   UNL     1       0.162  -4.307  -0.123  0.00  0.00    -0.452 OA
BRANCH  20  21
ATOM     21  C   UNL     1      -1.062  -5.043  -0.108  0.00  0.00    +0.328 C 
BRANCH  21  22
ATOM     22  C   UNL     1      -0.764  -6.515  -0.240  0.00  0.00    +0.252 C 
ATOM     23  O   UNL     1       0.383  -6.895  -0.338  0.00  0.00    -0.272 OA
ATOM     24  N   UNL     1      -1.774  -7.408  -0.250  0.00  0.00    -0.295 N 
ATOM     25  H   UNL     1      -2.691  -7.104  -0.172  0.00  0.00    +0.150 HD
BRANCH  24  26
ATOM     26  C   UNL     1      -1.484  -8.839  -0.378  0.00  0.00    +0.121 C 
ATOM     27  C   UNL     1      -0.604  -9.288   0.790  0.00  0.00    +0.041 C 
ATOM     28  C   UNL     1      -0.302 -10.782   0.656  0.00  0.00    +0.003 C 
ATOM     29  C   UNL     1      -1.613 -11.571   0.672  0.00  0.00    +0.000 C 
ATOM     30  C   UNL     1      -2.493 -11.121  -0.496  0.00  0.00    +0.003 C 
ATOM     31  C   UNL     1      -2.795  -9.628  -0.362  0.00  0.00    +0.041 C 
BRANCH  26  32
ATOM     32  C   UNL     1      -0.779  -9.085  -1.647  0.00  0.00    +0.088 C 
ATOM     33  N   UNL     1      -0.235  -9.275  -2.626  0.00  0.00    -0.194 NA
ENDBRANCH  26  32
ENDBRANCH  24  26
ENDBRANCH  21  22
ENDBRANCH  20  21
ENDBRANCH  18  20
ENDBRANCH   7  18
TORSDOF 7
