REMARK  Name = ZINC45076171
REMARK  13 active torsions:
REMARK  status: ('A' for Active; 'I' for Inactive)
REMARK    1  A    between atoms: C_1  and  C_2
REMARK    2  A    between atoms: C_2  and  C_3
REMARK    3  A    between atoms: C_2  and  C_4
REMARK    4  A    between atoms: C_4  and  C_5
REMARK    5  A    between atoms: C_5  and  C_7
REMARK    6  A    between atoms: C_5  and  N_22
REMARK    7  A    between atoms: N_9  and  C_10
REMARK    8  A    between atoms: C_10  and  C_11
REMARK    9  A    between atoms: C_23  and  O_25
REMARK   10  A    between atoms: O_25  and  C_26
REMARK   11  A    between atoms: C_26  and  C_27
REMARK   12  A    between atoms: C_26  and  C_28
REMARK   13  A    between atoms: C_26  and  C_29
REMARK                            x       y       z     vdW  Elec       q    Type
REMARK                         _______ _______ _______ _____ _____    ______ ____
ROOT
ATOM      1  C   UNL     1      -3.287  -1.562  -1.185  0.00  0.00    +0.234 C 
ATOM      2  O   UNL     1      -3.868  -2.583  -0.885  0.00  0.00    -0.274 OA
ATOM      3  N   UNL     1      -3.943  -0.578  -1.832  0.00  0.00    -0.310 N 
ATOM      4  H   UNL     1      -3.479   0.239  -2.072  0.00  0.00    +0.149 HD
ENDROOT
BRANCH   1   5
ATOM      5  C   UNL     1      -1.831  -1.392  -0.835  0.00  0.00    +0.162 C 
BRANCH   5   6
ATOM      6  N   UNL     1      -1.343  -2.605  -0.172  0.00  0.00    -0.270 N 
ATOM      7  C   UNL     1      -0.030  -2.906  -0.200  0.00  0.00    +0.401 C 
ATOM      8  O   UNL     1       0.761  -2.129  -0.696  0.00  0.00    -0.226 OA
ATOM      9  H   UNL     1      -1.966  -3.191   0.286  0.00  0.00    +0.153 HD
BRANCH   7  10
ATOM     10  O   UNL     1       0.405  -4.068   0.323  0.00  0.00    -0.445 OA
BRANCH  10  11
ATOM     11  C   UNL     1       1.810  -4.322   0.260  0.00  0.00    +0.107 C 
ATOM     12  C   UNL     1       2.561  -3.224   1.015  0.00  0.00    +0.055 C 
ATOM     13  C   UNL     1       2.112  -5.679   0.898  0.00  0.00    +0.055 C 
ATOM     14  C   UNL     1       2.260  -4.335  -1.202  0.00  0.00    +0.055 C 
ENDBRANCH  10  11
ENDBRANCH   7  10
ENDBRANCH   5   6
BRANCH   5  15
ATOM     15  C   UNL     1      -1.669  -0.197   0.106  0.00  0.00    +0.035 C 
BRANCH  15  17
ATOM     16  C   UNL     1      -2.021   0.596   2.449  0.00  0.00    +0.007 C 
ATOM     17  C   UNL     1      -2.371  -0.493   1.433  0.00  0.00    -0.015 C 
ATOM     18  C   UNL     1      -3.885  -0.518   1.214  0.00  0.00    +0.007 C 
ENDBRANCH  15  17
ENDBRANCH   5  15
ENDBRANCH   1   5
BRANCH   3  19
ATOM     19  C   UNL     1      -5.359  -0.743  -2.172  0.00  0.00    +0.141 C 
BRANCH  19  20
ATOM     20  C   UNL     1      -5.851   0.490  -2.886  0.00  0.00    -0.014 A 
ATOM     21  C   UNL     1      -6.384   1.551  -2.166  0.00  0.00    +0.010 A 
ATOM     22  C   UNL     1      -6.824   2.664  -2.859  0.00  0.00    +0.042 A 
ATOM     23  C   UNL     1      -6.718   2.683  -4.246  0.00  0.00    +0.099 A 
ATOM     24  N   UNL     1      -6.204   1.650  -4.897  0.00  0.00    -0.349 N 
ATOM     25  C   UNL     1      -5.771   0.578  -4.261  0.00  0.00    +0.089 A 
ATOM     26  N   UNL     1      -7.157   3.795  -4.956  0.00  0.00    -0.317 N 
ATOM     27  C   UNL     1      -7.741   5.009  -4.369  0.00  0.00    +0.106 C 
ATOM     28  C   UNL     1      -8.100   5.955  -5.535  0.00  0.00    +0.020 C 
ATOM     29  C   UNL     1      -8.218   4.987  -6.742  0.00  0.00    +0.020 C 
ATOM     30  C   UNL     1      -7.108   3.954  -6.420  0.00  0.00    +0.106 C 
ATOM     31  H   UNL     1      -6.140   1.685  -5.864  0.00  0.00    +0.167 HD
ENDBRANCH  19  20
ENDBRANCH   3  19
TORSDOF 8
