REMARK  Name = ZINC03261831
REMARK  8 active torsions:
REMARK  status: ('A' for Active; 'I' for Inactive)
REMARK    1  A    between atoms: C_1  and  C_2
REMARK    2  A    between atoms: C_2  and  O_3
REMARK    3  A    between atoms: O_3  and  C_4
REMARK    4  A    between atoms: C_4  and  C_6
REMARK    5  A    between atoms: C_19  and  C_20
REMARK    6  A    between atoms: C_19  and  C_28
REMARK    7  A    between atoms: C_23  and  O_26
REMARK    8  A    between atoms: O_26  and  C_27
REMARK                            x       y       z     vdW  Elec       q    Type
REMARK                         _______ _______ _______ _____ _____    ______ ____
ROOT
ATOM      1  C   UNL     1      -0.572   3.429   1.329  0.00  0.00    +0.101 C 
ATOM      2  C   UNL     1      -1.714   4.121   1.644  0.00  0.00    +0.094 C 
ATOM      3  N   UNL     1      -2.967   3.557   1.665  0.00  0.00    -0.217 N 
ATOM      4  C   UNL     1      -4.045   4.396   2.008  0.00  0.00    +0.057 A 
ATOM      5  C   UNL     1      -5.395   4.015   2.086  0.00  0.00    +0.025 A 
ATOM      6  C   UNL     1      -6.364   4.926   2.434  0.00  0.00    +0.002 A 
ATOM      7  C   UNL     1      -6.043   6.243   2.716  0.00  0.00    +0.001 A 
ATOM      8  C   UNL     1      -4.720   6.644   2.646  0.00  0.00    +0.017 A 
ATOM      9  C   UNL     1      -3.752   5.730   2.298  0.00  0.00    +0.036 A 
ATOM     10  S   UNL     1      -1.990   5.819   2.096  0.00  0.00    -0.071 S 
ATOM     11  C   UNL     1      -3.105   2.237   1.358  0.00  0.00    +0.312 C 
ATOM     12  O   UNL     1      -4.224   1.764   1.384  0.00  0.00    -0.252 OA
ATOM     13  N   UNL     1      -2.095   1.431   1.030  0.00  0.00    -0.277 N 
ATOM     14  C   UNL     1      -0.721   1.957   0.987  0.00  0.00    +0.191 C 
ATOM     15  H   UNL     1      -2.268   0.499   0.822  0.00  0.00    +0.152 HD
ENDROOT
BRANCH  14  16
ATOM     16  C   UNL     1       0.120   1.161   1.952  0.00  0.00    -0.011 A 
ATOM     17  C   UNL     1       1.241   0.490   1.500  0.00  0.00    +0.010 A 
ATOM     18  C   UNL     1       2.016  -0.235   2.383  0.00  0.00    +0.046 A 
ATOM     19  C   UNL     1       1.663  -0.299   3.723  0.00  0.00    +0.120 A 
ATOM     20  C   UNL     1       0.534   0.370   4.173  0.00  0.00    +0.046 A 
ATOM     21  C   UNL     1      -0.235   1.099   3.287  0.00  0.00    +0.010 A 
BRANCH  19  22
ATOM     22  O   UNL     1       2.421  -1.017   4.594  0.00  0.00    -0.495 OA
ATOM     23  C   UNL     1       3.568  -1.681   4.060  0.00  0.00    +0.277 C 
ENDBRANCH  19  22
ENDBRANCH  14  16
BRANCH  14  24
ATOM     24  C   UNL     1      -0.167   1.735  -0.422  0.00  0.00    +0.419 C 
ATOM     25  F   UNL     1      -0.224   0.372  -0.736  0.00  0.00    -0.168 F 
ATOM     26  F   UNL     1       1.161   2.170  -0.475  0.00  0.00    -0.168 F 
ATOM     27  F   UNL     1      -0.932   2.458  -1.343  0.00  0.00    -0.168 F 
ENDBRANCH  14  24
BRANCH   1  28
ATOM     28  C   UNL     1       0.679   4.054   1.322  0.00  0.00    +0.340 C 
ATOM     29  O   UNL     1       0.757   5.262   1.462  0.00  0.00    -0.245 OA
BRANCH  28  30
ATOM     30  O   UNL     1       1.801   3.318   1.161  0.00  0.00    -0.462 OA
BRANCH  30  32
ATOM     31  C   UNL     1       4.193   3.030   0.971  0.00  0.00    +0.048 C 
ATOM     32  C   UNL     1       3.044   4.022   1.165  0.00  0.00    +0.229 C 
ENDBRANCH  30  32
ENDBRANCH  28  30
ENDBRANCH   1  28
TORSDOF 6
