REMARK  Name = ZINC13425121
REMARK  9 active torsions:
REMARK  status: ('A' for Active; 'I' for Inactive)
REMARK    1  A    between atoms: C_1  and  C_2
REMARK    2  A    between atoms: C_2  and  O_4
REMARK    3  A    between atoms: O_4  and  C_5
REMARK    4  A    between atoms: C_5  and  C_30
REMARK    5  A    between atoms: C_10  and  C_29
REMARK    6  A    between atoms: C_12  and  O_28
REMARK    7  A    between atoms: C_26  and  C_27
REMARK    8  A    between atoms: C_30  and  C_32
REMARK    9  A    between atoms: C_32  and  O_33
REMARK                            x       y       z     vdW  Elec       q    Type
REMARK                         _______ _______ _______ _____ _____    ______ ____
ROOT
ATOM      1  C   UNL     1       1.426  -0.488   0.538  0.00  0.00    +0.179 C 
ATOM      2  C   UNL     1       0.079   0.025  -0.008  0.00  0.00    +0.057 C 
ATOM      3  C   UNL     1       0.155   1.560  -0.015  0.00  0.00    +0.009 C 
ATOM      4  C   UNL     1       1.665   1.903  -0.050  0.00  0.00    +0.003 C 
ATOM      5  C   UNL     1       2.336   0.741   0.677  0.00  0.00    +0.020 C 
ATOM      6  C   UNL     1       3.761   0.464   0.271  0.00  0.00    +0.043 C 
ATOM      7  C   UNL     1       4.008   0.589  -1.234  0.00  0.00    +0.119 C 
ATOM      8  C   UNL     1       3.602   2.000  -1.660  0.00  0.00    +0.031 C 
ATOM      9  C   UNL     1       2.076   2.061  -1.511  0.00  0.00    -0.001 C 
ATOM     10  C   UNL     1       1.423   0.992  -2.381  0.00  0.00    +0.008 C 
ATOM     11  C   UNL     1       1.775   1.199  -3.854  0.00  0.00    +0.032 C 
ATOM     12  C   UNL     1       3.272   1.373  -4.019  0.00  0.00    -0.060 C 
ATOM     13  C   UNL     1       3.875   0.701  -4.995  0.00  0.00    +0.046 C 
ATOM     14  C   UNL     1       5.296   0.921  -5.274  0.00  0.00    +0.156 C 
ATOM     15  O   UNL     1       5.951   0.110  -5.899  0.00  0.00    -0.293 OA
ATOM     16  C   UNL     1       5.911   2.201  -4.752  0.00  0.00    +0.080 C 
ATOM     17  C   UNL     1       5.485   2.401  -3.299  0.00  0.00    +0.019 C 
ATOM     18  C   UNL     1       3.988   2.319  -3.103  0.00  0.00    -0.005 C 
ATOM     19  C   UNL     1       3.462   3.732  -3.427  0.00  0.00    +0.016 C 
ATOM     20  C   UNL     1       2.373   1.103   2.183  0.00  0.00    +0.016 C 
ENDROOT
BRANCH   7  21
ATOM     21  O   UNL     1       5.385   0.310  -1.477  0.00  0.00    -0.391 OA
ATOM     22  H   UNL     1       5.662  -0.575  -1.200  0.00  0.00    +0.210 HD
ENDBRANCH   7  21
BRANCH   1  23
ATOM     23  C   UNL     1       1.216  -1.123   1.899  0.00  0.00    +0.202 C 
ATOM     24  O   UNL     1       0.271  -0.798   2.577  0.00  0.00    -0.291 OA
BRANCH  23  25
ATOM     25  C   UNL     1       2.185  -2.159   2.405  0.00  0.00    +0.234 C 
BRANCH  25  26
ATOM     26  O   UNL     1       1.718  -2.680   3.651  0.00  0.00    -0.387 OA
ATOM     27  H   UNL     1       2.295  -3.354   4.036  0.00  0.00    +0.210 HD
ENDBRANCH  25  26
ENDBRANCH  23  25
ENDBRANCH   1  23
BRANCH   1  28
ATOM     28  O   UNL     1       2.006  -1.472  -0.361  0.00  0.00    -0.450 OA
BRANCH  28  30
ATOM     29  C   UNL     1       1.734  -3.537  -1.687  0.00  0.00    +0.136 C 
ATOM     30  C   UNL     1       1.246  -2.534  -0.673  0.00  0.00    +0.305 C 
ATOM     31  O   UNL     1       0.172  -2.686  -0.141  0.00  0.00    -0.251 OA
ENDBRANCH  28  30
ENDBRANCH   1  28
TORSDOF 6
