REMARK  Name = ZINC44452669
REMARK  3 active torsions:
REMARK  status: ('A' for Active; 'I' for Inactive)
REMARK    1  A    between atoms: C_9  and  C_12
REMARK    2  A    between atoms: N_14  and  C_15
REMARK    3  A    between atoms: C_16  and  C_23
REMARK                            x       y       z     vdW  Elec       q    Type
REMARK                         _______ _______ _______ _____ _____    ______ ____
ROOT
ATOM      1  C   UNL     1       6.342  -4.516  -0.054  0.00  0.00    +0.085 A 
ATOM      2  C   UNL     1       6.759  -5.807  -0.325  0.00  0.00    +0.069 A 
ATOM      3  C   UNL     1       8.090  -6.192   0.143  0.00  0.00    -0.023 A 
ATOM      4  C   UNL     1       8.748  -5.215   0.792  0.00  0.00    -0.004 A 
ATOM      5  S   UNL     1       7.635  -3.833   0.768  0.00  0.00    -0.077 S 
ATOM      6  C   UNL     1      10.107  -5.665   1.255  0.00  0.00    +0.043 C 
ATOM      7  C   UNL     1      10.053  -7.207   1.182  0.00  0.00    +0.010 C 
ATOM      8  C   UNL     1       8.978  -7.434   0.100  0.00  0.00    +0.037 C 
ENDROOT
BRANCH   2   9
ATOM      9  C   UNL     1       5.903  -6.749  -1.049  0.00  0.00    +0.254 C 
ATOM     10  O   UNL     1       5.962  -6.816  -2.263  0.00  0.00    -0.270 OA
ATOM     11  N   UNL     1       5.049  -7.542  -0.372  0.00  0.00    -0.236 N 
ATOM     12  C   UNL     1       4.261  -8.409  -1.039  0.00  0.00    +0.304 C 
ATOM     13  O   UNL     1       4.321  -8.475  -2.251  0.00  0.00    -0.253 OA
ATOM     14  N   UNL     1       3.408  -9.202  -0.361  0.00  0.00    -0.313 N 
ATOM     15  H   UNL     1       5.002  -7.489   0.595  0.00  0.00    +0.159 HD
ATOM     16  H   UNL     1       3.361  -9.149   0.606  0.00  0.00    +0.146 HD
ATOM     17  H   UNL     1       2.841  -9.826  -0.841  0.00  0.00    +0.146 HD
ENDBRANCH   2   9
BRANCH   1  20
ATOM     18  C   UNL     1       4.898  -2.639  -0.050  0.00  0.00    +0.262 C 
ATOM     19  O   UNL     1       5.739  -2.006   0.552  0.00  0.00    -0.271 OA
ATOM     20  N   UNL     1       5.136  -3.921  -0.391  0.00  0.00    -0.276 N 
ATOM     21  H   UNL     1       4.464  -4.428  -0.873  0.00  0.00    +0.155 HD
BRANCH  18  30
ATOM     22  C   UNL     1      -0.017   1.378   0.010  0.00  0.00    +0.004 A 
ATOM     23  C   UNL     1       1.170   2.088   0.002  0.00  0.00    +0.004 A 
ATOM     24  C   UNL     1       2.378   1.418  -0.012  0.00  0.00    +0.049 A 
ATOM     25  C   UNL     1       2.404   0.031  -0.019  0.00  0.00    +0.163 A 
ATOM     26  C   UNL     1       1.212  -0.683  -0.014  0.00  0.00    +0.162 A 
ATOM     27  C   UNL     1       0.002  -0.004   0.002  0.00  0.00    +0.049 A 
ATOM     28  O   UNL     1       1.214  -2.043  -0.029  0.00  0.00    -0.484 OA
ATOM     29  C   UNL     1       2.441  -2.689   0.331  0.00  0.00    +0.283 C 
ATOM     30  C   UNL     1       3.587  -1.993  -0.416  0.00  0.00    +0.296 C 
ATOM     31  O   UNL     1       3.602  -0.615  -0.029  0.00  0.00    -0.473 OA
ENDBRANCH  18  30
ENDBRANCH   1  20
TORSDOF 3
