REMARK  Name = ZINC11369576
REMARK  7 active torsions:
REMARK  status: ('A' for Active; 'I' for Inactive)
REMARK    1  A    between atoms: C_1  and  C_2
REMARK    2  A    between atoms: C_2  and  C_4
REMARK    3  A    between atoms: C_2  and  N_10
REMARK    4  A    between atoms: C_11  and  C_13
REMARK    5  A    between atoms: C_18  and  N_19
REMARK    6  A    between atoms: C_20  and  C_22
REMARK    7  A    between atoms: C_22  and  N_23
REMARK                            x       y       z     vdW  Elec       q    Type
REMARK                         _______ _______ _______ _____ _____    ______ ____
ROOT
ATOM      1  N   UNL     1      -0.337  -0.356  -4.984  0.00  0.00    -0.284 N 
ATOM      2  C   UNL     1      -0.120  -0.868  -6.211  0.00  0.00    +0.235 C 
ATOM      3  O   UNL     1      -0.578  -0.315  -7.189  0.00  0.00    -0.274 OA
ATOM      4  H   UNL     1       0.092  -0.753  -4.210  0.00  0.00    +0.155 HD
ENDROOT
BRANCH   1  10
ATOM      5  C   UNL     1      -0.898   1.710  -3.848  0.00  0.00    +0.058 A 
ATOM      6  C   UNL     1      -1.752   2.805  -3.697  0.00  0.00    +0.015 A 
ATOM      7  C   UNL     1      -2.853   2.936  -4.514  0.00  0.00    +0.001 A 
ATOM      8  C   UNL     1      -3.126   1.980  -5.479  0.00  0.00    +0.002 A 
ATOM      9  C   UNL     1      -2.295   0.890  -5.637  0.00  0.00    +0.024 A 
ATOM     10  C   UNL     1      -1.177   0.744  -4.826  0.00  0.00    +0.046 A 
BRANCH   5  12
ATOM     11  N   UNL     1       0.606   2.544  -2.109  0.00  0.00    -0.305 N 
ATOM     12  C   UNL     1       0.285   1.566  -2.979  0.00  0.00    +0.246 C 
ATOM     13  O   UNL     1       0.972   0.565  -3.049  0.00  0.00    -0.270 OA
ATOM     14  H   UNL     1       0.058   3.342  -2.054  0.00  0.00    +0.150 HD
BRANCH  11  16
ATOM     15  C   UNL     1       3.028   2.866  -2.002  0.00  0.00    +0.033 C 
ATOM     16  C   UNL     1       1.781   2.401  -1.247  0.00  0.00    +0.100 C 
BRANCH  16  17
ATOM     17  C   UNL     1       1.601   3.241  -0.009  0.00  0.00    -0.027 A 
ATOM     18  C   UNL     1       1.038   4.500  -0.104  0.00  0.00    +0.005 A 
ATOM     19  C   UNL     1       0.869   5.269   1.032  0.00  0.00    +0.000 A 
ATOM     20  C   UNL     1       1.272   4.783   2.262  0.00  0.00    +0.000 A 
ATOM     21  C   UNL     1       1.839   3.527   2.357  0.00  0.00    +0.000 A 
ATOM     22  C   UNL     1       2.005   2.756   1.221  0.00  0.00    +0.005 A 
ENDBRANCH  16  17
ENDBRANCH  11  16
ENDBRANCH   5  12
ENDBRANCH   1  10
BRANCH   2  23
ATOM     23  C   UNL     1       0.692  -2.127  -6.370  0.00  0.00    +0.214 C 
BRANCH  23  24
ATOM     24  N   UNL     1       0.782  -2.475  -7.790  0.00  0.00    -0.215 N 
ATOM     25  C   UNL     1       1.759  -2.044  -8.615  0.00  0.00    +0.251 C 
ATOM     26  O   UNL     1       2.692  -1.323  -8.334  0.00  0.00    -0.272 OA
ATOM     27  C   UNL     1       1.444  -2.648  -9.965  0.00  0.00    +0.138 C 
ATOM     28  C   UNL     1       2.574  -3.569 -10.409  0.00  0.00    +0.040 C 
ATOM     29  C   UNL     1       3.772  -2.705 -10.821  0.00  0.00    +0.008 C 
ATOM     30  C   UNL     1       3.413  -1.964 -12.108  0.00  0.00    +0.035 C 
ATOM     31  C   UNL     1       2.099  -1.244 -11.959  0.00  0.00    -0.042 A 
ATOM     32  C   UNL     1       1.190  -1.563 -10.973  0.00  0.00    -0.012 A 
ATOM     33  C   UNL     1      -0.009  -0.866 -10.893  0.00  0.00    +0.006 A 
ATOM     34  C   UNL     1      -0.294   0.143 -11.789  0.00  0.00    +0.000 A 
ATOM     35  C   UNL     1       0.619   0.465 -12.775  0.00  0.00    +0.000 A 
ATOM     36  C   UNL     1       1.810  -0.228 -12.858  0.00  0.00    +0.004 A 
ATOM     37  N   UNL     1       0.217  -3.422  -9.730  0.00  0.00    -0.281 N 
ATOM     38  C   UNL     1      -0.090  -3.264  -8.428  0.00  0.00    +0.310 C 
ATOM     39  O   UNL     1      -1.054  -3.776  -7.894  0.00  0.00    -0.252 OA
ATOM     40  H   UNL     1      -0.273  -3.946 -10.382  0.00  0.00    +0.152 HD
ENDBRANCH  23  24
ENDBRANCH   2  23
TORSDOF 6
