REMARK  Name = ZINC10167074
REMARK  8 active torsions:
REMARK  status: ('A' for Active; 'I' for Inactive)
REMARK    1  A    between atoms: C_1  and  C_2
REMARK    2  A    between atoms: C_2  and  C_3
REMARK    3  A    between atoms: C_6  and  C_9
REMARK    4  A    between atoms: C_9  and  C_11
REMARK    5  A    between atoms: C_9  and  N_22
REMARK    6  A    between atoms: C_12  and  O_21
REMARK    7  A    between atoms: C_17  and  C_19
REMARK    8  A    between atoms: C_19  and  C_20
REMARK                            x       y       z     vdW  Elec       q    Type
REMARK                         _______ _______ _______ _____ _____    ______ ____
ROOT
ATOM      1  C   UNL     1       2.707  -1.868  -4.752  0.00  0.00    +0.005 C 
ENDROOT
BRANCH   1   2
ATOM      2  N   UNL     1       3.721  -2.863  -4.380  0.00  0.00    +0.388 N 
ATOM      3  C   UNL     1       3.072  -3.990  -3.700  0.00  0.00    -0.072 C 
ATOM      4  C   UNL     1       4.133  -4.990  -3.234  0.00  0.00    +0.046 C 
ATOM      5  C   UNL     1       4.915  -5.497  -4.448  0.00  0.00    +0.167 C 
ATOM      6  C   UNL     1       5.522  -4.309  -5.198  0.00  0.00    +0.046 C 
ATOM      7  C   UNL     1       4.407  -3.336  -5.588  0.00  0.00    -0.072 C 
ATOM      8  O   UNL     1       5.964  -6.375  -4.010  0.00  0.00    -0.346 OA
ATOM      9  C   UNL     1       5.408  -7.706  -4.134  0.00  0.00    +0.191 C 
ATOM     10  C   UNL     1       4.542  -7.568  -5.411  0.00  0.00    +0.191 C 
ATOM     11  O   UNL     1       4.038  -6.220  -5.319  0.00  0.00    -0.346 OA
ATOM     12  H   UNL     1       4.393  -2.440  -3.757  0.00  0.00    -0.080 HD
ENDBRANCH   1   2
BRANCH   1  13
ATOM     13  C   UNL     1       3.373  -0.705  -5.441  0.00  0.00    +0.045 A 
ATOM     14  C   UNL     1       3.112  -0.170  -6.639  0.00  0.00    +0.225 A 
ATOM     15  N   UNL     1       3.837   0.902  -7.101  0.00  0.00    -0.173 N 
ATOM     16  C   UNL     1       4.820   1.385  -6.291  0.00  0.00    +0.199 A 
ATOM     17  S   UNL     1       4.715   0.327  -4.868  0.00  0.00    -0.050 S 
ATOM     18  N   UNL     1       5.409   2.394  -6.872  0.00  0.00    -0.205 NA
ATOM     19  C   UNL     1       4.848   2.607  -8.060  0.00  0.00    +0.152 A 
ATOM     20  N   UNL     1       3.894   1.735  -8.248  0.00  0.00    -0.147 NA
BRANCH  19  21
ATOM     21  C   UNL     1       5.249   3.685  -9.034  0.00  0.00    +0.075 C 
ATOM     22  C   UNL     1       6.330   3.147  -9.973  0.00  0.00    +0.012 C 
ENDBRANCH  19  21
BRANCH  14  23
ATOM     23  O   UNL     1       2.119  -0.692  -7.408  0.00  0.00    -0.492 OA
ATOM     24  H   UNL     1       2.000  -0.243  -8.256  0.00  0.00    +0.294 HD
ENDBRANCH  14  23
ENDBRANCH   1  13
BRANCH   1  28
ATOM     25  C   UNL     1       0.707  -0.490  -1.238  0.00  0.00    -0.048 A 
ATOM     26  C   UNL     1      -0.011  -0.719  -2.397  0.00  0.00    +0.004 A 
ATOM     27  C   UNL     1       0.636  -1.164  -3.534  0.00  0.00    +0.002 A 
ATOM     28  C   UNL     1       2.002  -1.381  -3.513  0.00  0.00    -0.056 A 
ATOM     29  C   UNL     1       2.720  -1.152  -2.354  0.00  0.00    +0.002 A 
ATOM     30  C   UNL     1       2.073  -0.702  -1.218  0.00  0.00    +0.004 A 
BRANCH  25  32
ATOM     31  C   UNL     1      -0.019   1.526   0.010  0.00  0.00    +0.009 C 
ATOM     32  C   UNL     1       0.002  -0.004   0.002  0.00  0.00    +0.032 C 
ENDBRANCH  25  32
ENDBRANCH   1  28
TORSDOF 6
