REMARK  Name = ZINC21172292
REMARK  6 active torsions:
REMARK  status: ('A' for Active; 'I' for Inactive)
REMARK    1  A    between atoms: C_4  and  C_7
REMARK    2  A    between atoms: C_18  and  C_20
REMARK    3  A    between atoms: C_20  and  O_21
REMARK    4  A    between atoms: O_21  and  C_22
REMARK    5  A    between atoms: C_22  and  C_24
REMARK    6  A    between atoms: C_28  and  N_30
REMARK                            x       y       z     vdW  Elec       q    Type
REMARK                         _______ _______ _______ _____ _____    ______ ____
ROOT
ATOM      1  C   UNL     1      -3.671   1.783  -0.238  0.00  0.00    +0.149 C 
ATOM      2  C   UNL     1      -3.576   3.129   0.493  0.00  0.00    +0.256 C 
ATOM      3  O   UNL     1      -2.413   3.823   0.034  0.00  0.00    -0.488 OA
ATOM      4  C   UNL     1      -1.237   3.142   0.011  0.00  0.00    +0.142 A 
ATOM      5  C   UNL     1      -0.040   3.842  -0.012  0.00  0.00    +0.047 A 
ATOM      6  C   UNL     1       1.161   3.157  -0.040  0.00  0.00    +0.004 A 
ATOM      7  C   UNL     1       1.176   1.775  -0.047  0.00  0.00    +0.002 A 
ATOM      8  C   UNL     1      -0.013   1.069  -0.024  0.00  0.00    +0.027 A 
ATOM      9  C   UNL     1      -1.220   1.750   0.001  0.00  0.00    +0.079 A 
ATOM     10  N   UNL     1      -2.430   1.037   0.038  0.00  0.00    -0.255 N 
ATOM     11  C   UNL     1      -2.456  -0.282   0.313  0.00  0.00    +0.258 C 
ATOM     12  O   UNL     1      -1.418  -0.891   0.462  0.00  0.00    -0.271 OA
ENDROOT
BRANCH   1  16
ATOM     13  C   UNL     1      -4.062   2.441  -4.441  0.00  0.00    +0.000 A 
ATOM     14  C   UNL     1      -5.179   2.151  -3.680  0.00  0.00    +0.000 A 
ATOM     15  C   UNL     1      -5.052   1.937  -2.320  0.00  0.00    +0.005 A 
ATOM     16  C   UNL     1      -3.809   2.015  -1.721  0.00  0.00    -0.023 A 
ATOM     17  C   UNL     1      -2.693   2.311  -2.481  0.00  0.00    +0.005 A 
ATOM     18  C   UNL     1      -2.819   2.519  -3.842  0.00  0.00    +0.000 A 
ENDBRANCH   1  16
BRANCH  11  19
ATOM     19  C   UNL     1      -3.775  -1.001   0.434  0.00  0.00    +0.328 C 
BRANCH  19  20
ATOM     20  O   UNL     1      -3.542  -2.373   0.846  0.00  0.00    -0.452 OA
BRANCH  20  21
ATOM     21  C   UNL     1      -4.626  -3.158   1.002  0.00  0.00    +0.340 C 
ATOM     22  O   UNL     1      -5.736  -2.707   0.798  0.00  0.00    -0.245 OA
BRANCH  21  23
ATOM     23  C   UNL     1      -4.466  -4.565   1.419  0.00  0.00    +0.061 A 
ATOM     24  C   UNL     1      -3.190  -5.087   1.648  0.00  0.00    +0.016 A 
ATOM     25  C   UNL     1      -3.043  -6.400   2.043  0.00  0.00    +0.022 A 
ATOM     26  C   UNL     1      -4.155  -7.208   2.204  0.00  0.00    +0.062 A 
ATOM     27  C   UNL     1      -5.429  -6.699   1.973  0.00  0.00    +0.044 A 
ATOM     28  C   UNL     1      -5.588  -5.380   1.581  0.00  0.00    +0.039 A 
ATOM     29 CL   UNL     1      -3.959  -8.862   2.695  0.00  0.00    -0.082 Cl
BRANCH  27  30
ATOM     30  N   UNL     1      -6.550  -7.519   2.137  0.00  0.00    -0.357 N 
ATOM     31  H   UNL     1      -7.557  -7.117   1.954  0.00  0.00    +0.142 HD
ATOM     32  H   UNL     1      -6.424  -8.566   2.449  0.00  0.00    +0.142 HD
ENDBRANCH  27  30
ENDBRANCH  21  23
ENDBRANCH  20  21
ENDBRANCH  19  20
ENDBRANCH  11  19
TORSDOF 6
