REMARK  Name = ZINC20970034
REMARK  8 active torsions:
REMARK  status: ('A' for Active; 'I' for Inactive)
REMARK    1  A    between atoms: C_1  and  C_2
REMARK    2  A    between atoms: C_7  and  C_10
REMARK    3  A    between atoms: C_11  and  C_13
REMARK    4  A    between atoms: C_13  and  S_14
REMARK    5  A    between atoms: S_14  and  C_15
REMARK    6  A    between atoms: C_18  and  C_23
REMARK    7  A    between atoms: N_19  and  C_20
REMARK    8  A    between atoms: C_20  and  C_21
REMARK                            x       y       z     vdW  Elec       q    Type
REMARK                         _______ _______ _______ _____ _____    ______ ____
ROOT
ATOM      1  C   UNL     1      -2.841  -6.851  -1.310  0.00  0.00    +0.192 A 
ATOM      2  N   UNL     1      -2.135  -7.370  -0.332  0.00  0.00    -0.122 NA
ATOM      3  N   UNL     1      -2.231  -8.651  -0.357  0.00  0.00    -0.129 NA
ATOM      4  C   UNL     1      -2.998  -9.023  -1.342  0.00  0.00    +0.179 A 
ATOM      5  N   UNL     1      -3.418  -7.890  -1.981  0.00  0.00    -0.299 N 
ENDROOT
BRANCH   4   6
ATOM      6  C   UNL     1      -3.358 -10.440  -1.707  0.00  0.00    +0.278 C 
ATOM      7  C   UNL     1      -4.378 -10.990  -0.700  0.00  0.00    +0.281 C 
ATOM      8  O   UNL     1      -4.687 -12.339  -1.066  0.00  0.00    -0.484 OA
ATOM      9  C   UNL     1      -3.635 -13.148  -1.368  0.00  0.00    +0.162 A 
ATOM     10  C   UNL     1      -3.813 -14.523  -1.375  0.00  0.00    +0.049 A 
ATOM     11  C   UNL     1      -2.755 -15.357  -1.682  0.00  0.00    +0.004 A 
ATOM     12  C   UNL     1      -1.516 -14.823  -1.983  0.00  0.00    +0.004 A 
ATOM     13  C   UNL     1      -1.331 -13.453  -1.976  0.00  0.00    +0.049 A 
ATOM     14  C   UNL     1      -2.388 -12.611  -1.668  0.00  0.00    +0.163 A 
ATOM     15  O   UNL     1      -2.189 -11.264  -1.658  0.00  0.00    -0.474 OA
ENDBRANCH   4   6
BRANCH   1  16
ATOM     16  S   UNL     1      -3.017  -5.137  -1.680  0.00  0.00    -0.077 S 
BRANCH  16  17
ATOM     17  C   UNL     1      -2.005  -4.310  -0.422  0.00  0.00    +0.173 C 
BRANCH  17  26
ATOM     18  C   UNL     1      -0.019   1.526   0.010  0.00  0.00    +0.039 C 
ATOM     19  C   UNL     1       0.002  -0.004   0.002  0.00  0.00    +0.133 C 
ATOM     20  C   UNL     1      -1.436  -0.536   0.015  0.00  0.00    +0.139 C 
ATOM     21  N   UNL     1      -1.389  -1.995   0.196  0.00  0.00    -0.296 N 
ATOM     22  C   UNL     1      -0.578  -2.530   1.302  0.00  0.00    +0.139 C 
ATOM     23  C   UNL     1       0.818  -1.901   1.226  0.00  0.00    +0.133 C 
ATOM     24  O   UNL     1       0.691  -0.479   1.161  0.00  0.00    -0.371 OA
ATOM     25  C   UNL     1       1.621  -2.288   2.469  0.00  0.00    +0.039 C 
ATOM     26  C   UNL     1      -2.068  -2.818  -0.627  0.00  0.00    +0.226 C 
ATOM     27  O   UNL     1      -2.731  -2.358  -1.533  0.00  0.00    -0.275 OA
ENDBRANCH  17  26
ENDBRANCH  16  17
ENDBRANCH   1  16
BRANCH   5  28
ATOM     28  C   UNL     1      -4.302  -7.808  -3.147  0.00  0.00    +0.152 C 
BRANCH  28  29
ATOM     29  C   UNL     1      -3.477  -7.851  -4.407  0.00  0.00    -0.013 C 
ATOM     30  C   UNL     1      -3.730  -8.751  -5.325  0.00  0.00    +0.005 C 
ENDBRANCH  28  29
ENDBRANCH   5  28
TORSDOF 6
