REMARK  Name = ZINC00480231
REMARK  3 active torsions:
REMARK  status: ('A' for Active; 'I' for Inactive)
REMARK    1  A    between atoms: N_7  and  C_12
REMARK    2  A    between atoms: C_12  and  C_13
REMARK    3  A    between atoms: C_16  and  N_19
REMARK                            x       y       z     vdW  Elec       q    Type
REMARK                         _______ _______ _______ _____ _____    ______ ____
ROOT
ATOM      1  C   UNL     1      -1.217   1.760  -0.020  0.00  0.00    +0.002 A 
ATOM      2  C   UNL     1      -1.245   3.143  -0.009  0.00  0.00    +0.001 A 
ATOM      3  C   UNL     1      -0.060   3.857  -0.004  0.00  0.00    +0.016 A 
ATOM      4  C   UNL     1       1.150   3.184  -0.004  0.00  0.00    +0.030 A 
ATOM      5  C   UNL     1       1.186   1.789  -0.012  0.00  0.00    +0.050 A 
ATOM      6  C   UNL     1      -0.013   1.085  -0.017  0.00  0.00    +0.024 A 
ATOM      7  N   UNL     1       2.391   1.091  -0.020  0.00  0.00    -0.265 N 
ATOM      8  C   UNL     1       3.573   1.558   0.372  0.00  0.00    +0.230 C 
ATOM      9  O   UNL     1       4.531   0.816   0.310  0.00  0.00    -0.274 OA
ATOM     10  C   UNL     1       3.789   2.954   0.889  0.00  0.00    +0.170 C 
ATOM     11  S   UNL     1       2.669   4.083   0.007  0.00  0.00    -0.114 S 
ENDROOT
BRANCH   7  12
ATOM     12  C   UNL     1       2.352  -0.290  -0.507  0.00  0.00    +0.148 C 
BRANCH  12  13
ATOM     13  C   UNL     1       2.458  -0.296  -2.010  0.00  0.00    -0.030 A 
ATOM     14  C   UNL     1       1.313  -0.241  -2.783  0.00  0.00    +0.007 A 
ATOM     15  C   UNL     1       1.410  -0.243  -4.162  0.00  0.00    +0.033 A 
ATOM     16  C   UNL     1       2.651  -0.307  -4.768  0.00  0.00    +0.126 A 
ATOM     17  C   UNL     1       3.795  -0.367  -3.995  0.00  0.00    +0.033 A 
ATOM     18  C   UNL     1       3.699  -0.361  -2.616  0.00  0.00    +0.007 A 
BRANCH  16  19
ATOM     19  N   UNL     1       2.754  -0.313  -6.245  0.00  0.00    +0.056 N 
ATOM     20  O   UNL     1       3.848  -0.370  -6.778  0.00  0.00    -0.126 OA
ATOM     21  O   UNL     1       1.746  -0.260  -6.926  0.00  0.00    -0.126 OA
ENDBRANCH  16  19
ENDBRANCH  12  13
ENDBRANCH   7  12
TORSDOF 3
