REMARK  Name = ZINC12150179
REMARK  10 active torsions:
REMARK  status: ('A' for Active; 'I' for Inactive)
REMARK    1  A    between atoms: C_1  and  C_2
REMARK    2  A    between atoms: C_2  and  C_3
REMARK    3  A    between atoms: C_3  and  C_4
REMARK    4  A    between atoms: C_4  and  C_19
REMARK    5  A    between atoms: N_7  and  C_11
REMARK    6  A    between atoms: C_11  and  C_12
REMARK    7  A    between atoms: C_12  and  C_13
REMARK    8  A    between atoms: C_24  and  C_25
REMARK    9  A    between atoms: C_24  and  N_67
REMARK   10  A    between atoms: C_26  and  C_27
REMARK                            x       y       z     vdW  Elec       q    Type
REMARK                         _______ _______ _______ _____ _____    ______ ____
ROOT
ATOM      1  C   UNL     1      -1.902   3.772   1.878  0.00  0.00    +0.115 C 
ATOM      2  C   UNL     1      -1.129   3.087   2.988  0.00  0.00    +0.247 C 
ATOM      3  O   UNL     1       0.045   3.223   3.254  0.00  0.00    -0.273 OA
ATOM      4  N   UNL     1      -2.020   2.294   3.616  0.00  0.00    -0.224 N 
ATOM      5  C   UNL     1      -3.235   2.382   3.064  0.00  0.00    +0.309 C 
ATOM      6  O   UNL     1      -4.203   1.761   3.457  0.00  0.00    -0.252 OA
ATOM      7  N   UNL     1      -3.266   3.235   2.024  0.00  0.00    -0.285 N 
ATOM      8  H   UNL     1      -4.037   3.455   1.477  0.00  0.00    +0.151 HD
ENDROOT
BRANCH   1   9
ATOM      9  C   UNL     1      -1.897   5.290   2.072  0.00  0.00    +0.018 C 
ATOM     10  C   UNL     1      -0.478   5.827   1.865  0.00  0.00    -0.013 C 
ATOM     11  C   UNL     1      -0.467   7.336   2.121  0.00  0.00    -0.078 C 
ATOM     12  C   UNL     1      -2.296   7.141   3.699  0.00  0.00    -0.078 C 
ATOM     13  C   UNL     1      -2.361   5.626   3.491  0.00  0.00    -0.013 C 
ATOM     14  N   UNL     1      -0.900   7.591   3.511  0.00  0.00    +0.383 N 
ATOM     15  H   UNL     1      -0.292   7.066   4.151  0.00  0.00    -0.081 HD
BRANCH  14  16
ATOM     16  C   UNL     1      -0.790   9.032   3.818  0.00  0.00    -0.030 C 
BRANCH  16  17
ATOM     17  C   UNL     1       0.559   9.531   3.366  0.00  0.00    +0.003 C 
ATOM     18  C   UNL     1       0.641  10.442   2.404  0.00  0.00    +0.021 C 
ATOM     19 CL   UNL     1       2.004   8.913   4.102  0.00  0.00    -0.090 Cl
BRANCH  18  20
ATOM     20  C   UNL     1       1.946  11.050   2.072  0.00  0.00    -0.024 A 
ATOM     21  C   UNL     1       2.899  11.255   3.071  0.00  0.00    +0.008 A 
ATOM     22  C   UNL     1       4.118  11.817   2.753  0.00  0.00    +0.001 A 
ATOM     23  C   UNL     1       4.393  12.188   1.449  0.00  0.00    +0.000 A 
ATOM     24  C   UNL     1       3.451  11.993   0.455  0.00  0.00    +0.001 A 
ATOM     25  C   UNL     1       2.230  11.426   0.758  0.00  0.00    +0.008 A 
ENDBRANCH  18  20
ENDBRANCH  16  17
ENDBRANCH  14  16
ENDBRANCH   1   9
BRANCH   1  26
ATOM     26  C   UNL     1      -1.322   3.403   0.511  0.00  0.00    +0.035 C 
BRANCH  26  28
ATOM     27  C   UNL     1      -0.824   1.520  -1.053  0.00  0.00    +0.004 C 
ATOM     28  C   UNL     1      -1.404   1.888   0.314  0.00  0.00    -0.001 C 
ENDBRANCH  26  28
ENDBRANCH   1  26
BRANCH   4  29
ATOM     29  C   UNL     1      -1.697   1.441   4.763  0.00  0.00    +0.124 C 
BRANCH  29  30
ATOM     30  C   UNL     1      -1.256   0.063   4.264  0.00  0.00    +0.075 C 
BRANCH  30  31
ATOM     31  C   UNL     1      -0.923  -0.815   5.443  0.00  0.00    +0.043 A 
ATOM     32  C   UNL     1      -1.549  -2.039   5.581  0.00  0.00    +0.023 A 
ATOM     33  C   UNL     1      -1.236  -2.839   6.669  0.00  0.00    +0.003 A 
ATOM     34  C   UNL     1      -0.301  -2.376   7.582  0.00  0.00    +0.020 A 
ATOM     35  C   UNL     1       0.283  -1.140   7.378  0.00  0.00    +0.111 A 
ATOM     36  N   UNL     1      -0.035  -0.408   6.329  0.00  0.00    -0.260 NA
ENDBRANCH  30  31
ENDBRANCH  29  30
ENDBRANCH   4  29
TORSDOF 9
