REMARK  Name = ZINC01085020
REMARK  9 active torsions:
REMARK  status: ('A' for Active; 'I' for Inactive)
REMARK    1  A    between atoms: C_6  and  C_7
REMARK    2  A    between atoms: C_7  and  O_8
REMARK    3  A    between atoms: O_8  and  C_9
REMARK    4  A    between atoms: C_12  and  C_18
REMARK    5  A    between atoms: C_14  and  N_15
REMARK    6  A    between atoms: C_27  and  C_35
REMARK    7  A    between atoms: C_28  and  N_34
REMARK    8  A    between atoms: C_29  and  C_30
REMARK    9  A    between atoms: C_29  and  C_32
REMARK                            x       y       z     vdW  Elec       q    Type
REMARK                         _______ _______ _______ _____ _____    ______ ____
ROOT
ATOM      1  C   UNL     1       1.291  -8.234  -2.142  0.00  0.00    +0.066 C 
ATOM      2  C   UNL     1       0.136  -8.873  -1.370  0.00  0.00    +0.030 C 
ATOM      3  C   UNL     1      -1.205  -8.564  -1.992  0.00  0.00    +0.009 C 
ATOM      4  C   UNL     1      -1.936  -7.446  -1.252  0.00  0.00    +0.005 C 
ATOM      5  C   UNL     1      -2.117  -7.873   0.212  0.00  0.00    +0.027 C 
ATOM      6  C   UNL     1      -0.745  -8.055   0.808  0.00  0.00    -0.022 C 
ATOM      7  C   UNL     1       0.262  -8.483   0.073  0.00  0.00    -0.029 C 
ATOM      8  C   UNL     1       1.614  -8.595   0.681  0.00  0.00    +0.074 C 
ATOM      9  C   UNL     1       2.695  -8.733  -0.127  0.00  0.00    +0.054 C 
ATOM     10  C   UNL     1       2.610  -8.806  -1.621  0.00  0.00    +0.188 C 
ENDROOT
BRANCH   1  14
ATOM     11  C   UNL     1       1.238  -4.001  -1.558  0.00  0.00    +0.151 A 
ATOM     12  C   UNL     1       1.893  -4.819  -0.650  0.00  0.00    +0.048 A 
ATOM     13  C   UNL     1       1.904  -6.188  -0.838  0.00  0.00    +0.008 A 
ATOM     14  C   UNL     1       1.272  -6.741  -1.936  0.00  0.00    -0.038 A 
ATOM     15  C   UNL     1       0.622  -5.927  -2.846  0.00  0.00    +0.040 A 
ATOM     16  C   UNL     1       0.604  -4.558  -2.659  0.00  0.00    +0.168 A 
BRANCH  16  17
ATOM     17  N   UNL     1      -0.091  -3.687  -3.634  0.00  0.00    +0.060 N 
ATOM     18  O   UNL     1      -0.647  -4.177  -4.600  0.00  0.00    -0.126 OA
ATOM     19  O   UNL     1      -0.106  -2.481  -3.469  0.00  0.00    -0.126 OA
ENDBRANCH  16  17
BRANCH  11  20
ATOM     20  O   UNL     1       1.221  -2.654  -1.373  0.00  0.00    -0.485 OA
BRANCH  20  21
ATOM     21  C   UNL     1       1.894  -2.150  -0.218  0.00  0.00    +0.264 C 
BRANCH  21  27
ATOM     22  C   UNL     1       0.703  -0.060   0.470  0.00  0.00    +0.008 A 
ATOM     23  C   UNL     1       0.589   1.317   0.505  0.00  0.00    +0.020 A 
ATOM     24  C   UNL     1       1.544   2.106  -0.111  0.00  0.00    +0.041 A 
ATOM     25  C   UNL     1       2.613   1.516  -0.760  0.00  0.00    +0.020 A 
ATOM     26  C   UNL     1       2.726   0.139  -0.795  0.00  0.00    +0.008 A 
ATOM     27  C   UNL     1       1.771  -0.649  -0.180  0.00  0.00    -0.010 A 
ATOM     28 CL   UNL     1       1.401   3.836  -0.068  0.00  0.00    -0.084 Cl
ENDBRANCH  21  27
ENDBRANCH  20  21
ENDBRANCH  11  20
ENDBRANCH   1  14
BRANCH   9  29
ATOM     29  N   UNL     1       3.929  -8.809   0.454  0.00  0.00    -0.358 N 
ATOM     30  H   UNL     1       4.826  -8.921  -0.173  0.00  0.00    +0.142 HD
ATOM     31  H   UNL     1       4.027  -8.758   1.548  0.00  0.00    +0.142 HD
ENDBRANCH   9  29
BRANCH  10  32
ATOM     32  C   UNL     1       2.721 -10.213  -2.040  0.00  0.00    +0.091 C 
ATOM     33  N   UNL     1       2.808 -11.298  -2.364  0.00  0.00    -0.194 NA
ENDBRANCH  10  32
BRANCH  10  34
ATOM     34  C   UNL     1       3.727  -8.044  -2.203  0.00  0.00    +0.091 C 
ATOM     35  N   UNL     1       4.589  -7.455  -2.652  0.00  0.00    -0.194 NA
ENDBRANCH  10  34
BRANCH   8  36
ATOM     36  C   UNL     1       1.773  -8.557   2.104  0.00  0.00    +0.101 C 
ATOM     37  N   UNL     1       1.900  -8.526   3.232  0.00  0.00    -0.191 NA
ENDBRANCH   8  36
TORSDOF 9
