REMARK  Name = ZINC04277869
REMARK  8 active torsions:
REMARK  status: ('A' for Active; 'I' for Inactive)
REMARK    1  A    between atoms: C_4  and  S_7
REMARK    2  A    between atoms: S_7  and  N_10
REMARK    3  A    between atoms: C_14  and  C_17
REMARK    4  A    between atoms: N_19  and  C_20
REMARK    5  A    between atoms: C_20  and  C_22
REMARK    6  A    between atoms: C_20  and  C_29
REMARK    7  A    between atoms: C_22  and  C_23
REMARK    8  A    between atoms: C_32  and  C_34
REMARK                            x       y       z     vdW  Elec       q    Type
REMARK                         _______ _______ _______ _____ _____    ______ ____
ROOT
ATOM      1  N   UNL     1       3.056   4.327  -1.598  0.00  0.00    -0.173 NA
ATOM      2  C   UNL     1       3.884   3.355  -2.327  0.00  0.00    +0.128 C 
ATOM      3  C   UNL     1       5.107   4.076  -2.895  0.00  0.00    +0.125 C 
ATOM      4  N   UNL     1       4.657   5.288  -3.594  0.00  0.00    -0.287 N 
ATOM      5  C   UNL     1       3.834   6.262  -2.863  0.00  0.00    +0.177 C 
ATOM      6  C   UNL     1       2.606   5.539  -2.296  0.00  0.00    +0.141 C 
ATOM      7  C   UNL     1       4.993   5.503  -4.881  0.00  0.00    +0.219 C 
ATOM      8  O   UNL     1       4.536   6.455  -5.477  0.00  0.00    -0.275 OA
ENDROOT
BRANCH   7   9
ATOM      9  C   UNL     1       5.937   4.559  -5.581  0.00  0.00    +0.072 C 
ATOM     10  C   UNL     1       6.803   5.343  -6.571  0.00  0.00    -0.007 C 
ATOM     11  C   UNL     1       7.715   4.371  -7.323  0.00  0.00    -0.082 C 
ATOM     12  C   UNL     1       6.095   2.583  -7.099  0.00  0.00    -0.082 C 
ATOM     13  C   UNL     1       5.133   3.502  -6.342  0.00  0.00    -0.007 C 
ATOM     14  N   UNL     1       6.898   3.378  -8.047  0.00  0.00    +0.379 N 
ATOM     15  H   UNL     1       7.517   2.751  -8.575  0.00  0.00    -0.086 HD
ATOM     16  H   UNL     1       6.271   3.866  -8.697  0.00  0.00    -0.086 HD
ENDBRANCH   7   9
BRANCH   5  17
ATOM     17  C   UNL     1       4.636   6.857  -1.735  0.00  0.00    +0.235 C 
ATOM     18  O   UNL     1       5.788   6.517  -1.565  0.00  0.00    -0.274 OA
ATOM     19  N   UNL     1       4.074   7.768  -0.915  0.00  0.00    -0.302 N 
ATOM     20  H   UNL     1       3.153   8.040  -1.052  0.00  0.00    +0.150 HD
BRANCH  19  21
ATOM     21  C   UNL     1       4.854   8.346   0.181  0.00  0.00    +0.159 C 
BRANCH  21  22
ATOM     22  C   UNL     1       4.785   7.437   1.381  0.00  0.00    +0.231 C 
ATOM     23  O   UNL     1       4.147   6.407   1.325  0.00  0.00    -0.274 OA
ATOM     24  N   UNL     1       5.433   7.768   2.516  0.00  0.00    -0.328 N 
ATOM     25  H   UNL     1       5.943   8.591   2.560  0.00  0.00    +0.145 HD
ATOM     26  H   UNL     1       5.388   7.182   3.288  0.00  0.00    +0.145 HD
ENDBRANCH  21  22
BRANCH  21  27
ATOM     27  C   UNL     1       4.281   9.717   0.547  0.00  0.00    +0.035 C 
BRANCH  27  28
ATOM     28  C   UNL     1       4.465  10.677  -0.630  0.00  0.00    -0.009 C 
ATOM     29  C   UNL     1       5.958  10.912  -0.868  0.00  0.00    +0.003 C 
ATOM     30  C   UNL     1       6.141  11.872  -2.046  0.00  0.00    +0.000 C 
ATOM     31  C   UNL     1       5.459  13.204  -1.728  0.00  0.00    +0.000 C 
ATOM     32  C   UNL     1       3.966  12.969  -1.490  0.00  0.00    +0.000 C 
ATOM     33  C   UNL     1       3.782  12.009  -0.313  0.00  0.00    +0.003 C 
ENDBRANCH  27  28
ENDBRANCH  21  27
ENDBRANCH  19  21
ENDBRANCH   5  17
BRANCH   1  34
ATOM     34  S   UNL     1       2.644   4.064  -0.016  0.00  0.00    +0.061 S 
ATOM     35  O   UNL     1       2.372   5.338   0.551  0.00  0.00    -0.153 OA
ATOM     36  O   UNL     1       3.625   3.186   0.519  0.00  0.00    -0.153 OA
BRANCH  34  40
ATOM     37  C   UNL     1      -1.268   1.786  -0.018  0.00  0.00    +0.000 A 
ATOM     38  C   UNL     1      -0.069   1.099  -0.029  0.00  0.00    +0.002 A 
ATOM     39  C   UNL     1       1.126   1.795  -0.029  0.00  0.00    +0.028 A 
ATOM     40  C   UNL     1       1.121   3.177  -0.015  0.00  0.00    +0.105 A 
ATOM     41  C   UNL     1      -0.079   3.864   0.001  0.00  0.00    +0.028 A 
ATOM     42  C   UNL     1      -1.273   3.168   0.002  0.00  0.00    +0.002 A 
ENDBRANCH  34  40
ENDBRANCH   1  34
TORSDOF 8
