REMARK  Name = ZINC40780043
REMARK  4 active torsions:
REMARK  status: ('A' for Active; 'I' for Inactive)
REMARK    1  A    between atoms: C_3  and  N_8
REMARK    2  A    between atoms: C_10  and  N_27
REMARK    3  A    between atoms: C_11  and  N_15
REMARK    4  A    between atoms: C_19  and  C_22
REMARK                            x       y       z     vdW  Elec       q    Type
REMARK                         _______ _______ _______ _____ _____    ______ ____
ROOT
ATOM      1  N   UNL     1       3.595   2.001  -0.022  0.00  0.00    -0.284 N 
ATOM      2  C   UNL     1       3.628   3.388  -0.120  0.00  0.00    +0.127 A 
ATOM      3  C   UNL     1       4.845   4.061  -0.240  0.00  0.00    +0.104 A 
ATOM      4  C   UNL     1       4.822   5.454  -0.336  0.00  0.00    +0.150 A 
ATOM      5  N   UNL     1       3.648   6.082  -0.308  0.00  0.00    -0.221 NA
ATOM      6  C   UNL     1       2.522   5.408  -0.194  0.00  0.00    +0.200 A 
ATOM      7  N   UNL     1       2.500   4.093  -0.107  0.00  0.00    -0.333 N 
ATOM      8  H   UNL     1       4.417   1.504   0.115  0.00  0.00    +0.155 HD
ATOM      9  H   UNL     1       1.649   3.633  -0.028  0.00  0.00    +0.168 HD
ENDROOT
BRANCH   4  10
ATOM     10  N   UNL     1       6.005   6.174  -0.456  0.00  0.00    -0.282 N 
ATOM     11  C   UNL     1       5.969   7.562  -0.550  0.00  0.00    +0.142 A 
ATOM     12  C   UNL     1       7.157   8.277  -0.677  0.00  0.00    +0.081 A 
ATOM     13  C   UNL     1       7.106   9.656  -0.770  0.00  0.00    +0.037 A 
ATOM     14  C   UNL     1       5.864  10.277  -0.733  0.00  0.00    +0.074 A 
ATOM     15  C   UNL     1       4.726   9.506  -0.606  0.00  0.00    +0.125 A 
ATOM     16  N   UNL     1       4.805   8.191  -0.524  0.00  0.00    -0.238 NA
ATOM     17 CL   UNL     1       8.682   7.448  -0.717  0.00  0.00    -0.080 Cl
ATOM     18  H   UNL     1       6.856   5.709  -0.475  0.00  0.00    +0.155 HD
BRANCH  14  19
ATOM     19  C   UNL     1       5.760  11.777  -0.831  0.00  0.00    +0.419 C 
ATOM     20  F   UNL     1       5.643  12.150  -2.174  0.00  0.00    -0.166 F 
ATOM     21  F   UNL     1       4.632  12.213  -0.127  0.00  0.00    -0.166 F 
ATOM     22  F   UNL     1       6.907  12.361  -0.283  0.00  0.00    -0.166 F 
ENDBRANCH  14  19
ENDBRANCH   4  10
BRANCH   1  25
ATOM     23  C   UNL     1       1.126  -0.706   0.009  0.00  0.00    +0.020 A 
ATOM     24  C   UNL     1       2.338  -0.047   0.108  0.00  0.00    +0.045 A 
ATOM     25  C   UNL     1       2.382   1.325  -0.119  0.00  0.00    +0.124 A 
ATOM     26  N   UNL     1       1.282   1.993  -0.428  0.00  0.00    -0.239 NA
ATOM     27  C   UNL     1       0.112   1.391  -0.530  0.00  0.00    +0.128 A 
ATOM     28  C   UNL     1      -0.005   0.031  -0.317  0.00  0.00    +0.036 A 
ATOM     29 BR   UNL     1      -1.689  -0.817  -0.467  0.00  0.00    -0.049 Br
ENDBRANCH   1  25
BRANCH   3  30
ATOM     30  N   UNL     1       6.060   3.358  -0.264  0.00  0.00    -0.353 N 
ATOM     31  H   UNL     1       6.061   2.390  -0.197  0.00  0.00    +0.143 HD
ATOM     32  H   UNL     1       6.897   3.839  -0.348  0.00  0.00    +0.143 HD
ENDBRANCH   3  30
TORSDOF 4
