REMARK  Name = ZINC38659377
REMARK  11 active torsions:
REMARK  status: ('A' for Active; 'I' for Inactive)
REMARK    1  A    between atoms: C_1  and  C_2
REMARK    2  A    between atoms: C_2  and  C_3
REMARK    3  A    between atoms: C_3  and  O_4
REMARK    4  A    between atoms: O_4  and  C_5
REMARK    5  A    between atoms: C_10  and  C_11
REMARK    6  A    between atoms: C_11  and  O_13
REMARK    7  A    between atoms: O_13  and  C_14
REMARK    8  A    between atoms: C_21  and  N_33
REMARK    9  A    between atoms: C_22  and  C_31
REMARK   10  A    between atoms: C_23  and  C_25
REMARK   11  A    between atoms: C_28  and  C_30
REMARK                            x       y       z     vdW  Elec       q    Type
REMARK                         _______ _______ _______ _____ _____    ______ ____
ROOT
ATOM      1  C   UNL     1      -0.273  -6.739   0.001  0.00  0.00    +0.135 A 
ATOM      2  C   UNL     1       0.882  -5.973   0.071  0.00  0.00    +0.047 A 
ATOM      3  C   UNL     1       2.118  -6.588   0.090  0.00  0.00    +0.012 A 
ATOM      4  C   UNL     1       2.211  -7.968   0.039  0.00  0.00    +0.011 A 
ATOM      5  C   UNL     1       1.060  -8.738  -0.031  0.00  0.00    +0.138 A 
ATOM      6  C   UNL     1      -0.184  -8.121  -0.044  0.00  0.00    +0.093 A 
ATOM      7  O   UNL     1       1.131 -10.091  -0.082  0.00  0.00    -0.441 OA
ATOM      8  C   UNL     1       2.251 -10.719   0.314  0.00  0.00    +0.199 C 
ATOM      9  C   UNL     1       3.439 -10.077   0.403  0.00  0.00    +0.101 C 
ATOM     10  C   UNL     1       3.568  -8.620   0.059  0.00  0.00    +0.134 C 
ENDROOT
BRANCH  10  11
ATOM     11  C   UNL     1       4.433  -7.939   1.088  0.00  0.00    +0.118 A 
ATOM     12  C   UNL     1       5.596  -7.307   0.845  0.00  0.00    +0.046 A 
ATOM     13  C   UNL     1       6.064  -6.819   2.086  0.00  0.00    +0.044 A 
ATOM     14  C   UNL     1       5.160  -7.182   3.014  0.00  0.00    +0.102 A 
ATOM     15  O   UNL     1       4.171  -7.855   2.403  0.00  0.00    -0.464 OA
ATOM     16  C   UNL     1       5.240  -6.879   4.488  0.00  0.00    +0.086 C 
ENDBRANCH  10  11
BRANCH   8  17
ATOM     17  N   UNL     1       2.187 -12.051   0.639  0.00  0.00    -0.328 N 
ATOM     18  H   UNL     1       1.343 -12.525   0.581  0.00  0.00    +0.145 HD
ATOM     19  H   UNL     1       2.987 -12.519   0.927  0.00  0.00    +0.145 HD
ENDBRANCH   8  17
BRANCH   9  20
ATOM     20  C   UNL     1       4.598 -10.802   0.832  0.00  0.00    +0.101 C 
ATOM     21  N   UNL     1       5.516 -11.376   1.173  0.00  0.00    -0.191 NA
ENDBRANCH   9  20
BRANCH   1  22
ATOM     22  O   UNL     1      -1.491  -6.135  -0.017  0.00  0.00    -0.422 OA
BRANCH  22  23
ATOM     23  C   UNL     1      -2.214  -6.135   1.120  0.00  0.00    +0.348 C 
ATOM     24  O   UNL     1      -1.815  -6.741   2.094  0.00  0.00    -0.244 OA
BRANCH  23  30
ATOM     25  C   UNL     1      -4.247  -5.398   2.362  0.00  0.00    +0.134 A 
ATOM     26  C   UNL     1      -5.443  -4.698   2.410  0.00  0.00    +0.046 A 
ATOM     27  C   UNL     1      -5.889  -4.012   1.298  0.00  0.00    +0.004 A 
ATOM     28  C   UNL     1      -5.147  -4.017   0.127  0.00  0.00    +0.001 A 
ATOM     29  C   UNL     1      -3.957  -4.707   0.061  0.00  0.00    +0.018 A 
ATOM     30  C   UNL     1      -3.491  -5.401   1.181  0.00  0.00    +0.101 A 
BRANCH  25  31
ATOM     31  O   UNL     1      -3.808  -6.072   3.454  0.00  0.00    -0.491 OA
BRANCH  31  32
ATOM     32  C   UNL     1      -4.631  -6.024   4.620  0.00  0.00    +0.229 C 
BRANCH  32  34
ATOM     33  C   UNL     1      -4.859  -6.785   6.989  0.00  0.00    +0.007 C 
ATOM     34  C   UNL     1      -3.977  -6.836   5.740  0.00  0.00    +0.038 C 
ENDBRANCH  32  34
ENDBRANCH  31  32
ENDBRANCH  25  31
ENDBRANCH  23  30
ENDBRANCH  22  23
ENDBRANCH   1  22
TORSDOF 9
