REMARK  Name = ZINC24908537
REMARK  12 active torsions:
REMARK  status: ('A' for Active; 'I' for Inactive)
REMARK    1  A    between atoms: C_1  and  C_2
REMARK    2  A    between atoms: C_3  and  C_13
REMARK    3  A    between atoms: C_5  and  C_7
REMARK    4  A    between atoms: C_13  and  O_14
REMARK    5  A    between atoms: O_14  and  C_15
REMARK    6  A    between atoms: C_15  and  C_17
REMARK    7  A    between atoms: C_17  and  C_19
REMARK    8  A    between atoms: C_17  and  N_23
REMARK    9  A    between atoms: C_19  and  C_21
REMARK   10  A    between atoms: C_19  and  O_22
REMARK   11  A    between atoms: N_23  and  S_24
REMARK   12  A    between atoms: S_24  and  C_27
REMARK                            x       y       z     vdW  Elec       q    Type
REMARK                         _______ _______ _______ _____ _____    ______ ____
ROOT
ATOM      1  C   UNL     1       3.354   3.370  -2.406  0.00  0.00    +0.213 C 
ENDROOT
BRANCH   1   2
ATOM      2  C   UNL     1       4.302   3.918  -3.442  0.00  0.00    +0.329 C 
ATOM      3  O   UNL     1       5.488   3.709  -3.345  0.00  0.00    -0.249 OA
BRANCH   2   4
ATOM      4  O   UNL     1       3.829   4.637  -4.472  0.00  0.00    -0.457 OA
BRANCH   4   5
ATOM      5  C   UNL     1       4.800   5.132  -5.431  0.00  0.00    +0.291 C 
BRANCH   5   8
ATOM      6  C   UNL     1       4.191   8.198  -5.394  0.00  0.00    +0.088 C 
ATOM      7  C   UNL     1       3.829   7.230  -6.491  0.00  0.00    +0.129 A 
ATOM      8  C   UNL     1       4.089   5.910  -6.508  0.00  0.00    +0.120 A 
ATOM      9  N   UNL     1       3.610   5.412  -7.658  0.00  0.00    -0.210 NA
ATOM     10  C   UNL     1       3.055   6.387  -8.339  0.00  0.00    +0.228 A 
ATOM     11  O   UNL     1       3.182   7.526  -7.636  0.00  0.00    -0.440 OA
BRANCH  10  12
ATOM     12  C   UNL     1       2.406   6.256  -9.660  0.00  0.00    +0.037 A 
ATOM     13  C   UNL     1       2.344   5.012 -10.291  0.00  0.00    +0.013 A 
ATOM     14  C   UNL     1       1.731   4.896 -11.521  0.00  0.00    +0.001 A 
ATOM     15  C   UNL     1       1.189   6.011 -12.136  0.00  0.00    +0.000 A 
ATOM     16  C   UNL     1       1.252   7.248 -11.519  0.00  0.00    +0.001 A 
ATOM     17  C   UNL     1       1.857   7.377 -10.285  0.00  0.00    +0.013 A 
ENDBRANCH  10  12
ENDBRANCH   5   8
ENDBRANCH   4   5
ENDBRANCH   2   4
ENDBRANCH   1   2
BRANCH   1  18
ATOM     18  C   UNL     1       2.348   2.434  -3.079  0.00  0.00    +0.141 C 
ATOM     19  C   UNL     1       1.445   3.243  -4.013  0.00  0.00    +0.040 C 
BRANCH  18  20
ATOM     20  O   UNL     1       1.550   1.795  -2.081  0.00  0.00    -0.390 OA
ATOM     21  H   UNL     1       0.766   1.082  -2.376  0.00  0.00    +0.210 HD
ENDBRANCH  18  20
ENDBRANCH   1  18
BRANCH   1  22
ATOM     22  N   UNL     1       4.110   2.628  -1.395  0.00  0.00    -0.174 NA
ATOM     23  H   UNL     1       4.247   1.542  -1.498  0.00  0.00    +0.149 HD
BRANCH  22  24
ATOM     24  S   UNL     1       4.547   3.368   0.021  0.00  0.00    +0.059 S 
ATOM     25  O   UNL     1       5.115   4.621  -0.334  0.00  0.00    -0.153 OA
ATOM     26  O   UNL     1       5.253   2.400   0.784  0.00  0.00    -0.153 OA
BRANCH  24  27
ATOM     27  C   UNL     1       3.063   3.720   0.904  0.00  0.00    +0.107 A 
ATOM     28  C   UNL     1       2.415   4.927   0.712  0.00  0.00    +0.030 A 
ATOM     29  C   UNL     1       1.251   5.204   1.404  0.00  0.00    +0.023 A 
ATOM     30  C   UNL     1       0.734   4.275   2.289  0.00  0.00    +0.059 A 
ATOM     31  C   UNL     1       1.383   3.067   2.481  0.00  0.00    +0.061 A 
ATOM     32  C   UNL     1       2.548   2.791   1.788  0.00  0.00    +0.050 A 
ATOM     33 CL   UNL     1       0.736   1.900   3.591  0.00  0.00    -0.082 Cl
ATOM     34 CL   UNL     1      -0.728   4.622   3.158  0.00  0.00    -0.082 Cl
ENDBRANCH  24  27
ENDBRANCH  22  24
ENDBRANCH   1  22
TORSDOF 10
