REMARK  Name = ZINC07199551
REMARK  7 active torsions:
REMARK  status: ('A' for Active; 'I' for Inactive)
REMARK    1  A    between atoms: C_3  and  C_9
REMARK    2  A    between atoms: C_4  and  O_8
REMARK    3  A    between atoms: C_9  and  O_11
REMARK    4  A    between atoms: O_11  and  C_12
REMARK    5  A    between atoms: C_12  and  C_13
REMARK    6  A    between atoms: N_15  and  C_16
REMARK    7  A    between atoms: C_17  and  C_24
REMARK                            x       y       z     vdW  Elec       q    Type
REMARK                         _______ _______ _______ _____ _____    ______ ____
ROOT
ATOM      1  C   UNL     1       1.141   2.072   0.002  0.00  0.00    +0.255 C 
ATOM      2  O   UNL     1       2.200   1.480  -0.011  0.00  0.00    -0.272 OA
ATOM      3  N   UNL     1      -0.017   1.382   0.010  0.00  0.00    -0.277 N 
ATOM      4  H   UNL     1      -0.863   1.856   0.016  0.00  0.00    +0.155 HD
ENDROOT
BRANCH   3   5
ATOM      5  C   UNL     1       0.002  -0.004   0.002  0.00  0.00    +0.084 A 
ATOM      6  C   UNL     1      -1.071  -0.879   0.013  0.00  0.00    +0.068 A 
ATOM      7  C   UNL     1      -0.776  -2.312  -0.003  0.00  0.00    -0.023 A 
ATOM      8  C   UNL     1       0.532  -2.626  -0.017  0.00  0.00    -0.004 A 
ATOM      9  S   UNL     1       1.372  -1.061  -0.016  0.00  0.00    -0.077 S 
ATOM     10  C   UNL     1       0.754  -4.114  -0.030  0.00  0.00    +0.043 C 
ATOM     11  C   UNL     1      -0.606  -4.707  -0.459  0.00  0.00    +0.010 C 
ATOM     12  C   UNL     1      -1.586  -3.609  -0.000  0.00  0.00    +0.037 C 
BRANCH   6  13
ATOM     13  C   UNL     1      -2.452  -0.388   0.036  0.00  0.00    +0.244 C 
ATOM     14  O   UNL     1      -3.041  -0.178  -1.008  0.00  0.00    -0.270 OA
ATOM     15  N   UNL     1      -3.069  -0.167   1.214  0.00  0.00    -0.325 N 
ATOM     16  H   UNL     1      -2.600  -0.334   2.046  0.00  0.00    +0.145 HD
ATOM     17  H   UNL     1      -3.983   0.158   1.229  0.00  0.00    +0.145 HD
ENDBRANCH   6  13
ENDBRANCH   3   5
BRANCH   1  18
ATOM     18  C   UNL     1       1.121   3.579   0.011  0.00  0.00    +0.328 C 
BRANCH  18  19
ATOM     19  O   UNL     1       2.483   4.082   0.000  0.00  0.00    -0.452 OA
BRANCH  19  20
ATOM     20  C   UNL     1       2.641   5.420   0.006  0.00  0.00    +0.343 C 
ATOM     21  O   UNL     1       1.668   6.147   0.019  0.00  0.00    -0.245 OA
BRANCH  20  24
ATOM     22  C   UNL     1       6.380   5.718  -0.028  0.00  0.00    +0.021 A 
ATOM     23  C   UNL     1       5.117   5.169  -0.019  0.00  0.00    +0.020 A 
ATOM     24  C   UNL     1       3.995   6.001  -0.004  0.00  0.00    +0.100 A 
ATOM     25  C   UNL     1       4.164   7.394  -0.004  0.00  0.00    +0.132 A 
ATOM     26  C   UNL     1       5.442   7.930  -0.007  0.00  0.00    +0.066 A 
ATOM     27  C   UNL     1       6.544   7.096  -0.022  0.00  0.00    +0.044 A 
ATOM     28 CL   UNL     1       8.142   7.775  -0.033  0.00  0.00    -0.083 Cl
BRANCH  25  29
ATOM     29  O   UNL     1       3.082   8.212   0.005  0.00  0.00    -0.506 OA
ATOM     30  H   UNL     1       2.775   8.448   0.891  0.00  0.00    +0.292 HD
ENDBRANCH  25  29
ENDBRANCH  20  24
ENDBRANCH  19  20
ENDBRANCH  18  19
ENDBRANCH   1  18
TORSDOF 7
