REMARK  Name = ZINC36542533
REMARK  18 active torsions:
REMARK  status: ('A' for Active; 'I' for Inactive)
REMARK    1  A    between atoms: C_1  and  C_2
REMARK    2  A    between atoms: C_2  and  C_3
REMARK    3  A    between atoms: C_3  and  C_4
REMARK    4  A    between atoms: C_4  and  C_5
REMARK    5  A    between atoms: C_5  and  C_7
REMARK    6  A    between atoms: C_5  and  C_9
REMARK    7  A    between atoms: C_7  and  C_8
REMARK    8  A    between atoms: N_11  and  C_12
REMARK    9  A    between atoms: N_11  and  C_19
REMARK   10  A    between atoms: C_19  and  C_21
REMARK   11  A    between atoms: C_19  and  C_30
REMARK   12  A    between atoms: C_22  and  O_29
REMARK   13  A    between atoms: C_24  and  O_28
REMARK   14  A    between atoms: C_26  and  O_27
REMARK   15  A    between atoms: N_32  and  C_33
REMARK   16  A    between atoms: C_33  and  C_34
REMARK   17  A    between atoms: C_34  and  C_35
REMARK   18  A    between atoms: C_35  and  C_36
REMARK                            x       y       z     vdW  Elec       q    Type
REMARK                         _______ _______ _______ _____ _____    ______ ____
ROOT
ATOM      1  C   UNL     1       1.822  -6.045   3.524  0.00  0.00    +0.204 C 
ENDROOT
BRANCH   1   2
ATOM      2  C   UNL     1       0.383  -5.630   3.353  0.00  0.00    +0.065 A 
ATOM      3  C   UNL     1      -0.056  -4.421   3.872  0.00  0.00    +0.129 A 
ATOM      4  C   UNL     1      -1.380  -4.039   3.714  0.00  0.00    +0.091 A 
ATOM      5  C   UNL     1      -2.264  -4.866   3.038  0.00  0.00    +0.124 A 
ATOM      6  C   UNL     1      -1.825  -6.074   2.518  0.00  0.00    +0.091 A 
ATOM      7  C   UNL     1      -0.500  -6.454   2.672  0.00  0.00    +0.129 A 
BRANCH   7   8
ATOM      8  O   UNL     1      -0.068  -7.636   2.158  0.00  0.00    -0.506 OA
ATOM      9  H   UNL     1      -0.150  -8.382   2.768  0.00  0.00    +0.292 HD
ENDBRANCH   7   8
BRANCH   5  10
ATOM     10  O   UNL     1      -3.562  -4.492   2.884  0.00  0.00    -0.507 OA
ATOM     11  H   UNL     1      -3.732  -3.982   2.080  0.00  0.00    +0.292 HD
ENDBRANCH   5  10
BRANCH   3  12
ATOM     12  O   UNL     1       0.810  -3.611   4.535  0.00  0.00    -0.506 OA
ATOM     13  H   UNL     1       1.205  -2.922   3.983  0.00  0.00    +0.292 HD
ENDBRANCH   3  12
ENDBRANCH   1   2
BRANCH   1  14
ATOM     14  C   UNL     1       2.042  -6.523   4.936  0.00  0.00    +0.239 C 
ATOM     15  O   UNL     1       2.313  -5.727   5.811  0.00  0.00    -0.273 OA
ATOM     16  N   UNL     1       1.938  -7.835   5.227  0.00  0.00    -0.313 N 
ATOM     17  H   UNL     1       1.722  -8.471   4.528  0.00  0.00    +0.149 HD
BRANCH  16  18
ATOM     18  C   UNL     1       2.153  -8.299   6.600  0.00  0.00    +0.104 C 
BRANCH  18  19
ATOM     19  C   UNL     1       1.978  -9.818   6.657  0.00  0.00    +0.018 C 
BRANCH  19  20
ATOM     20  C   UNL     1       2.201 -10.304   8.091  0.00  0.00    -0.002 C 
ATOM     21  C   UNL     1       2.026 -11.822   8.148  0.00  0.00    +0.004 C 
ENDBRANCH  19  20
ENDBRANCH  18  19
ENDBRANCH  16  18
ENDBRANCH   1  14
BRANCH   1  24
ATOM     22  C   UNL     1       2.548  -4.193   2.116  0.00  0.00    +0.224 C 
ATOM     23  O   UNL     1       1.750  -4.554   1.277  0.00  0.00    -0.275 OA
ATOM     24  N   UNL     1       2.696  -4.900   3.254  0.00  0.00    -0.253 N 
BRANCH  24  25
ATOM     25  C   UNL     1       3.684  -4.541   4.178  0.00  0.00    +0.056 A 
ATOM     26  C   UNL     1       3.482  -3.464   5.030  0.00  0.00    +0.025 A 
ATOM     27  C   UNL     1       4.459  -3.112   5.941  0.00  0.00    +0.002 A 
ATOM     28  C   UNL     1       5.638  -3.831   6.005  0.00  0.00    +0.002 A 
ATOM     29  C   UNL     1       5.844  -4.904   5.158  0.00  0.00    +0.022 A 
ATOM     30  C   UNL     1       4.868  -5.265   4.248  0.00  0.00    +0.062 A 
ATOM     31 CL   UNL     1       5.123  -6.618   3.190  0.00  0.00    -0.082 Cl
ENDBRANCH  24  25
BRANCH  22  32
ATOM     32  C   UNL     1       3.374  -2.954   1.887  0.00  0.00    +0.075 C 
BRANCH  32  33
ATOM     33  C   UNL     1       2.623  -2.007   0.948  0.00  0.00    +0.009 C 
ATOM     34  C   UNL     1       1.357  -1.499   1.642  0.00  0.00    +0.004 C 
ENDBRANCH  32  33
BRANCH  32  35
ATOM     35  C   UNL     1       4.712  -3.342   1.255  0.00  0.00    +0.013 C 
BRANCH  35  36
ATOM     36  C   UNL     1       5.599  -2.102   1.136  0.00  0.00    +0.000 C 
BRANCH  36  38
ATOM     37  C   UNL     1       7.825  -1.250   0.385  0.00  0.00    +0.004 C 
ATOM     38  C   UNL     1       6.938  -2.491   0.504  0.00  0.00    -0.003 C 
ENDBRANCH  36  38
ENDBRANCH  35  36
ENDBRANCH  32  35
ENDBRANCH  22  32
ENDBRANCH   1  24
TORSDOF 15
