REMARK  Name = ZINC47137440
REMARK  13 active torsions:
REMARK  status: ('A' for Active; 'I' for Inactive)
REMARK    1  A    between atoms: C_1  and  O_2
REMARK    2  A    between atoms: O_2  and  C_3
REMARK    3  A    between atoms: C_5  and  C_10
REMARK    4  A    between atoms: C_8  and  O_9
REMARK    5  A    between atoms: N_11  and  N_12
REMARK    6  A    between atoms: N_14  and  C_31
REMARK    7  A    between atoms: C_18  and  C_19
REMARK    8  A    between atoms: C_21  and  O_28
REMARK    9  A    between atoms: C_22  and  O_27
REMARK   10  A    between atoms: C_23  and  O_25
REMARK   11  A    between atoms: O_25  and  C_26
REMARK   12  A    between atoms: O_28  and  C_29
REMARK   13  A    between atoms: C_31  and  C_32
REMARK                            x       y       z     vdW  Elec       q    Type
REMARK                         _______ _______ _______ _____ _____    ______ ____
ROOT
ATOM      1  N   UNL     1       2.567  -1.487  -5.722  0.00  0.00    -0.126 NA
ATOM      2  C   UNL     1       3.370  -2.084  -6.580  0.00  0.00    +0.190 C 
ATOM      3  N   UNL     1       4.162  -1.514  -7.553  0.00  0.00    -0.237 N 
ATOM      4  C   UNL     1       4.915  -2.267  -8.337  0.00  0.00    +0.259 C 
ATOM      5  O   UNL     1       5.620  -1.780  -9.201  0.00  0.00    -0.269 OA
ATOM      6  C   UNL     1       4.862  -3.725  -8.116  0.00  0.00    +0.078 C 
ATOM      7  C   UNL     1       5.521  -4.719  -8.764  0.00  0.00    +0.028 C 
ATOM      8  S   UNL     1       3.703  -3.829  -6.760  0.00  0.00    -0.047 S 
ENDROOT
BRANCH   7   9
ATOM      9  C   UNL     1       5.188  -6.122  -8.489  0.00  0.00    -0.017 A 
ATOM     10  C   UNL     1       3.989  -6.445  -7.841  0.00  0.00    +0.057 A 
ATOM     11  C   UNL     1       3.680  -7.767  -7.584  0.00  0.00    +0.166 A 
ATOM     12  C   UNL     1       4.558  -8.777  -7.968  0.00  0.00    +0.201 A 
ATOM     13  C   UNL     1       5.752  -8.461  -8.611  0.00  0.00    +0.166 A 
ATOM     14  C   UNL     1       6.066  -7.141  -8.878  0.00  0.00    +0.057 A 
BRANCH  13  15
ATOM     15  O   UNL     1       6.606  -9.451  -8.983  0.00  0.00    -0.491 OA
ATOM     16  C   UNL     1       7.812  -9.055  -9.639  0.00  0.00    +0.277 C 
ENDBRANCH  13  15
BRANCH  12  17
ATOM     17  O   UNL     1       4.249 -10.077  -7.713  0.00  0.00    -0.501 OA
ATOM     18  H   UNL     1       3.753 -10.510  -8.421  0.00  0.00    +0.292 HD
ENDBRANCH  12  17
BRANCH  11  19
ATOM     19  O   UNL     1       2.516  -8.082  -6.955  0.00  0.00    -0.491 OA
ATOM     20  C   UNL     1       1.662  -6.996  -6.589  0.00  0.00    +0.277 C 
ENDBRANCH  11  19
ENDBRANCH   7   9
BRANCH   1  22
ATOM     21  C   UNL     1       1.654   0.390  -4.885  0.00  0.00    +0.143 C 
ATOM     22  N   UNL     1       2.450  -0.202  -5.736  0.00  0.00    -0.155 NA
BRANCH  21  25
ATOM     23  C   UNL     1      -0.405  -0.496  -1.876  0.00  0.00    +0.162 A 
ATOM     24  C   UNL     1       0.237   0.249  -2.847  0.00  0.00    +0.059 A 
ATOM     25  C   UNL     1       0.969  -0.397  -3.849  0.00  0.00    -0.002 A 
ATOM     26  C   UNL     1       1.046  -1.794  -3.862  0.00  0.00    +0.013 A 
ATOM     27  C   UNL     1       0.403  -2.529  -2.890  0.00  0.00    +0.050 A 
ATOM     28  C   UNL     1      -0.318  -1.886  -1.893  0.00  0.00    +0.158 A 
BRANCH  23  30
ATOM     29  C   UNL     1      -1.164   1.556  -0.944  0.00  0.00    +0.277 C 
ATOM     30  O   UNL     1      -1.117   0.129  -0.900  0.00  0.00    -0.491 OA
ENDBRANCH  23  30
BRANCH  28  31
ATOM     31  O   UNL     1      -0.946  -2.616  -0.933  0.00  0.00    -0.503 OA
ATOM     32  H   UNL     1      -1.852  -2.867  -1.160  0.00  0.00    +0.292 HD
ENDBRANCH  28  31
ENDBRANCH  21  25
ENDBRANCH   1  22
BRANCH   3  33
ATOM     33  C   UNL     1       4.168  -0.059  -7.721  0.00  0.00    +0.190 C 
BRANCH  33  34
ATOM     34  C   UNL     1       5.241   0.543  -6.849  0.00  0.00    +0.123 A 
ATOM     35  C   UNL     1       6.517   0.764  -7.212  0.00  0.00    +0.046 A 
ATOM     36  C   UNL     1       7.167   1.336  -6.094  0.00  0.00    +0.041 A 
ATOM     37  C   UNL     1       6.248   1.431  -5.116  0.00  0.00    +0.195 A 
ATOM     38  O   UNL     1       5.082   0.954  -5.581  0.00  0.00    -0.466 OA
ENDBRANCH  33  34
ENDBRANCH   3  33
TORSDOF 10
