REMARK  Name = ZINC02187491
REMARK  7 active torsions:
REMARK  status: ('A' for Active; 'I' for Inactive)
REMARK    1  A    between atoms: C_1  and  C_2
REMARK    2  A    between atoms: C_2  and  C_3
REMARK    3  A    between atoms: N_8  and  S_9
REMARK    4  A    between atoms: S_9  and  C_12
REMARK    5  A    between atoms: C_15  and  N_18
REMARK    6  A    between atoms: N_18  and  S_19
REMARK    7  A    between atoms: S_19  and  C_22
REMARK                            x       y       z     vdW  Elec       q    Type
REMARK                         _______ _______ _______ _____ _____    ______ ____
ROOT
ATOM      1  C   UNL     1       4.724   3.437   3.744  0.00  0.00    +0.109 A 
ATOM      2  C   UNL     1       4.030   4.611   3.971  0.00  0.00    +0.030 A 
ATOM      3  C   UNL     1       2.871   4.877   3.269  0.00  0.00    +0.026 A 
ATOM      4  C   UNL     1       2.403   3.963   2.333  0.00  0.00    +0.048 A 
ATOM      5  C   UNL     1       3.100   2.783   2.110  0.00  0.00    +0.026 A 
ATOM      6  C   UNL     1       4.261   2.526   2.812  0.00  0.00    +0.030 A 
ENDROOT
BRANCH   1   7
ATOM      7  S   UNL     1       6.202   3.102   4.642  0.00  0.00    +0.074 S 
ATOM      8  O   UNL     1       6.958   2.191   3.855  0.00  0.00    -0.150 OA
ATOM      9  O   UNL     1       6.718   4.358   5.060  0.00  0.00    -0.150 OA
BRANCH   7  15
ATOM     10  C   UNL     1       4.101  -1.392   6.121  0.00  0.00    +0.103 A 
ATOM     11  N   UNL     1       4.403  -0.855   4.956  0.00  0.00    -0.145 NA
ATOM     12  N   UNL     1       4.924   0.289   4.858  0.00  0.00    -0.125 NA
ATOM     13  C   UNL     1       5.200   1.025   5.926  0.00  0.00    +0.201 A 
ATOM     14  S   UNL     1       4.643  -0.084   7.217  0.00  0.00    -0.034 S 
ATOM     15  N   UNL     1       5.765   2.289   6.017  0.00  0.00    -0.192 N 
ATOM     16  H   UNL     1       5.905   2.696   6.886  0.00  0.00    +0.176 HD
BRANCH  10  18
ATOM     17  C   UNL     1       4.585  -3.773   6.616  0.00  0.00    +0.011 C 
ATOM     18  C   UNL     1       3.481  -2.728   6.440  0.00  0.00    +0.061 C 
ENDBRANCH  10  18
ENDBRANCH   7  15
ENDBRANCH   1   7
BRANCH   4  19
ATOM     19  N   UNL     1       1.231   4.229   1.621  0.00  0.00    -0.216 N 
ATOM     20  H   UNL     1       0.368   4.137   2.055  0.00  0.00    +0.174 HD
BRANCH  19  21
ATOM     21  S   UNL     1       1.313   4.701   0.036  0.00  0.00    +0.072 S 
ATOM     22  O   UNL     1      -0.019   4.968  -0.378  0.00  0.00    -0.150 OA
ATOM     23  O   UNL     1       2.142   3.755  -0.626  0.00  0.00    -0.150 OA
BRANCH  21  24
ATOM     24  C   UNL     1       2.172   6.239  -0.006  0.00  0.00    +0.109 A 
ATOM     25  C   UNL     1       3.533   6.263  -0.252  0.00  0.00    +0.029 A 
ATOM     26  C   UNL     1       4.212   7.464  -0.286  0.00  0.00    +0.011 A 
ATOM     27  C   UNL     1       3.524   8.660  -0.071  0.00  0.00    -0.014 A 
ATOM     28  C   UNL     1       2.155   8.624   0.176  0.00  0.00    -0.033 A 
ATOM     29  C   UNL     1       1.484   7.420   0.208  0.00  0.00    +0.033 A 
ATOM     30  C   UNL     1       1.690  10.048   0.366  0.00  0.00    +0.071 C 
ATOM     31  C   UNL     1       2.917  10.911   0.207  0.00  0.00    -0.035 A 
ATOM     32  C   UNL     1       3.994  10.067  -0.052  0.00  0.00    -0.014 A 
ATOM     33  C   UNL     1       5.263  10.616  -0.243  0.00  0.00    +0.009 A 
ATOM     34  C   UNL     1       5.441  11.982  -0.174  0.00  0.00    +0.001 A 
ATOM     35  C   UNL     1       4.365  12.813   0.084  0.00  0.00    +0.000 A 
ATOM     36  C   UNL     1       3.104  12.276   0.274  0.00  0.00    +0.004 A 
ENDBRANCH  21  24
ENDBRANCH  19  21
ENDBRANCH   4  19
TORSDOF 6
