REMARK  Name = ZINC63105374
REMARK  9 active torsions:
REMARK  status: ('A' for Active; 'I' for Inactive)
REMARK    1  A    between atoms: C_1  and  C_2
REMARK    2  A    between atoms: C_6  and  C_29
REMARK    3  A    between atoms: C_7  and  O_8
REMARK    4  A    between atoms: O_8  and  C_9
REMARK    5  A    between atoms: C_9  and  C_10
REMARK    6  A    between atoms: C_10  and  C_11
REMARK    7  A    between atoms: C_10  and  O_28
REMARK    8  A    between atoms: C_11  and  N_12
REMARK    9  A    between atoms: C_13  and  C_15
REMARK                            x       y       z     vdW  Elec       q    Type
REMARK                         _______ _______ _______ _____ _____    ______ ____
ROOT
ATOM      1  N   UNL     1      -2.201   2.278   6.025  0.00  0.00    -0.309 N 
ATOM      2  C   UNL     1      -3.264   2.776   6.686  0.00  0.00    +0.244 C 
ATOM      3  O   UNL     1      -4.389   2.543   6.291  0.00  0.00    -0.270 OA
ATOM      4  H   UNL     1      -1.302   2.464   6.340  0.00  0.00    +0.149 HD
ENDROOT
BRANCH   2   5
ATOM      5  C   UNL     1      -3.061   3.607   7.896  0.00  0.00    +0.039 A 
ATOM      6  C   UNL     1      -1.758   3.876   8.344  0.00  0.00    +0.014 A 
ATOM      7  C   UNL     1      -1.546   4.637   9.453  0.00  0.00    +0.016 A 
ATOM      8  C   UNL     1      -2.637   5.160  10.161  0.00  0.00    +0.065 A 
ATOM      9  C   UNL     1      -3.960   4.896   9.719  0.00  0.00    +0.080 A 
ATOM     10  C   UNL     1      -4.159   4.115   8.571  0.00  0.00    +0.041 A 
ATOM     11  N   UNL     1      -4.993   5.404  10.407  0.00  0.00    -0.223 NA
ATOM     12  C   UNL     1      -4.788   6.145  11.485  0.00  0.00    +0.180 A 
ATOM     13  N   UNL     1      -3.557   6.425  11.944  0.00  0.00    -0.301 N 
ATOM     14  H   UNL     1      -3.455   6.972  12.738  0.00  0.00    +0.171 HD
ATOM     15  C   UNL     1      -2.459   5.954  11.314  0.00  0.00    +0.260 A 
ATOM     16  O   UNL     1      -1.227   6.234  11.774  0.00  0.00    -0.267 OA
ATOM     17  S   UNL     1      -6.143   6.769  12.326  0.00  0.00    -0.011 S 
ENDBRANCH   2   5
BRANCH   1  18
ATOM     18  C   UNL     1      -2.401   1.456   4.828  0.00  0.00    +0.139 C 
BRANCH  18  19
ATOM     19  C   UNL     1      -1.043   1.022   4.274  0.00  0.00    +0.169 C 
BRANCH  19  20
ATOM     20  O   UNL     1      -0.396   0.166   5.217  0.00  0.00    -0.387 OA
ATOM     21  H   UNL     1      -0.891  -0.639   5.421  0.00  0.00    +0.210 HD
ENDBRANCH  19  20
BRANCH  19  22
ATOM     22  C   UNL     1      -1.246   0.270   2.957  0.00  0.00    +0.261 C 
BRANCH  22  23
ATOM     23  O   UNL     1       0.025  -0.033   2.381  0.00  0.00    -0.489 OA
BRANCH  23  30
ATOM     24  C   UNL     1      -0.018   1.503   0.010  0.00  0.00    +0.047 C 
ATOM     25  C   UNL     1       0.002  -0.004   0.002  0.00  0.00    -0.009 A 
ATOM     26  C   UNL     1       0.006  -0.689  -1.198  0.00  0.00    +0.007 A 
ATOM     27  C   UNL     1       0.024  -2.071  -1.206  0.00  0.00    +0.001 A 
ATOM     28  C   UNL     1       0.040  -2.772  -0.014  0.00  0.00    +0.007 A 
ATOM     29  C   UNL     1       0.036  -2.092   1.188  0.00  0.00    -0.009 A 
ATOM     30  C   UNL     1       0.023  -0.705   1.199  0.00  0.00    +0.126 A 
ATOM     31  C   UNL     1       0.052  -2.856   2.487  0.00  0.00    +0.047 C 
ENDBRANCH  23  30
ENDBRANCH  22  23
ENDBRANCH  19  22
ENDBRANCH  18  19
ENDBRANCH   1  18
TORSDOF 7
