REMARK  Name = ZINC19820253
REMARK  5 active torsions:
REMARK  status: ('A' for Active; 'I' for Inactive)
REMARK    1  A    between atoms: C_1  and  C_2
REMARK    2  A    between atoms: C_3  and  C_14
REMARK    3  A    between atoms: C_8  and  C_10
REMARK    4  A    between atoms: N_20  and  C_25
REMARK    5  A    between atoms: C_25  and  C_26
REMARK                            x       y       z     vdW  Elec       q    Type
REMARK                         _______ _______ _______ _____ _____    ______ ____
ROOT
ATOM      1  C   UNL     1      -0.619  -0.241   2.482  0.00  0.00    +0.054 C 
ATOM      2  C   UNL     1      -0.271  -0.797   1.126  0.00  0.00    +0.016 A 
ATOM      3  C   UNL     1      -1.064  -0.975   0.026  0.00  0.00    +0.083 A 
ATOM      4  N   UNL     1      -0.540  -1.488  -1.077  0.00  0.00    -0.224 NA
ATOM      5  C   UNL     1       0.734  -1.831  -1.136  0.00  0.00    +0.165 A 
ATOM      6  S   UNL     1       1.295  -1.399   0.506  0.00  0.00    -0.057 S 
ATOM      7  N   UNL     1       1.450  -2.376  -2.194  0.00  0.00    -0.257 N 
ATOM      8  C   UNL     1       2.760  -2.658  -2.048  0.00  0.00    +0.323 C 
ATOM      9  O   UNL     1       3.314  -2.434  -0.992  0.00  0.00    -0.266 OA
ATOM     10  H   UNL     1       1.006  -2.555  -3.038  0.00  0.00    +0.157 HD
ENDROOT
BRANCH   3  11
ATOM     11  C   UNL     1      -2.498  -0.598   0.069  0.00  0.00    +0.003 A 
ATOM     12  C   UNL     1      -2.886   0.602   0.661  0.00  0.00    +0.014 A 
ATOM     13  C   UNL     1      -4.221   0.955   0.701  0.00  0.00    +0.048 A 
ATOM     14  C   UNL     1      -5.177   0.116   0.153  0.00  0.00    +0.143 A 
ATOM     15  C   UNL     1      -4.794  -1.087  -0.441  0.00  0.00    +0.079 A 
ATOM     16  C   UNL     1      -3.458  -1.442  -0.489  0.00  0.00    +0.037 A 
ATOM     17  N   UNL     1      -5.776  -1.924  -0.989  0.00  0.00    -0.262 N 
ATOM     18  C   UNL     1      -7.010  -1.424  -1.218  0.00  0.00    +0.258 C 
ATOM     19  O   UNL     1      -7.883  -2.137  -1.664  0.00  0.00    -0.271 OA
ATOM     20  C   UNL     1      -7.296   0.025  -0.917  0.00  0.00    +0.325 C 
ATOM     21  O   UNL     1      -6.494   0.455   0.186  0.00  0.00    -0.481 OA
BRANCH  17  22
ATOM     22  C   UNL     1      -5.469  -3.320  -1.309  0.00  0.00    +0.140 C 
BRANCH  22  23
ATOM     23  C   UNL     1      -5.763  -4.187  -0.112  0.00  0.00    -0.015 C 
ATOM     24  C   UNL     1      -6.571  -5.211  -0.227  0.00  0.00    +0.005 C 
ENDBRANCH  22  23
ENDBRANCH  17  22
ENDBRANCH   3  11
BRANCH   8  25
ATOM     25  C   UNL     1       3.536  -3.249  -3.196  0.00  0.00    +0.470 C 
ATOM     26  F   UNL     1       4.864  -3.451  -2.806  0.00  0.00    -0.162 F 
ATOM     27  F   UNL     1       2.966  -4.474  -3.562  0.00  0.00    -0.162 F 
ATOM     28  F   UNL     1       3.498  -2.373  -4.286  0.00  0.00    -0.162 F 
ENDBRANCH   8  25
TORSDOF 4
