REMARK  Name = ZINC15774692
REMARK  6 active torsions:
REMARK  status: ('A' for Active; 'I' for Inactive)
REMARK    1  A    between atoms: C_4  and  N_7
REMARK    2  A    between atoms: C_8  and  C_10
REMARK    3  A    between atoms: C_10  and  N_11
REMARK    4  A    between atoms: N_19  and  N_20
REMARK    5  A    between atoms: N_20  and  C_21
REMARK    6  A    between atoms: C_26  and  N_27
REMARK                            x       y       z     vdW  Elec       q    Type
REMARK                         _______ _______ _______ _____ _____    ______ ____
ROOT
ATOM      1  N   UNL     1       4.998  -4.227   0.273  0.00  0.00    -0.257 N 
ATOM      2  C   UNL     1       4.822  -4.921   1.465  0.00  0.00    +0.047 A 
ATOM      3  C   UNL     1       4.866  -4.506   2.792  0.00  0.00    +0.025 A 
ATOM      4  C   UNL     1       4.652  -5.414   3.809  0.00  0.00    +0.017 A 
ATOM      5  C   UNL     1       4.391  -6.744   3.524  0.00  0.00    +0.019 A 
ATOM      6  C   UNL     1       4.343  -7.174   2.212  0.00  0.00    +0.027 A 
ATOM      7  C   UNL     1       4.558  -6.267   1.181  0.00  0.00    +0.029 A 
ATOM      8  C   UNL     1       4.577  -6.393  -0.295  0.00  0.00    +0.153 C 
ATOM      9  N   UNL     1       4.378  -7.480  -1.007  0.00  0.00    -0.177 NA
ATOM     10  C   UNL     1       4.861  -5.036  -0.790  0.00  0.00    +0.272 C 
ATOM     11  O   UNL     1       4.956  -4.706  -1.959  0.00  0.00    -0.268 OA
ATOM     12 BR   UNL     1       4.102  -7.973   4.932  0.00  0.00    -0.050 Br
ENDROOT
BRANCH   9  13
ATOM     13  N   UNL     1       4.428  -7.425  -2.295  0.00  0.00    -0.235 N 
ATOM     14  H   UNL     1       4.612  -6.582  -2.737  0.00  0.00    +0.174 HD
BRANCH  13  15
ATOM     15  C   UNL     1       4.217  -8.579  -3.051  0.00  0.00    +0.078 A 
ATOM     16  C   UNL     1       3.875  -9.771  -2.423  0.00  0.00    +0.027 A 
ATOM     17  C   UNL     1       3.667 -10.910  -3.174  0.00  0.00    +0.002 A 
ATOM     18  C   UNL     1       3.799 -10.866  -4.550  0.00  0.00    +0.002 A 
ATOM     19  C   UNL     1       4.138  -9.682  -5.179  0.00  0.00    +0.034 A 
ATOM     20  C   UNL     1       4.341  -8.537  -4.434  0.00  0.00    +0.149 A 
BRANCH  20  21
ATOM     21  N   UNL     1       4.698  -7.269  -5.109  0.00  0.00    +0.058 N 
ATOM     22  O   UNL     1       4.248  -6.222  -4.705  0.00  0.00    -0.126 OA
ATOM     23  O   UNL     1       5.441  -7.279  -6.063  0.00  0.00    -0.126 OA
ENDBRANCH  20  21
ENDBRANCH  13  15
ENDBRANCH   9  13
BRANCH   1  24
ATOM     24  C   UNL     1       5.292  -2.794   0.188  0.00  0.00    +0.210 C 
BRANCH  24  26
ATOM     25  N   UNL     1       4.024  -0.675   0.041  0.00  0.00    -0.284 N 
ATOM     26  C   UNL     1       4.000  -2.020   0.124  0.00  0.00    +0.235 C 
ATOM     27  O   UNL     1       2.939  -2.608   0.147  0.00  0.00    -0.274 OA
ATOM     28  H   UNL     1       4.870  -0.210  -0.053  0.00  0.00    +0.155 HD
BRANCH  25  32
ATOM     29  C   UNL     1       0.464   1.485   0.187  0.00  0.00    +0.000 A 
ATOM     30  C   UNL     1       0.590   0.313   0.910  0.00  0.00    +0.002 A 
ATOM     31  C   UNL     1       1.769  -0.406   0.864  0.00  0.00    +0.023 A 
ATOM     32  C   UNL     1       2.828   0.050   0.089  0.00  0.00    +0.033 A 
ATOM     33  C   UNL     1       2.698   1.227  -0.636  0.00  0.00    +0.023 A 
ATOM     34  C   UNL     1       1.517   1.941  -0.585  0.00  0.00    +0.002 A 
ENDBRANCH  25  32
ENDBRANCH  24  26
ENDBRANCH   1  24
TORSDOF 6
