REMARK  Name = ZINC36131797
REMARK  5 active torsions:
REMARK  status: ('A' for Active; 'I' for Inactive)
REMARK    1  A    between atoms: C_1  and  C_2
REMARK    2  A    between atoms: C_2  and  C_3
REMARK    3  A    between atoms: C_7  and  C_24
REMARK    4  A    between atoms: N_10  and  C_11
REMARK    5  A    between atoms: C_16  and  N_17
REMARK                            x       y       z     vdW  Elec       q    Type
REMARK                         _______ _______ _______ _____ _____    ______ ____
ROOT
ATOM      1  C   UNL     1      -3.041   0.865   1.422  0.00  0.00    +0.053 A 
ATOM      2  C   UNL     1      -2.743   2.214   1.371  0.00  0.00    +0.053 A 
ATOM      3  C   UNL     1      -3.776   3.151   1.392  0.00  0.00    +0.080 A 
ATOM      4  C   UNL     1      -5.117   2.709   1.466  0.00  0.00    +0.067 A 
ATOM      5  C   UNL     1      -5.405   1.345   1.518  0.00  0.00    +0.040 A 
ATOM      6  C   UNL     1      -4.372   0.429   1.490  0.00  0.00    +0.047 A 
ATOM      7  C   UNL     1      -6.177   3.724   1.488  0.00  0.00    +0.259 A 
ATOM      8  O   UNL     1      -7.352   3.410   1.551  0.00  0.00    -0.267 OA
ATOM      9  N   UNL     1      -5.799   5.022   1.434  0.00  0.00    -0.313 N 
ATOM     10  H   UNL     1      -6.473   5.720   1.446  0.00  0.00    +0.170 HD
ATOM     11  C   UNL     1      -4.484   5.359   1.365  0.00  0.00    +0.199 A 
ATOM     12  N   UNL     1      -3.524   4.485   1.344  0.00  0.00    -0.237 NA
ENDROOT
BRANCH   1  18
ATOM     13  C   UNL     1      -1.615  -0.737   0.147  0.00  0.00    +0.099 C 
ATOM     14  C   UNL     1      -1.575  -2.249   0.394  0.00  0.00    +0.182 C 
ATOM     15  O   UNL     1      -0.761  -2.518   1.538  0.00  0.00    -0.373 OA
ATOM     16  C   UNL     1      -1.255  -1.953   2.755  0.00  0.00    +0.132 C 
ATOM     17  C   UNL     1      -1.278  -0.426   2.629  0.00  0.00    +0.136 C 
ATOM     18  N   UNL     1      -2.008  -0.072   1.400  0.00  0.00    -0.321 N 
ATOM     19  C   UNL     1      -0.342  -2.358   3.914  0.00  0.00    +0.039 C 
BRANCH  13  21
ATOM     20  C   UNL     1      -0.302   1.238  -0.640  0.00  0.00    +0.006 C 
ATOM     21  C   UNL     1      -0.231  -0.248  -0.283  0.00  0.00    +0.021 C 
ENDBRANCH  13  21
ENDBRANCH   1  18
BRANCH   6  22
ATOM     22  N   UNL     1      -4.655  -0.942   1.535  0.00  0.00    -0.357 N 
ATOM     23  H   UNL     1      -3.937  -1.588   1.450  0.00  0.00    +0.142 HD
ATOM     24  H   UNL     1      -5.569  -1.244   1.652  0.00  0.00    +0.142 HD
ENDBRANCH   6  22
TORSDOF 3
