REMARK  Name = ZINC35486560
REMARK  12 active torsions:
REMARK  status: ('A' for Active; 'I' for Inactive)
REMARK    1  A    between atoms: C_1  and  C_2
REMARK    2  A    between atoms: N_15  and  C_34
REMARK    3  A    between atoms: C_16  and  C_18
REMARK    4  A    between atoms: C_21  and  O_26
REMARK    5  A    between atoms: C_22  and  O_24
REMARK    6  A    between atoms: O_24  and  C_25
REMARK    7  A    between atoms: O_26  and  C_27
REMARK    8  A    between atoms: C_27  and  C_28
REMARK    9  A    between atoms: C_34  and  C_35
REMARK   10  A    between atoms: C_35  and  N_36
REMARK   11  A    between atoms: N_36  and  C_37
REMARK   12  A    between atoms: N_36  and  C_38
REMARK                            x       y       z     vdW  Elec       q    Type
REMARK                         _______ _______ _______ _____ _____    ______ ____
ROOT
ATOM      1  C   UNL     1      -0.018   1.503   0.010  0.00  0.00    +0.044 C 
ATOM      2  C   UNL     1       0.002  -0.004   0.002  0.00  0.00    -0.050 A 
ATOM      3  C   UNL     1       0.006  -0.689  -1.205  0.00  0.00    +0.007 A 
ATOM      4  C   UNL     1       0.021  -2.065  -1.235  0.00  0.00    +0.047 A 
ATOM      5  C   UNL     1       0.035  -2.790  -0.043  0.00  0.00    +0.139 A 
ATOM      6  C   UNL     1       0.037  -2.086   1.172  0.00  0.00    +0.065 A 
ATOM      7  C   UNL     1       0.023  -0.692   1.183  0.00  0.00    +0.018 A 
ATOM      8  C   UNL     1       0.068  -2.849   2.446  0.00  0.00    +0.199 A 
ATOM      9  O   UNL     1      -0.097  -2.332   3.537  0.00  0.00    -0.287 OA
ATOM     10  C   UNL     1       0.314  -4.283   2.265  0.00  0.00    +0.072 A 
ATOM     11  C   UNL     1       0.294  -4.850   1.022  0.00  0.00    +0.199 A 
ATOM     12  O   UNL     1       0.043  -4.141  -0.096  0.00  0.00    -0.450 OA
ATOM     13  C   UNL     1       0.583  -6.288   1.166  0.00  0.00    +0.283 C 
ATOM     14  O   UNL     1       0.643  -7.081   0.247  0.00  0.00    -0.267 OA
ATOM     15  N   UNL     1       0.770  -6.596   2.465  0.00  0.00    -0.285 N 
ATOM     16  C   UNL     1       0.614  -5.362   3.253  0.00  0.00    +0.145 C 
ENDROOT
BRANCH  16  17
ATOM     17  C   UNL     1      -0.527  -5.508   4.226  0.00  0.00    -0.019 A 
ATOM     18  C   UNL     1      -1.668  -6.194   3.854  0.00  0.00    +0.009 A 
ATOM     19  C   UNL     1      -2.718  -6.331   4.743  0.00  0.00    +0.050 A 
ATOM     20  C   UNL     1      -2.627  -5.779   6.011  0.00  0.00    +0.162 A 
ATOM     21  C   UNL     1      -1.479  -5.089   6.386  0.00  0.00    +0.162 A 
ATOM     22  C   UNL     1      -0.428  -4.960   5.492  0.00  0.00    +0.055 A 
BRANCH  21  23
ATOM     23  O   UNL     1      -1.385  -4.546   7.630  0.00  0.00    -0.491 OA
ATOM     24  C   UNL     1      -0.177  -3.852   7.945  0.00  0.00    +0.277 C 
ENDBRANCH  21  23
BRANCH  20  25
ATOM     25  O   UNL     1      -3.659  -5.912   6.887  0.00  0.00    -0.484 OA
BRANCH  25  26
ATOM     26  C   UNL     1      -4.807  -6.633   6.433  0.00  0.00    +0.264 C 
BRANCH  26  27
ATOM     27  C   UNL     1      -5.839  -6.677   7.530  0.00  0.00    -0.010 A 
ATOM     28  C   UNL     1      -5.830  -7.713   8.446  0.00  0.00    +0.007 A 
ATOM     29  C   UNL     1      -6.777  -7.753   9.452  0.00  0.00    +0.000 A 
ATOM     30  C   UNL     1      -7.731  -6.758   9.544  0.00  0.00    +0.000 A 
ATOM     31  C   UNL     1      -7.739  -5.722   8.629  0.00  0.00    +0.000 A 
ATOM     32  C   UNL     1      -6.790  -5.679   7.625  0.00  0.00    +0.007 A 
ENDBRANCH  26  27
ENDBRANCH  25  26
ENDBRANCH  20  25
ENDBRANCH  16  17
BRANCH  15  33
ATOM     33  C   UNL     1       1.076  -7.926   2.999  0.00  0.00    +0.090 C 
BRANCH  33  34
ATOM     34  C   UNL     1       2.593  -8.120   3.045  0.00  0.00    -0.060 C 
BRANCH  34  35
ATOM     35  N   UNL     1       2.899  -9.454   3.581  0.00  0.00    +0.377 N 
ATOM     36  C   UNL     1       4.348  -9.687   3.514  0.00  0.00    -0.097 C 
ATOM     37  C   UNL     1       2.454  -9.534   4.979  0.00  0.00    -0.097 C 
ATOM     38  H   UNL     1       2.420 -10.154   3.035  0.00  0.00    -0.083 HD
ENDBRANCH  34  35
ENDBRANCH  33  34
ENDBRANCH  15  33
TORSDOF 8
