REMARK  Name = ZINC09307524
REMARK  5 active torsions:
REMARK  status: ('A' for Active; 'I' for Inactive)
REMARK    1  A    between atoms: C_1  and  C_2
REMARK    2  A    between atoms: C_4  and  C_35
REMARK    3  A    between atoms: N_20  and  C_23
REMARK    4  A    between atoms: C_28  and  O_29
REMARK    5  A    between atoms: O_29  and  C_30
REMARK                            x       y       z     vdW  Elec       q    Type
REMARK                         _______ _______ _______ _____ _____    ______ ____
ROOT
ATOM      1  C   UNL     1      -1.331   2.117   0.020  0.00  0.00    +0.044 C 
ATOM      2  C   UNL     1      -0.017   1.379   0.010  0.00  0.00    -0.050 A 
ATOM      3  C   UNL     1       0.002  -0.004   0.002  0.00  0.00    +0.008 A 
ATOM      4  C   UNL     1       1.202  -0.684  -0.013  0.00  0.00    -0.029 A 
ATOM      5  C   UNL     1       2.405   0.017  -0.021  0.00  0.00    +0.039 A 
ATOM      6  C   UNL     1       2.374   1.408  -0.013  0.00  0.00    -0.027 A 
ATOM      7  C   UNL     1       1.174   2.084   0.002  0.00  0.00    +0.008 A 
ATOM      8  C   UNL     1       3.810   1.852  -0.025  0.00  0.00    +0.053 C 
ATOM      9  C   UNL     1       4.140   2.708   1.204  0.00  0.00    +0.089 C 
ATOM     10  C   UNL     1       5.144   3.773   0.683  0.00  0.00    +0.074 C 
ATOM     11  C   UNL     1       5.323   3.461  -0.814  0.00  0.00    -0.054 C 
ATOM     12  C   UNL     1       3.047   3.711  -1.369  0.00  0.00    -0.076 C 
ATOM     13  C   UNL     1       3.756   4.926  -2.001  0.00  0.00    -0.020 C 
ATOM     14  C   UNL     1       5.241   4.770  -1.621  0.00  0.00    -0.016 C 
ATOM     15  C   UNL     1       4.384   5.072   0.838  0.00  0.00    +0.229 C 
ATOM     16  O   UNL     1       4.806   6.169   0.543  0.00  0.00    -0.275 OA
ATOM     17  N   UNL     1       3.174   4.821   1.350  0.00  0.00    -0.206 N 
ATOM     18  C   UNL     1       2.926   3.515   1.604  0.00  0.00    +0.230 C 
ATOM     19  O   UNL     1       1.904   3.060   2.071  0.00  0.00    -0.275 OA
ATOM     20  C   UNL     1       4.612   0.579  -0.038  0.00  0.00    +0.212 C 
ATOM     21  O   UNL     1       5.821   0.485  -0.049  0.00  0.00    -0.277 OA
ATOM     22  N   UNL     1       3.726  -0.436  -0.035  0.00  0.00    -0.286 N 
ATOM     23  C   UNL     1       1.211  -2.191  -0.022  0.00  0.00    +0.045 C 
ATOM     24  H   UNL     1       3.977  -1.373  -0.042  0.00  0.00    +0.155 HD
ATOM     25  N   UNL     1       4.128   2.726  -1.158  0.00  0.00    +0.395 N 
ATOM     26  H   UNL     1       4.272   2.168  -2.008  0.00  0.00    -0.079 HD
ENDROOT
BRANCH  17  27
ATOM     27  C   UNL     1       2.235   5.831   1.609  0.00  0.00    +0.087 A 
ATOM     28  C   UNL     1       1.328   6.206   0.630  0.00  0.00    +0.047 A 
ATOM     29  C   UNL     1       0.404   7.202   0.888  0.00  0.00    +0.043 A 
ATOM     30  C   UNL     1       0.382   7.826   2.123  0.00  0.00    +0.024 A 
ATOM     31  C   UNL     1       1.283   7.457   3.103  0.00  0.00    +0.049 A 
ATOM     32  C   UNL     1       2.209   6.456   2.854  0.00  0.00    +0.142 A 
ATOM     33 CL   UNL     1      -0.731   7.670  -0.340  0.00  0.00    -0.083 Cl
BRANCH  32  34
ATOM     34  O   UNL     1       3.092   6.089   3.820  0.00  0.00    -0.493 OA
ATOM     35  C   UNL     1       3.007   6.773   5.071  0.00  0.00    +0.277 C 
ENDBRANCH  32  34
ENDBRANCH  17  27
TORSDOF 2
