REMARK  Name = ZINC20238845
REMARK  8 active torsions:
REMARK  status: ('A' for Active; 'I' for Inactive)
REMARK    1  A    between atoms: C_1  and  C_2
REMARK    2  A    between atoms: C_7  and  O_8
REMARK    3  A    between atoms: O_8  and  C_9
REMARK    4  A    between atoms: C_9  and  C_10
REMARK    5  A    between atoms: C_16  and  C_17
REMARK    6  A    between atoms: C_20  and  C_22
REMARK    7  A    between atoms: C_24  and  N_29
REMARK    8  A    between atoms: C_27  and  C_28
REMARK                            x       y       z     vdW  Elec       q    Type
REMARK                         _______ _______ _______ _____ _____    ______ ____
ROOT
ATOM      1  C   UNL     1       1.747  -0.027   4.902  0.00  0.00    +0.137 C 
ATOM      2  N   UNL     1       1.384   1.223   4.883  0.00  0.00    -0.166 NA
ATOM      3  N   UNL     1       1.062   1.892   6.045  0.00  0.00    -0.152 N 
ATOM      4  C   UNL     1       0.574   3.214   6.128  0.00  0.00    +0.153 C 
ATOM      5  N   UNL     1      -0.025   3.823   5.137  0.00  0.00    -0.283 NA
ATOM      6  C   UNL     1       0.807   3.846   7.454  0.00  0.00    +0.084 C 
ATOM      7  C   UNL     1       1.049   5.206   7.582  0.00  0.00    +0.063 C 
ATOM      8  C   UNL     1       0.767   2.948   8.631  0.00  0.00    +0.273 C 
ATOM      9  O   UNL     1       0.491   3.378   9.740  0.00  0.00    -0.268 OA
ATOM     10  N   UNL     1       1.043   1.642   8.442  0.00  0.00    -0.152 NA
ATOM     11  C   UNL     1       1.207   1.193   7.224  0.00  0.00    +0.181 C 
ATOM     12  S   UNL     1       1.673  -0.417   6.645  0.00  0.00    -0.035 S 
ATOM     13  H   UNL     1      -0.152   3.364   4.292  0.00  0.00    +0.188 HD
ENDROOT
BRANCH   7  14
ATOM     14  C   UNL     1       1.260   5.992   6.438  0.00  0.00    +0.129 A 
ATOM     15  C   UNL     1       1.378   7.375   6.410  0.00  0.00    +0.050 A 
ATOM     16  C   UNL     1       1.577   7.736   5.078  0.00  0.00    +0.050 A 
ATOM     17  C   UNL     1       1.574   6.571   4.340  0.00  0.00    +0.136 A 
ATOM     18  O   UNL     1       1.387   5.534   5.174  0.00  0.00    -0.455 OA
BRANCH  17  19
ATOM     19  C   UNL     1       1.752   6.479   2.878  0.00  0.00    +0.022 A 
ATOM     20  C   UNL     1       0.995   7.288   2.026  0.00  0.00    +0.044 A 
ATOM     21  C   UNL     1       1.166   7.196   0.661  0.00  0.00    +0.127 A 
ATOM     22  C   UNL     1       2.086   6.306   0.134  0.00  0.00    +0.033 A 
ATOM     23  C   UNL     1       2.839   5.502   0.971  0.00  0.00    +0.006 A 
ATOM     24  C   UNL     1       2.682   5.587   2.339  0.00  0.00    -0.040 A 
ATOM     25  C   UNL     1       3.507   4.714   3.249  0.00  0.00    +0.044 C 
BRANCH  21  26
ATOM     26  N   UNL     1       0.365   8.052  -0.243  0.00  0.00    +0.056 N 
ATOM     27  O   UNL     1      -0.438   8.830   0.216  0.00  0.00    -0.126 OA
ATOM     28  O   UNL     1       0.515   7.973  -1.440  0.00  0.00    -0.126 OA
ENDBRANCH  21  26
ENDBRANCH  17  19
ENDBRANCH   7  14
BRANCH   1  29
ATOM     29  C   UNL     1       2.126  -0.920   3.748  0.00  0.00    +0.293 C 
BRANCH  29  30
ATOM     30  O   UNL     1       2.043  -0.181   2.528  0.00  0.00    -0.485 OA
BRANCH  30  37
ATOM     31  C   UNL     1       1.886   1.261   0.104  0.00  0.00    +0.047 C 
ATOM     32  C   UNL     1       2.297  -0.188   0.163  0.00  0.00    -0.009 A 
ATOM     33  C   UNL     1       2.620  -0.862  -0.999  0.00  0.00    +0.007 A 
ATOM     34  C   UNL     1       2.997  -2.191  -0.946  0.00  0.00    +0.000 A 
ATOM     35  C   UNL     1       3.050  -2.849   0.269  0.00  0.00    +0.004 A 
ATOM     36  C   UNL     1       2.728  -2.179   1.433  0.00  0.00    +0.046 A 
ATOM     37  C   UNL     1       2.356  -0.844   1.383  0.00  0.00    +0.124 A 
ENDBRANCH  30  37
ENDBRANCH  29  30
ENDBRANCH   1  29
TORSDOF 6
