REMARK  Name = ZINC20720873
REMARK  4 active torsions:
REMARK  status: ('A' for Active; 'I' for Inactive)
REMARK    1  A    between atoms: C_7  and  C_11
REMARK    2  A    between atoms: C_22  and  C_27
REMARK    3  A    between atoms: N_29  and  C_30
REMARK    4  A    between atoms: C_30  and  C_31
REMARK                            x       y       z     vdW  Elec       q    Type
REMARK                         _______ _______ _______ _____ _____    ______ ____
ROOT
ATOM      1  C   UNL     1      -2.126   3.084   8.333  0.00  0.00    +0.107 C 
ATOM      2  C   UNL     1      -1.452   1.717   8.474  0.00  0.00    +0.029 C 
ATOM      3  C   UNL     1      -0.370   1.845   9.587  0.00  0.00    +0.033 C 
ATOM      4  C   UNL     1       0.814   2.450   8.857  0.00  0.00    -0.030 C 
ATOM      5  C   UNL     1       0.720   2.230   7.568  0.00  0.00    -0.023 C 
ATOM      6  C   UNL     1      -0.538   1.455   7.261  0.00  0.00    +0.049 C 
ATOM      7  C   UNL     1      -1.148   1.895   5.967  0.00  0.00    -0.019 A 
ATOM      8  C   UNL     1      -0.552   1.495   4.785  0.00  0.00    +0.019 A 
ATOM      9  C   UNL     1      -1.090   1.878   3.556  0.00  0.00    +0.037 A 
ATOM     10  C   UNL     1      -2.237   2.676   3.515  0.00  0.00    +0.015 A 
ATOM     11  C   UNL     1      -2.832   3.071   4.691  0.00  0.00    +0.024 A 
ATOM     12  C   UNL     1      -2.290   2.686   5.915  0.00  0.00    +0.031 A 
ATOM     13  N   UNL     1      -2.906   3.104   7.092  0.00  0.00    -0.336 N 
ATOM     14  H   UNL     1      -3.953   3.443   7.105  0.00  0.00    +0.147 HD
ENDROOT
BRANCH   1  21
ATOM     15  C   UNL     1       0.051   5.590  11.644  0.00  0.00    +0.001 A 
ATOM     16  C   UNL     1       0.968   6.492  11.123  0.00  0.00    +0.002 A 
ATOM     17  C   UNL     1       1.166   6.588   9.763  0.00  0.00    +0.026 A 
ATOM     18  C   UNL     1       0.440   5.772   8.900  0.00  0.00    +0.047 A 
ATOM     19  C   UNL     1      -0.488   4.859   9.433  0.00  0.00    +0.005 A 
ATOM     20  C   UNL     1      -0.672   4.779  10.815  0.00  0.00    +0.010 A 
ATOM     21  C   UNL     1      -1.075   4.163   8.286  0.00  0.00    -0.002 A 
ATOM     22  C   UNL     1      -0.494   4.664   7.184  0.00  0.00    +0.089 A 
ATOM     23  N   UNL     1       0.409   5.631   7.531  0.00  0.00    -0.360 N 
ATOM     24  H   UNL     1       1.058   6.255   6.899  0.00  0.00    +0.165 HD
ENDBRANCH   1  21
BRANCH   9  25
ATOM     25  C   UNL     1      -0.447   1.446   2.301  0.00  0.00    +0.244 C 
ATOM     26  O   UNL     1       0.554   0.755   2.338  0.00  0.00    -0.270 OA
ATOM     27  N   UNL     1      -0.967   1.816   1.115  0.00  0.00    -0.309 N 
ATOM     28  H   UNL     1      -1.872   2.440   1.082  0.00  0.00    +0.149 HD
BRANCH  27  29
ATOM     29  C   UNL     1      -0.328   1.387  -0.132  0.00  0.00    +0.136 C 
BRANCH  29  30
ATOM     30  C   UNL     1      -1.112   1.939  -1.324  0.00  0.00    +0.135 C 
ATOM     31  C   UNL     1      -0.494   1.438  -2.653  0.00  0.00    +0.035 C 
ATOM     32  C   UNL     1      -1.719   1.533  -3.602  0.00  0.00    +0.031 C 
ATOM     33  C   UNL     1      -2.891   1.185  -2.660  0.00  0.00    +0.160 C 
ATOM     34  O   UNL     1      -2.454   1.427  -1.318  0.00  0.00    -0.375 OA
ENDBRANCH  29  30
ENDBRANCH  27  29
ENDBRANCH   9  25
TORSDOF 4
