REMARK  Name = ZINC44453388
REMARK  10 active torsions:
REMARK  status: ('A' for Active; 'I' for Inactive)
REMARK    1  A    between atoms: C_1  and  C_2
REMARK    2  A    between atoms: C_5  and  S_8
REMARK    3  A    between atoms: S_8  and  N_11
REMARK    4  A    between atoms: N_11  and  C_12
REMARK    5  A    between atoms: C_17  and  C_18
REMARK    6  A    between atoms: N_20  and  C_21
REMARK    7  A    between atoms: C_22  and  C_26
REMARK    8  A    between atoms: N_28  and  N_29
REMARK    9  A    between atoms: C_30  and  C_31
REMARK   10  A    between atoms: C_30  and  C_32
REMARK                            x       y       z     vdW  Elec       q    Type
REMARK                         _______ _______ _______ _____ _____    ______ ____
ROOT
ATOM      1  C   UNL     1       1.976  -6.349  -0.043  0.00  0.00    +0.086 A 
ATOM      2  C   UNL     1       0.972  -7.310  -0.049  0.00  0.00    +0.027 A 
ATOM      3  C   UNL     1       1.297  -8.650  -0.058  0.00  0.00    +0.002 A 
ATOM      4  C   UNL     1       2.624  -9.050  -0.061  0.00  0.00    +0.001 A 
ATOM      5  C   UNL     1       3.634  -8.113  -0.055  0.00  0.00    +0.015 A 
ATOM      6  C   UNL     1       3.321  -6.751  -0.053  0.00  0.00    +0.061 A 
ENDROOT
BRANCH   6   7
ATOM      7  C   UNL     1       4.396  -5.743  -0.054  0.00  0.00    +0.251 C 
ATOM      8  O   UNL     1       4.119  -4.559  -0.046  0.00  0.00    -0.270 OA
ATOM      9  N   UNL     1       5.686  -6.134  -0.063  0.00  0.00    -0.275 N 
ATOM     10  H   UNL     1       5.907  -7.078  -0.069  0.00  0.00    +0.156 HD
BRANCH   9  11
ATOM     11  C   UNL     1       6.697  -5.186  -0.063  0.00  0.00    +0.084 A 
ATOM     12  C   UNL     1       8.068  -5.401  -0.078  0.00  0.00    +0.067 A 
ATOM     13  C   UNL     1       8.906  -4.224  -0.075  0.00  0.00    +0.022 A 
ATOM     14  C   UNL     1       8.260  -3.043  -0.058  0.00  0.00    +0.048 A 
ATOM     15  S   UNL     1       6.544  -3.515  -0.054  0.00  0.00    -0.081 S 
BRANCH  12  16
ATOM     16  C   UNL     1       8.636  -6.752  -0.095  0.00  0.00    +0.266 C 
ATOM     17  O   UNL     1       7.901  -7.722  -0.097  0.00  0.00    -0.268 OA
ATOM     18  N   UNL     1       9.973  -6.920  -0.108  0.00  0.00    -0.203 N 
ATOM     19  H   UNL     1      10.559  -6.147  -0.107  0.00  0.00    +0.178 HD
BRANCH  18  20
ATOM     20  N   UNL     1      10.517  -8.212  -0.125  0.00  0.00    -0.190 NA
ATOM     21  C   UNL     1      11.787  -8.372  -0.138  0.00  0.00    +0.031 C 
ATOM     22  C   UNL     1      12.697  -7.171  -0.136  0.00  0.00    +0.062 C 
ATOM     23  C   UNL     1      12.371  -9.761  -0.155  0.00  0.00    +0.062 C 
ENDBRANCH  18  20
ENDBRANCH  12  16
ENDBRANCH   9  11
ENDBRANCH   6   7
BRANCH   1  24
ATOM     24  N   UNL     1       1.651  -4.999  -0.034  0.00  0.00    -0.097 NA
BRANCH  24  25
ATOM     25  S   UNL     1       0.063  -4.530  -0.023  0.00  0.00    +0.092 S 
ATOM     26  O   UNL     1      -0.476  -4.950   1.223  0.00  0.00    -0.148 OA
ATOM     27  O   UNL     1      -0.490  -4.937  -1.267  0.00  0.00    -0.148 OA
BRANCH  25  32
ATOM     28  C   UNL     1      -0.018   1.503   0.010  0.00  0.00    +0.044 C 
ATOM     29  C   UNL     1       0.002  -0.004   0.002  0.00  0.00    -0.050 A 
ATOM     30  C   UNL     1       0.006  -0.689  -1.199  0.00  0.00    +0.005 A 
ATOM     31  C   UNL     1       0.025  -2.071  -1.206  0.00  0.00    +0.029 A 
ATOM     32  C   UNL     1       0.040  -2.768  -0.013  0.00  0.00    +0.110 A 
ATOM     33  C   UNL     1       0.037  -2.084   1.188  0.00  0.00    +0.029 A 
ATOM     34  C   UNL     1       0.023  -0.702   1.195  0.00  0.00    +0.005 A 
ENDBRANCH  25  32
ENDBRANCH  24  25
ENDBRANCH   1  24
TORSDOF 7
