REMARK  Name = ZINC39408722
REMARK  7 active torsions:
REMARK  status: ('A' for Active; 'I' for Inactive)
REMARK    1  A    between atoms: C_1  and  C_2
REMARK    2  A    between atoms: C_2  and  C_3
REMARK    3  A    between atoms: N_17  and  N_18
REMARK    4  A    between atoms: C_19  and  C_20
REMARK    5  A    between atoms: C_22  and  O_28
REMARK    6  A    between atoms: C_23  and  O_27
REMARK    7  A    between atoms: O_28  and  C_29
REMARK                            x       y       z     vdW  Elec       q    Type
REMARK                         _______ _______ _______ _____ _____    ______ ____
ROOT
ATOM      1  C   UNL     1       0.731  -0.503   1.223  0.00  0.00    -0.047 A 
ATOM      2  C   UNL     1       2.116  -0.704   1.147  0.00  0.00    +0.005 A 
ATOM      3  C   UNL     1       2.829  -1.155   2.204  0.00  0.00    +0.026 A 
ATOM      4  C   UNL     1       2.137  -1.444   3.466  0.00  0.00    +0.046 A 
ATOM      5  N   UNL     1       2.579  -1.852   4.632  0.00  0.00    -0.358 N 
ATOM      6  C   UNL     1       1.443  -2.097   5.504  0.00  0.00    +0.253 C 
ATOM      7  C   UNL     1       0.236  -1.523   4.783  0.00  0.00    +0.115 C 
ATOM      8  C   UNL     1       0.672  -1.210   3.518  0.00  0.00    +0.025 A 
ATOM      9  C   UNL     1       0.025  -0.736   2.353  0.00  0.00    +0.015 A 
ATOM     10  N   UNL     1      -0.915  -1.288   5.417  0.00  0.00    -0.171 NA
ATOM     11  N   UNL     1      -0.814  -1.053   6.690  0.00  0.00    -0.247 N 
ATOM     12  C   UNL     1       0.386  -0.983   7.317  0.00  0.00    +0.227 C 
ATOM     13  N   UNL     1       1.510  -1.428   6.802  0.00  0.00    -0.220 NA
ATOM     14  N   UNL     1       0.429  -0.414   8.573  0.00  0.00    -0.206 N 
ATOM     15  H   UNL     1      -0.384  -0.078   8.982  0.00  0.00    +0.177 HD
ATOM     16  H   UNL     1      -1.623  -0.922   7.210  0.00  0.00    +0.192 HD
ATOM     17  H   UNL     1       3.511  -1.970   4.872  0.00  0.00    +0.162 HD
ENDROOT
BRANCH   1  19
ATOM     18  C   UNL     1      -0.019   1.526   0.010  0.00  0.00    +0.009 C 
ATOM     19  C   UNL     1       0.002  -0.004   0.002  0.00  0.00    +0.032 C 
ENDBRANCH   1  19
BRANCH  14  20
ATOM     20  N   UNL     1       1.648  -0.321   9.258  0.00  0.00    -0.188 NA
ATOM     21  C   UNL     1       1.690   0.215  10.440  0.00  0.00    +0.138 C 
BRANCH  21  22
ATOM     22  C   UNL     1       2.972   0.313  11.161  0.00  0.00    -0.001 A 
ATOM     23  C   UNL     1       3.017   0.884  12.436  0.00  0.00    +0.059 A 
ATOM     24  C   UNL     1       4.222   0.973  13.107  0.00  0.00    +0.163 A 
ATOM     25  C   UNL     1       5.388   0.495  12.513  0.00  0.00    +0.173 A 
ATOM     26  C   UNL     1       5.344  -0.072  11.247  0.00  0.00    +0.063 A 
ATOM     27  C   UNL     1       4.144  -0.170  10.573  0.00  0.00    +0.028 A 
ATOM     28 BR   UNL     1       6.931  -0.718  10.447  0.00  0.00    -0.046 Br
BRANCH  25  29
ATOM     29  O   UNL     1       6.572   0.584  13.176  0.00  0.00    -0.503 OA
ATOM     30  H   UNL     1       6.772  -0.184  13.728  0.00  0.00    +0.292 HD
ENDBRANCH  25  29
BRANCH  24  31
ATOM     31  O   UNL     1       4.269   1.528  14.348  0.00  0.00    -0.491 OA
ATOM     32  C   UNL     1       3.036   1.998  14.896  0.00  0.00    +0.277 C 
ENDBRANCH  24  31
ENDBRANCH  21  22
ENDBRANCH  14  20
TORSDOF 5
