REMARK  Name = ZINC36586029
REMARK  14 active torsions:
REMARK  status: ('A' for Active; 'I' for Inactive)
REMARK    1  A    between atoms: C_1  and  C_2
REMARK    2  A    between atoms: C_5  and  S_8
REMARK    3  A    between atoms: S_8  and  C_11
REMARK    4  A    between atoms: C_11  and  N_12
REMARK    5  A    between atoms: C_13  and  C_15
REMARK    6  A    between atoms: C_15  and  C_17
REMARK    7  A    between atoms: C_15  and  N_24
REMARK    8  A    between atoms: C_21  and  O_23
REMARK    9  A    between atoms: N_24  and  C_35
REMARK   10  A    between atoms: C_25  and  C_27
REMARK   11  A    between atoms: C_28  and  C_29
REMARK   12  A    between atoms: C_35  and  C_36
REMARK   13  A    between atoms: C_35  and  C_37
REMARK   14  A    between atoms: C_35  and  C_38
REMARK                            x       y       z     vdW  Elec       q    Type
REMARK                         _______ _______ _______ _____ _____    ______ ____
ROOT
ATOM      1  C   UNL     1       3.036  -4.887   3.667  0.00  0.00    +0.194 C 
ENDROOT
BRANCH   1   2
ATOM      2  C   UNL     1       4.363  -4.175   3.590  0.00  0.00    -0.015 A 
ATOM      3  C   UNL     1       5.536  -4.905   3.528  0.00  0.00    +0.006 A 
ATOM      4  C   UNL     1       6.754  -4.255   3.457  0.00  0.00    +0.004 A 
ATOM      5  C   UNL     1       6.802  -2.874   3.448  0.00  0.00    +0.045 A 
ATOM      6  C   UNL     1       5.627  -2.140   3.510  0.00  0.00    +0.117 A 
ATOM      7  C   UNL     1       4.405  -2.795   3.575  0.00  0.00    +0.051 A 
BRANCH   6   8
ATOM      8  O   UNL     1       5.672  -0.782   3.502  0.00  0.00    -0.507 OA
ATOM      9  H   UNL     1       5.636  -0.393   2.617  0.00  0.00    +0.292 HD
ENDBRANCH   6   8
ENDBRANCH   1   2
BRANCH   1  11
ATOM     10  N   UNL     1       2.321  -3.912   1.509  0.00  0.00    -0.294 N 
ATOM     11  C   UNL     1       2.449  -5.007   2.285  0.00  0.00    +0.239 C 
ATOM     12  O   UNL     1       2.092  -6.089   1.869  0.00  0.00    -0.273 OA
ATOM     13  H   UNL     1       2.607  -3.046   1.841  0.00  0.00    +0.150 HD
BRANCH  10  14
ATOM     14  C   UNL     1       1.750  -4.029   0.165  0.00  0.00    +0.278 C 
BRANCH  14  15
ATOM     15  S   UNL     1      -0.025  -3.661   0.228  0.00  0.00    +0.013 S 
ATOM     16  O   UNL     1      -0.633  -4.368   1.300  0.00  0.00    -0.168 OA
ATOM     17  O   UNL     1      -0.581  -3.709  -1.079  0.00  0.00    -0.168 OA
BRANCH  15  22
ATOM     18  C   UNL     1      -0.354   2.147   1.829  0.00  0.00    +0.044 C 
ATOM     19  C   UNL     1      -0.271   0.696   1.429  0.00  0.00    -0.050 A 
ATOM     20  C   UNL     1      -0.207   0.350   0.093  0.00  0.00    +0.005 A 
ATOM     21  C   UNL     1      -0.132  -0.980  -0.274  0.00  0.00    +0.027 A 
ATOM     22  C   UNL     1      -0.120  -1.965   0.696  0.00  0.00    +0.090 A 
ATOM     23  C   UNL     1      -0.183  -1.619   2.033  0.00  0.00    +0.027 A 
ATOM     24  C   UNL     1      -0.254  -0.289   2.400  0.00  0.00    +0.005 A 
ENDBRANCH  15  22
ENDBRANCH  14  15
ENDBRANCH  10  14
ENDBRANCH   1  11
BRANCH   1  25
ATOM     25  N   UNL     1       3.232  -6.224   4.233  0.00  0.00    -0.270 N 
ATOM     26  C   UNL     1       3.860  -7.175   3.513  0.00  0.00    +0.293 C 
ATOM     27  O   UNL     1       4.176  -6.955   2.359  0.00  0.00    -0.260 OA
BRANCH  25  28
ATOM     28  C   UNL     1       2.745  -6.528   5.581  0.00  0.00    +0.031 C 
ATOM     29  C   UNL     1       1.994  -5.316   6.137  0.00  0.00    +0.031 C 
ATOM     30  C   UNL     1       1.801  -7.730   5.523  0.00  0.00    +0.031 C 
ATOM     31  C   UNL     1       3.931  -6.854   6.490  0.00  0.00    +0.031 C 
ENDBRANCH  25  28
BRANCH  26  32
ATOM     32  C   UNL     1       4.157  -8.443   4.107  0.00  0.00    -0.003 C 
ATOM     33  C   UNL     1       4.399  -9.484   4.594  0.00  0.00    -0.057 C 
BRANCH  33  34
ATOM     34  C   UNL     1       4.696 -10.752   5.188  0.00  0.00    +0.025 A 
ATOM     35  C   UNL     1       4.330 -11.011   6.513  0.00  0.00    +0.017 A 
ATOM     36  C   UNL     1       4.618 -12.235   7.078  0.00  0.00    +0.001 A 
ATOM     37  C   UNL     1       5.268 -13.207   6.337  0.00  0.00    +0.000 A 
ATOM     38  C   UNL     1       5.634 -12.959   5.026  0.00  0.00    +0.001 A 
ATOM     39  C   UNL     1       5.347 -11.742   4.445  0.00  0.00    +0.017 A 
ENDBRANCH  33  34
ENDBRANCH  26  32
ENDBRANCH   1  25
TORSDOF 10
