REMARK  Name = ZINC12502406
REMARK  7 active torsions:
REMARK  status: ('A' for Active; 'I' for Inactive)
REMARK    1  A    between atoms: C_8  and  C_10
REMARK    2  A    between atoms: N_12  and  N_13
REMARK    3  A    between atoms: N_13  and  C_14
REMARK    4  A    between atoms: C_14  and  N_16
REMARK    5  A    between atoms: C_17  and  C_19
REMARK    6  A    between atoms: C_19  and  O_20
REMARK    7  A    between atoms: O_20  and  C_21
REMARK                            x       y       z     vdW  Elec       q    Type
REMARK                         _______ _______ _______ _____ _____    ______ ____
ROOT
ATOM      1  N   UNL     1       5.358  -4.024  -0.074  0.00  0.00    -0.245 N 
ATOM      2  H   UNL     1       6.259  -4.381  -0.085  0.00  0.00    +0.172 HD
ENDROOT
BRANCH   1   5
ATOM      3  C   UNL     1       4.455  -6.226  -0.077  0.00  0.00    +0.268 C 
ATOM      4  O   UNL     1       5.586  -6.675  -0.091  0.00  0.00    -0.268 OA
ATOM      5  N   UNL     1       4.259  -4.893  -0.068  0.00  0.00    -0.231 N 
ATOM      6  H   UNL     1       3.358  -4.536  -0.057  0.00  0.00    +0.173 HD
BRANCH   3  14
ATOM      7  C   UNL     1       0.610 -11.113  -0.068  0.00  0.00    +0.001 A 
ATOM      8  C   UNL     1      -0.512 -10.293  -0.053  0.00  0.00    +0.001 A 
ATOM      9  C   UNL     1      -0.353  -8.922  -0.046  0.00  0.00    +0.016 A 
ATOM     10  C   UNL     1       0.917  -8.386  -0.056  0.00  0.00    +0.021 A 
ATOM     11  C   UNL     1       2.077  -9.196  -0.071  0.00  0.00    +0.008 A 
ATOM     12  C   UNL     1       1.867 -10.599  -0.077  0.00  0.00    +0.010 A 
ATOM     13  C   UNL     1       3.300  -8.499  -0.085  0.00  0.00    +0.068 A 
ATOM     14  C   UNL     1       3.304  -7.138  -0.071  0.00  0.00    +0.095 A 
ATOM     15  S   UNL     1       1.566  -6.734  -0.053  0.00  0.00    -0.082 S 
ATOM     16 CL   UNL     1       4.800  -9.373  -0.113  0.00  0.00    -0.082 Cl
ENDBRANCH   3  14
ENDBRANCH   1   5
BRANCH   1  17
ATOM     17  C   UNL     1       5.162  -2.690  -0.064  0.00  0.00    +0.153 C 
ATOM     18  S   UNL     1       6.504  -1.627  -0.071  0.00  0.00    -0.017 S 
BRANCH  17  19
ATOM     19  N   UNL     1       3.909  -2.193  -0.049  0.00  0.00    -0.264 N 
ATOM     20  C   UNL     1       3.713  -0.860  -0.040  0.00  0.00    +0.256 C 
ATOM     21  O   UNL     1       4.663  -0.107  -0.044  0.00  0.00    -0.272 OA
ATOM     22  H   UNL     1       3.148  -2.795  -0.045  0.00  0.00    +0.157 HD
BRANCH  20  23
ATOM     23  C   UNL     1       2.312  -0.304  -0.023  0.00  0.00    +0.325 C 
BRANCH  23  24
ATOM     24  O   UNL     1       2.366   1.123  -0.015  0.00  0.00    -0.481 OA
BRANCH  24  25
ATOM     25  C   UNL     1       1.179   1.786   0.000  0.00  0.00    +0.140 A 
ATOM     26  C   UNL     1      -0.013   1.076   0.008  0.00  0.00    +0.048 A 
ATOM     27  C   UNL     1      -1.218   1.751   0.017  0.00  0.00    +0.023 A 
ATOM     28  C   UNL     1      -1.238   3.134   0.031  0.00  0.00    +0.043 A 
ATOM     29  C   UNL     1      -0.051   3.845   0.023  0.00  0.00    +0.043 A 
ATOM     30  C   UNL     1       1.157   3.174   0.008  0.00  0.00    +0.084 A 
ATOM     31 CL   UNL     1       2.647   4.066  -0.002  0.00  0.00    -0.080 Cl
ATOM     32 CL   UNL     1      -2.754   3.979   0.049  0.00  0.00    -0.083 Cl
ENDBRANCH  24  25
ENDBRANCH  23  24
ENDBRANCH  20  23
ENDBRANCH  17  19
ENDBRANCH   1  17
TORSDOF 7
