REMARK  Name = ZINC09777884
REMARK  10 active torsions:
REMARK  status: ('A' for Active; 'I' for Inactive)
REMARK    1  A    between atoms: C_1  and  N_59
REMARK    2  A    between atoms: C_2  and  C_3
REMARK    3  A    between atoms: C_2  and  N_59
REMARK    4  A    between atoms: C_8  and  O_9
REMARK    5  A    between atoms: O_9  and  C_10
REMARK    6  A    between atoms: C_12  and  N_13
REMARK    7  A    between atoms: C_12  and  N_59
REMARK    8  A    between atoms: C_16  and  C_20
REMARK    9  A    between atoms: C_16  and  C_27
REMARK   10  A    between atoms: C_20  and  C_21
REMARK                            x       y       z     vdW  Elec       q    Type
REMARK                         _______ _______ _______ _____ _____    ______ ____
ROOT
ATOM      1  N   UNL     1      -3.974   6.767  -2.474  0.00  0.00    -0.241 N 
ATOM      2  C   UNL     1      -3.349   7.961  -2.498  0.00  0.00    +0.250 C 
ATOM      3  O   UNL     1      -2.754   8.495  -1.587  0.00  0.00    -0.272 OA
ATOM      4  C   UNL     1      -3.542   8.496  -3.903  0.00  0.00    +0.142 C 
ATOM      5  N   UNL     1      -4.335   7.447  -4.568  0.00  0.00    -0.281 N 
ATOM      6  C   UNL     1      -4.536   6.481  -3.654  0.00  0.00    +0.308 C 
ATOM      7  O   UNL     1      -5.159   5.461  -3.876  0.00  0.00    -0.252 OA
ATOM      8  H   UNL     1      -4.649   7.452  -5.486  0.00  0.00    +0.152 HD
ENDROOT
BRANCH   4   9
ATOM      9  C   UNL     1      -2.217   8.679  -4.596  0.00  0.00    -0.015 A 
ATOM     10  C   UNL     1      -1.596   9.914  -4.587  0.00  0.00    +0.006 A 
ATOM     11  C   UNL     1      -0.378  10.080  -5.219  0.00  0.00    +0.000 A 
ATOM     12  C   UNL     1       0.215   9.014  -5.869  0.00  0.00    +0.000 A 
ATOM     13  C   UNL     1      -0.408   7.780  -5.882  0.00  0.00    +0.000 A 
ATOM     14  C   UNL     1      -1.624   7.612  -5.246  0.00  0.00    +0.006 A 
ENDBRANCH   4   9
BRANCH   1  15
ATOM     15  C   UNL     1      -4.036   5.894  -1.299  0.00  0.00    +0.043 C 
BRANCH  15  17
ATOM     16  C   UNL     1      -3.136   3.836  -2.202  0.00  0.00    -0.093 C 
ATOM     17  N   UNL     1      -2.866   4.991  -1.320  0.00  0.00    +0.391 N 
ATOM     18  H   UNL     1      -2.054   5.505  -1.682  0.00  0.00    -0.079 HD
BRANCH  17  19
ATOM     19  C   UNL     1      -2.566   4.522   0.049  0.00  0.00    -0.037 C 
BRANCH  19  20
ATOM     20  C   UNL     1      -1.250   3.788   0.033  0.00  0.00    -0.021 A 
ATOM     21  C   UNL     1      -1.229   2.406   0.021  0.00  0.00    +0.025 A 
ATOM     22  C   UNL     1      -0.021   1.732   0.012  0.00  0.00    +0.041 A 
ATOM     23  C   UNL     1       1.168   2.439   0.004  0.00  0.00    +0.023 A 
ATOM     24  C   UNL     1       1.151   3.820   0.011  0.00  0.00    +0.047 A 
ATOM     25  C   UNL     1      -0.059   4.498   0.026  0.00  0.00    +0.122 A 
ATOM     26 CL   UNL     1       0.002  -0.004   0.002  0.00  0.00    -0.084 Cl
BRANCH  25  27
ATOM     27  O   UNL     1      -0.077   5.857   0.032  0.00  0.00    -0.495 OA
ATOM     28  C   UNL     1       1.187   6.523   0.024  0.00  0.00    +0.277 C 
ENDBRANCH  25  27
ENDBRANCH  19  20
ENDBRANCH  17  19
ENDBRANCH  15  17
ENDBRANCH   1  15
BRANCH   4  29
ATOM     29  C   UNL     1      -4.317   9.816  -3.870  0.00  0.00    +0.075 C 
BRANCH  29  30
ATOM     30  C   UNL     1      -5.613   9.619  -3.128  0.00  0.00    -0.045 A 
ATOM     31  C   UNL     1      -6.752   9.241  -3.814  0.00  0.00    +0.004 A 
ATOM     32  C   UNL     1      -7.940   9.056  -3.131  0.00  0.00    +0.000 A 
ATOM     33  C   UNL     1      -7.991   9.258  -1.765  0.00  0.00    +0.000 A 
ATOM     34  C   UNL     1      -6.854   9.641  -1.080  0.00  0.00    +0.000 A 
ATOM     35  C   UNL     1      -5.664   9.822  -1.761  0.00  0.00    +0.004 A 
ENDBRANCH  29  30
ENDBRANCH   4  29
TORSDOF 8
