REMARK  Name = ZINC01249119
REMARK  7 active torsions:
REMARK  status: ('A' for Active; 'I' for Inactive)
REMARK    1  A    between atoms: C_1  and  C_2
REMARK    2  A    between atoms: C_2  and  O_3
REMARK    3  A    between atoms: O_3  and  C_4
REMARK    4  A    between atoms: C_9  and  N_10
REMARK    5  A    between atoms: C_11  and  C_13
REMARK    6  A    between atoms: C_14  and  C_28
REMARK    7  A    between atoms: C_19  and  C_21
REMARK                            x       y       z     vdW  Elec       q    Type
REMARK                         _______ _______ _______ _____ _____    ______ ____
ROOT
ATOM      1  C   UNL     1      -1.417   2.816   0.273  0.00  0.00    +0.056 C 
ATOM      2  C   UNL     1      -0.216   3.262  -0.153  0.00  0.00    +0.017 C 
ATOM      3  N   UNL     1       0.900   2.481  -0.059  0.00  0.00    -0.300 N 
ATOM      4  C   UNL     1       0.899   1.242   0.449  0.00  0.00    +0.135 C 
ATOM      5  S   UNL     1       2.371   0.370   0.508  0.00  0.00    -0.019 S 
ATOM      6  N   UNL     1      -0.224   0.659   0.915  0.00  0.00    -0.315 N 
ATOM      7  C   UNL     1      -1.484   1.418   0.854  0.00  0.00    +0.139 C 
ATOM      8  C   UNL     1      -0.106   4.645  -0.742  0.00  0.00    +0.061 C 
ATOM      9  H   UNL     1       1.869   2.862  -0.412  0.00  0.00    +0.154 HD
ATOM     10  H   UNL     1      -0.213  -0.358   1.334  0.00  0.00    +0.149 HD
ENDROOT
BRANCH   7  11
ATOM     11  C   UNL     1      -2.030   1.527   2.254  0.00  0.00    -0.022 A 
ATOM     12  C   UNL     1      -1.190   1.871   3.297  0.00  0.00    +0.008 A 
ATOM     13  C   UNL     1      -1.690   1.977   4.582  0.00  0.00    +0.038 A 
ATOM     14  C   UNL     1      -3.030   1.726   4.825  0.00  0.00    +0.123 A 
ATOM     15  C   UNL     1      -3.869   1.376   3.780  0.00  0.00    +0.038 A 
ATOM     16  C   UNL     1      -3.368   1.277   2.496  0.00  0.00    +0.008 A 
ATOM     17  F   UNL     1      -3.519   1.823   6.081  0.00  0.00    -0.205 F 
ENDBRANCH   7  11
BRANCH   1  19
ATOM     18  N   UNL     1      -2.785   4.611   1.071  0.00  0.00    -0.279 N 
ATOM     19  C   UNL     1      -2.575   3.625   0.177  0.00  0.00    +0.248 C 
ATOM     20  O   UNL     1      -3.381   3.430  -0.715  0.00  0.00    -0.270 OA
ATOM     21  H   UNL     1      -2.013   4.850   1.818  0.00  0.00    +0.155 HD
BRANCH  18  27
ATOM     22  C   UNL     1      -4.518   5.837   2.235  0.00  0.00    +0.142 A 
ATOM     23  C   UNL     1      -5.706   6.549   2.209  0.00  0.00    +0.047 A 
ATOM     24  C   UNL     1      -6.362   6.756   1.010  0.00  0.00    +0.004 A 
ATOM     25  C   UNL     1      -5.835   6.254  -0.166  0.00  0.00    +0.002 A 
ATOM     26  C   UNL     1      -4.647   5.548  -0.149  0.00  0.00    +0.027 A 
ATOM     27  C   UNL     1      -3.986   5.331   1.051  0.00  0.00    +0.076 A 
BRANCH  22  28
ATOM     28  O   UNL     1      -3.871   5.633   3.414  0.00  0.00    -0.490 OA
BRANCH  28  30
ATOM     29  C   UNL     1      -3.610   5.851   5.807  0.00  0.00    +0.048 C 
ATOM     30  C   UNL     1      -4.475   6.180   4.588  0.00  0.00    +0.226 C 
ENDBRANCH  28  30
ENDBRANCH  22  28
ENDBRANCH  18  27
ENDBRANCH   1  19
TORSDOF 5
