REMARK  Name = ZINC33751726
REMARK  8 active torsions:
REMARK  status: ('A' for Active; 'I' for Inactive)
REMARK    1  A    between atoms: C_1  and  C_2
REMARK    2  A    between atoms: C_7  and  N_30
REMARK    3  A    between atoms: C_8  and  C_13
REMARK    4  A    between atoms: N_17  and  C_21
REMARK    5  A    between atoms: C_21  and  C_22
REMARK    6  A    between atoms: C_25  and  O_28
REMARK    7  A    between atoms: O_28  and  C_29
REMARK    8  A    between atoms: N_30  and  C_31
REMARK                            x       y       z     vdW  Elec       q    Type
REMARK                         _______ _______ _______ _____ _____    ______ ____
ROOT
ATOM      1  C   UNL     1       4.636   4.323  -0.767  0.00  0.00    +0.045 C 
ATOM      2  C   UNL     1       3.389   3.521  -0.496  0.00  0.00    -0.034 A 
ATOM      3  C   UNL     1       2.177   4.176  -0.238  0.00  0.00    +0.008 A 
ATOM      4  C   UNL     1       1.055   3.441   0.006  0.00  0.00    +0.047 A 
ATOM      5  C   UNL     1       1.129   2.037  -0.004  0.00  0.00    +0.142 A 
ATOM      6  N   UNL     1       0.026   1.327   0.236  0.00  0.00    -0.214 NA
ATOM      7  C   UNL     1       0.038   0.002   0.239  0.00  0.00    +0.134 A 
ATOM      8  C   UNL     1       1.249  -0.684  -0.018  0.00  0.00    +0.081 A 
ATOM      9  C   UNL     1       2.413   0.079  -0.271  0.00  0.00    +0.267 A 
ATOM     10  O   UNL     1       3.478  -0.471  -0.497  0.00  0.00    -0.267 OA
ATOM     11  N   UNL     1       2.326   1.427  -0.258  0.00  0.00    -0.267 N 
ATOM     12  C   UNL     1       3.442   2.170  -0.501  0.00  0.00    +0.099 A 
ENDROOT
BRANCH   8  13
ATOM     13  C   UNL     1       1.294  -2.098  -0.021  0.00  0.00    +0.037 C 
ATOM     14  C   UNL     1       2.005  -2.760   0.937  0.00  0.00    +0.077 C 
ATOM     15  C   UNL     1       2.683  -2.247   2.079  0.00  0.00    +0.259 C 
ATOM     16  O   UNL     1       2.686  -1.052   2.321  0.00  0.00    -0.269 OA
ATOM     17  N   UNL     1       3.309  -3.102   2.869  0.00  0.00    -0.251 N 
ATOM     18  C   UNL     1       3.306  -4.426   2.600  0.00  0.00    +0.121 C 
ATOM     19  S   UNL     1       4.042  -5.701   3.474  0.00  0.00    -0.027 S 
ATOM     20  S   UNL     1       2.333  -4.510   1.104  0.00  0.00    -0.061 S 
BRANCH  17  21
ATOM     21  C   UNL     1       4.017  -2.607   4.052  0.00  0.00    +0.150 C 
BRANCH  21  22
ATOM     22  C   UNL     1       3.076  -2.590   5.229  0.00  0.00    -0.029 A 
ATOM     23  C   UNL     1       2.326  -1.461   5.497  0.00  0.00    +0.009 A 
ATOM     24  C   UNL     1       1.459  -1.445   6.573  0.00  0.00    +0.046 A 
ATOM     25  C   UNL     1       1.350  -2.561   7.391  0.00  0.00    +0.120 A 
ATOM     26  C   UNL     1       2.109  -3.691   7.123  0.00  0.00    +0.046 A 
ATOM     27  C   UNL     1       2.970  -3.703   6.043  0.00  0.00    +0.009 A 
BRANCH  25  28
ATOM     28  O   UNL     1       0.502  -2.546   8.453  0.00  0.00    -0.495 OA
ATOM     29  C   UNL     1      -0.248  -1.349   8.668  0.00  0.00    +0.277 C 
ENDBRANCH  25  28
ENDBRANCH  21  22
ENDBRANCH  17  21
ENDBRANCH   8  13
BRANCH   7  30
ATOM     30  N   UNL     1      -1.119  -0.702   0.490  0.00  0.00    -0.326 N 
ATOM     31  H   UNL     1      -1.104  -1.802   0.491  0.00  0.00    +0.148 HD
BRANCH  30  32
ATOM     32  C   UNL     1      -2.369   0.014   0.754  0.00  0.00    +0.072 C 
ATOM     33  C   UNL     1      -2.443   0.379   2.238  0.00  0.00    +0.022 C 
ATOM     34  C   UNL     1      -3.749   1.127   2.515  0.00  0.00    +0.002 C 
ATOM     35  C   UNL     1      -4.936   0.233   2.150  0.00  0.00    +0.000 C 
ATOM     36  C   UNL     1      -4.862  -0.132   0.666  0.00  0.00    +0.002 C 
ATOM     37  C   UNL     1      -3.556  -0.880   0.389  0.00  0.00    +0.022 C 
ENDBRANCH  30  32
ENDBRANCH   7  30
TORSDOF 6
