REMARK  Name = ZINC11331740
REMARK  11 active torsions:
REMARK  status: ('A' for Active; 'I' for Inactive)
REMARK    1  A    between atoms: C_1  and  O_2
REMARK    2  A    between atoms: O_2  and  C_3
REMARK    3  A    between atoms: C_4  and  C_10
REMARK    4  A    between atoms: C_8  and  O_9
REMARK    5  A    between atoms: C_11  and  C_12
REMARK    6  A    between atoms: C_12  and  C_14
REMARK    7  A    between atoms: C_17  and  S_20
REMARK    8  A    between atoms: S_20  and  N_23
REMARK    9  A    between atoms: N_23  and  C_24
REMARK   10  A    between atoms: C_24  and  C_25
REMARK   11  A    between atoms: C_28  and  C_31
REMARK                            x       y       z     vdW  Elec       q    Type
REMARK                         _______ _______ _______ _____ _____    ______ ____
ROOT
ATOM      1  C   UNL     1      -2.412  -2.871   0.010  0.00  0.00    +0.022 A 
ATOM      2  C   UNL     1      -3.632  -2.192   0.031  0.00  0.00    +0.013 A 
ATOM      3  C   UNL     1      -4.813  -2.904   0.033  0.00  0.00    +0.029 A 
ATOM      4  C   UNL     1      -4.791  -4.288   0.025  0.00  0.00    +0.105 A 
ATOM      5  C   UNL     1      -3.585  -4.966   0.010  0.00  0.00    +0.029 A 
ATOM      6  C   UNL     1      -2.397  -4.266   0.002  0.00  0.00    +0.013 A 
ENDROOT
BRANCH   4   7
ATOM      7  S   UNL     1      -6.305  -5.189   0.034  0.00  0.00    +0.059 S 
ATOM      8  O   UNL     1      -7.296  -4.324  -0.503  0.00  0.00    -0.153 OA
ATOM      9  O   UNL     1      -6.022  -6.464  -0.526  0.00  0.00    -0.153 OA
BRANCH   7  10
ATOM     10  N   UNL     1      -6.710  -5.449   1.619  0.00  0.00    -0.186 NA
ATOM     11  H   UNL     1      -6.732  -6.351   1.972  0.00  0.00    +0.148 HD
BRANCH  10  12
ATOM     12  C   UNL     1      -7.037  -4.314   2.486  0.00  0.00    +0.141 C 
BRANCH  12  13
ATOM     13  C   UNL     1      -7.714  -4.815   3.736  0.00  0.00    -0.032 A 
ATOM     14  C   UNL     1      -9.092  -4.935   3.771  0.00  0.00    +0.006 A 
ATOM     15  C   UNL     1      -9.719  -5.398   4.909  0.00  0.00    +0.015 A 
ATOM     16  C   UNL     1      -8.959  -5.736   6.032  0.00  0.00    +0.063 A 
ATOM     17  C   UNL     1      -7.570  -5.607   5.991  0.00  0.00    +0.015 A 
ATOM     18  C   UNL     1      -6.956  -5.148   4.844  0.00  0.00    +0.006 A 
BRANCH  16  19
ATOM     19  C   UNL     1      -9.624  -6.227   7.256  0.00  0.00    +0.387 C 
ATOM     20  O   UNL     1      -8.960  -6.521   8.231  0.00  0.00    -0.241 OA
ATOM     21  O   UNL     1     -10.965  -6.350   7.292  0.00  0.00    -0.241 OA
ENDBRANCH  16  19
ENDBRANCH  12  13
ENDBRANCH  10  12
ENDBRANCH   7  10
ENDBRANCH   4   7
BRANCH   1  22
ATOM     22  C   UNL     1      -1.141  -2.114   0.002  0.00  0.00    +0.186 C 
ATOM     23  O   UNL     1      -0.078  -2.708  -0.012  0.00  0.00    -0.287 OA
BRANCH  22  25
ATOM     24  C   UNL     1       0.002  -0.004   0.002  0.00  0.00    +0.015 C 
ATOM     25  C   UNL     1      -1.160  -0.696   0.009  0.00  0.00    +0.052 C 
BRANCH  24  27
ATOM     26  C   UNL     1       1.185   2.186   0.003  0.00  0.00    +0.168 A 
ATOM     27  C   UNL     1      -0.018   1.464   0.010  0.00  0.00    +0.020 A 
ATOM     28  C   UNL     1      -1.238   2.152   0.020  0.00  0.00    +0.012 A 
ATOM     29  C   UNL     1      -1.251   3.529   0.034  0.00  0.00    +0.004 A 
ATOM     30  C   UNL     1      -0.062   4.241   0.026  0.00  0.00    +0.049 A 
ATOM     31  C   UNL     1       1.153   3.576   0.010  0.00  0.00    +0.159 A 
BRANCH  26  33
ATOM     32  C   UNL     1       2.930   1.226  -1.293  0.00  0.00    +0.277 C 
ATOM     33  O   UNL     1       2.375   1.532  -0.013  0.00  0.00    -0.491 OA
ENDBRANCH  26  33
BRANCH  31  34
ATOM     34  O   UNL     1       2.315   4.284   0.003  0.00  0.00    -0.503 OA
ATOM     35  H   UNL     1       2.642   4.493  -0.882  0.00  0.00    +0.292 HD
ENDBRANCH  31  34
ENDBRANCH  24  27
ENDBRANCH  22  25
ENDBRANCH   1  22
TORSDOF 10
