REMARK  Name = ZINC36480638
REMARK  10 active torsions:
REMARK  status: ('A' for Active; 'I' for Inactive)
REMARK    1  A    between atoms: C_1  and  C_2
REMARK    2  A    between atoms: C_2  and  C_3
REMARK    3  A    between atoms: C_2  and  C_4
REMARK    4  A    between atoms: C_2  and  N_5
REMARK    5  A    between atoms: C_6  and  C_8
REMARK    6  A    between atoms: C_8  and  C_10
REMARK    7  A    between atoms: C_8  and  N_17
REMARK    8  A    between atoms: C_15  and  O_16
REMARK    9  A    between atoms: N_17  and  C_18
REMARK   10  A    between atoms: C_25  and  C_27
REMARK                            x       y       z     vdW  Elec       q    Type
REMARK                         _______ _______ _______ _____ _____    ______ ____
ROOT
ATOM      1  C   UNL     1       3.261  -1.025  -3.455  0.00  0.00    +0.201 C 
ENDROOT
BRANCH   1   2
ATOM      2  C   UNL     1       2.014  -0.770  -2.650  0.00  0.00    +0.024 A 
ATOM      3  C   UNL     1       1.790   0.477  -2.096  0.00  0.00    +0.009 A 
ATOM      4  C   UNL     1       0.646   0.711  -1.357  0.00  0.00    +0.001 A 
ATOM      5  C   UNL     1      -0.278  -0.301  -1.169  0.00  0.00    +0.004 A 
ATOM      6  C   UNL     1      -0.060  -1.548  -1.721  0.00  0.00    +0.046 A 
ATOM      7  C   UNL     1       1.085  -1.784  -2.467  0.00  0.00    +0.122 A 
BRANCH   7   8
ATOM      8  O   UNL     1       1.300  -3.009  -3.016  0.00  0.00    -0.506 OA
ATOM      9  H   UNL     1       1.784  -3.618  -2.441  0.00  0.00    +0.292 HD
ENDBRANCH   7   8
ENDBRANCH   1   2
BRANCH   1  11
ATOM     10  N   UNL     1       2.029  -1.843  -5.437  0.00  0.00    -0.309 N 
ATOM     11  C   UNL     1       2.929  -0.981  -4.924  0.00  0.00    +0.239 C 
ATOM     12  O   UNL     1       3.471  -0.171  -5.645  0.00  0.00    -0.273 OA
ATOM     13  H   UNL     1       1.595  -2.492  -4.860  0.00  0.00    +0.149 HD
BRANCH  10  15
ATOM     14  C   UNL     1       2.972  -2.060  -7.683  0.00  0.00    +0.031 C 
ATOM     15  C   UNL     1       1.705  -1.801  -6.865  0.00  0.00    +0.026 C 
ATOM     16  C   UNL     1       1.142  -0.424  -7.220  0.00  0.00    +0.031 C 
ATOM     17  C   UNL     1       0.664  -2.876  -7.184  0.00  0.00    +0.031 C 
ENDBRANCH  10  15
ENDBRANCH   1  11
BRANCH   1  18
ATOM     18  N   UNL     1       4.259   0.004  -3.149  0.00  0.00    -0.255 N 
ATOM     19  C   UNL     1       4.035   1.286  -3.502  0.00  0.00    +0.224 C 
ATOM     20  O   UNL     1       3.036   1.577  -4.126  0.00  0.00    -0.275 OA
BRANCH  18  21
ATOM     21  C   UNL     1       5.444  -0.343  -2.491  0.00  0.00    +0.039 A 
ATOM     22  C   UNL     1       5.435  -0.582  -1.123  0.00  0.00    +0.023 A 
ATOM     23  C   UNL     1       6.606  -0.925  -0.476  0.00  0.00    +0.003 A 
ATOM     24  C   UNL     1       7.787  -1.030  -1.188  0.00  0.00    +0.020 A 
ATOM     25  C   UNL     1       7.799  -0.793  -2.551  0.00  0.00    +0.043 A 
ATOM     26  C   UNL     1       6.629  -0.456  -3.206  0.00  0.00    +0.043 A 
ATOM     27 CL   UNL     1       9.283  -0.926  -3.442  0.00  0.00    -0.083 Cl
ENDBRANCH  18  21
BRANCH  19  28
ATOM     28  C   UNL     1       5.025   2.356  -3.122  0.00  0.00    +0.076 C 
ATOM     29  C   UNL     1       4.832   2.729  -1.650  0.00  0.00    +0.013 C 
ATOM     30  C   UNL     1       5.837   3.816  -1.264  0.00  0.00    +0.001 C 
ATOM     31  C   UNL     1       5.612   5.052  -2.137  0.00  0.00    +0.000 C 
ATOM     32  C   UNL     1       5.805   4.679  -3.608  0.00  0.00    +0.001 C 
ATOM     33  C   UNL     1       4.800   3.592  -3.995  0.00  0.00    +0.013 C 
ENDBRANCH  19  28
ENDBRANCH   1  18
TORSDOF 7
