REMARK  Name = ZINC09064838
REMARK  8 active torsions:
REMARK  status: ('A' for Active; 'I' for Inactive)
REMARK    1  A    between atoms: C_1  and  C_2
REMARK    2  A    between atoms: C_5  and  N_9
REMARK    3  A    between atoms: C_6  and  O_8
REMARK    4  A    between atoms: N_9  and  C_10
REMARK    5  A    between atoms: C_10  and  N_12
REMARK    6  A    between atoms: C_13  and  C_15
REMARK    7  A    between atoms: C_16  and  C_17
REMARK    8  A    between atoms: C_20  and  C_22
REMARK                            x       y       z     vdW  Elec       q    Type
REMARK                         _______ _______ _______ _____ _____    ______ ____
ROOT
ATOM      1  N   UNL     1      -3.565   2.050  -0.173  0.00  0.00    -0.264 N 
ATOM      2  C   UNL     1      -4.722   1.366  -0.273  0.00  0.00    +0.242 C 
ATOM      3  O   UNL     1      -4.711   0.149  -0.280  0.00  0.00    -0.270 OA
ATOM      4  H   UNL     1      -3.573   3.020  -0.168  0.00  0.00    +0.157 HD
ENDROOT
BRANCH   1   5
ATOM      5  C   UNL     1      -2.396   1.385  -0.081  0.00  0.00    +0.141 C 
ATOM      6  S   UNL     1      -2.381  -0.327  -0.090  0.00  0.00    -0.018 S 
BRANCH   5   7
ATOM      7  N   UNL     1      -1.238   2.069   0.019  0.00  0.00    -0.294 N 
ATOM      8  H   UNL     1      -1.251   3.035   0.104  0.00  0.00    +0.154 HD
BRANCH   7  13
ATOM      9  C   UNL     1       3.720  -0.697  -0.075  0.00  0.00    +0.044 C 
ATOM     10  C   UNL     1       2.404   0.037  -0.047  0.00  0.00    -0.047 A 
ATOM     11  C   UNL     1       1.408  -0.298  -0.946  0.00  0.00    +0.005 A 
ATOM     12  C   UNL     1       0.199   0.372  -0.925  0.00  0.00    +0.027 A 
ATOM     13  C   UNL     1      -0.016   1.384  -0.000  0.00  0.00    +0.075 A 
ATOM     14  C   UNL     1       0.987   1.721   0.905  0.00  0.00    +0.138 A 
ATOM     15  C   UNL     1       2.196   1.044   0.877  0.00  0.00    +0.050 A 
BRANCH  14  16
ATOM     16  O   UNL     1       0.782   2.712   1.813  0.00  0.00    -0.505 OA
ATOM     17  H   UNL     1       0.404   2.406   2.650  0.00  0.00    +0.292 HD
ENDBRANCH  14  16
ENDBRANCH   7  13
ENDBRANCH   5   7
ENDBRANCH   1   5
BRANCH   2  18
ATOM     18  C   UNL     1      -5.948   2.063  -0.370  0.00  0.00    +0.071 C 
ATOM     19  C   UNL     1      -7.114   1.374  -0.471  0.00  0.00    +0.051 C 
BRANCH  19  20
ATOM     20  C   UNL     1      -8.340   2.070  -0.568  0.00  0.00    +0.129 A 
ATOM     21  C   UNL     1      -9.592   1.495  -0.680  0.00  0.00    +0.050 A 
ATOM     22  C   UNL     1     -10.514   2.543  -0.745  0.00  0.00    +0.050 A 
ATOM     23  C   UNL     1      -9.795   3.715  -0.679  0.00  0.00    +0.136 A 
ATOM     24  O   UNL     1      -8.490   3.411  -0.572  0.00  0.00    -0.455 OA
BRANCH  23  25
ATOM     25  C   UNL     1     -10.363   5.077  -0.717  0.00  0.00    +0.020 A 
ATOM     26  C   UNL     1     -11.743   5.259  -0.836  0.00  0.00    +0.031 A 
ATOM     27  C   UNL     1     -12.267   6.536  -0.866  0.00  0.00    +0.043 A 
ATOM     28  C   UNL     1     -11.428   7.635  -0.790  0.00  0.00    +0.040 A 
ATOM     29  C   UNL     1     -10.059   7.461  -0.677  0.00  0.00    +0.043 A 
ATOM     30  C   UNL     1      -9.522   6.190  -0.641  0.00  0.00    +0.031 A 
ATOM     31 CL   UNL     1      -9.015   8.845  -0.582  0.00  0.00    -0.083 Cl
ATOM     32 CL   UNL     1     -13.982   6.764  -1.008  0.00  0.00    -0.083 Cl
ENDBRANCH  23  25
ENDBRANCH  19  20
ENDBRANCH   2  18
TORSDOF 7
