REMARK  Name = ZINC36637698
REMARK  9 active torsions:
REMARK  status: ('A' for Active; 'I' for Inactive)
REMARK    1  A    between atoms: C_1  and  C_2
REMARK    2  A    between atoms: N_8  and  S_9
REMARK    3  A    between atoms: S_9  and  C_12
REMARK    4  A    between atoms: C_15  and  C_18
REMARK    5  A    between atoms: N_20  and  C_21
REMARK    6  A    between atoms: C_21  and  C_22
REMARK    7  A    between atoms: C_22  and  N_23
REMARK    8  A    between atoms: N_23  and  C_24
REMARK    9  A    between atoms: N_23  and  C_25
REMARK                            x       y       z     vdW  Elec       q    Type
REMARK                         _______ _______ _______ _____ _____    ______ ____
ROOT
ATOM      1  C   UNL     1      -2.945   2.929   5.843  0.00  0.00    +0.252 C 
ATOM      2  O   UNL     1      -3.557   3.906   5.457  0.00  0.00    -0.270 OA
ATOM      3  N   UNL     1      -3.152   2.453   7.087  0.00  0.00    -0.248 N 
ATOM      4  C   UNL     1      -4.154   2.992   7.877  0.00  0.00    +0.168 A 
ATOM      5  N   UNL     1      -4.499   2.670   9.101  0.00  0.00    -0.221 NA
ATOM      6  C   UNL     1      -5.507   3.287   9.758  0.00  0.00    +0.116 A 
ATOM      7  C   UNL     1      -5.978   3.037  11.069  0.00  0.00    +0.152 A 
ATOM      8  C   UNL     1      -7.022   3.760  11.589  0.00  0.00    +0.079 A 
ATOM      9  C   UNL     1      -7.651   4.757  10.853  0.00  0.00    +0.127 A 
ATOM     10  C   UNL     1      -7.215   5.027   9.568  0.00  0.00    +0.055 A 
ATOM     11  C   UNL     1      -6.171   4.307   9.040  0.00  0.00    +0.046 A 
ATOM     12  S   UNL     1      -5.299   4.308   7.492  0.00  0.00    -0.052 S 
ATOM     13  F   UNL     1      -8.677   5.455  11.387  0.00  0.00    -0.205 F 
ATOM     14  F   UNL     1      -5.393   2.076  11.817  0.00  0.00    -0.203 F 
ENDROOT
BRANCH   1  18
ATOM     15  C   UNL     1      -0.157   1.015   3.274  0.00  0.00    +0.106 A 
ATOM     16  C   UNL     1       0.178   1.260   4.593  0.00  0.00    +0.029 A 
ATOM     17  C   UNL     1      -0.722   1.881   5.433  0.00  0.00    +0.015 A 
ATOM     18  C   UNL     1      -1.975   2.263   4.949  0.00  0.00    +0.037 A 
ATOM     19  C   UNL     1      -2.307   2.013   3.616  0.00  0.00    +0.015 A 
ATOM     20  C   UNL     1      -1.395   1.395   2.786  0.00  0.00    +0.029 A 
BRANCH  15  21
ATOM     21  S   UNL     1       0.999   0.220   2.208  0.00  0.00    +0.061 S 
ATOM     22  O   UNL     1       0.267  -0.228   1.076  0.00  0.00    -0.153 OA
ATOM     23  O   UNL     1       1.761  -0.662   3.020  0.00  0.00    -0.153 OA
BRANCH  21  30
ATOM     24  C   UNL     1       0.337   1.805  -0.042  0.00  0.00    +0.026 C 
ATOM     25  C   UNL     1       1.669   2.266   0.551  0.00  0.00    +0.077 C 
ATOM     26  C   UNL     1       2.760   2.200  -0.523  0.00  0.00    +0.020 C 
ATOM     27  C   UNL     1       4.114   2.528   0.110  0.00  0.00    +0.003 C 
ATOM     28  C   UNL     1       4.438   1.495   1.191  0.00  0.00    +0.017 C 
ATOM     29  C   UNL     1       3.366   1.553   2.284  0.00  0.00    +0.110 C 
ATOM     30  N   UNL     1       2.044   1.384   1.665  0.00  0.00    -0.174 NA
ENDBRANCH  21  30
ENDBRANCH  15  21
ENDBRANCH   1  18
BRANCH   3  31
ATOM     31  C   UNL     1      -2.317   1.366   7.604  0.00  0.00    +0.097 C 
BRANCH  31  32
ATOM     32  C   UNL     1      -1.214   1.947   8.490  0.00  0.00    -0.060 C 
BRANCH  32  33
ATOM     33  N   UNL     1      -0.291   0.876   8.889  0.00  0.00    +0.377 N 
ATOM     34  C   UNL     1       0.833   1.452   9.640  0.00  0.00    -0.097 C 
ATOM     35  C   UNL     1      -1.000  -0.092   9.736  0.00  0.00    -0.097 C 
ATOM     36  H   UNL     1       0.059   0.409   8.066  0.00  0.00    -0.083 HD
ENDBRANCH  32  33
ENDBRANCH  31  32
ENDBRANCH   3  31
TORSDOF 6
