REMARK  Name = ZINC10237944
REMARK  6 active torsions:
REMARK  status: ('A' for Active; 'I' for Inactive)
REMARK    1  A    between atoms: C_2  and  C_3
REMARK    2  A    between atoms: C_3  and  N_4
REMARK    3  A    between atoms: C_12  and  S_13
REMARK    4  A    between atoms: S_13  and  C_14
REMARK    5  A    between atoms: C_14  and  C_16
REMARK    6  A    between atoms: C_14  and  C_22
REMARK                            x       y       z     vdW  Elec       q    Type
REMARK                         _______ _______ _______ _____ _____    ______ ____
ROOT
ATOM      1  C   UNL     1      -4.728   2.554   0.936  0.00  0.00    +0.170 C 
ENDROOT
BRANCH   1   2
ATOM      2  C   UNL     1      -5.889   2.590  -0.024  0.00  0.00    +0.238 C 
ATOM      3  O   UNL     1      -5.870   1.904  -1.023  0.00  0.00    -0.274 OA
ATOM      4  N   UNL     1      -6.948   3.385   0.229  0.00  0.00    -0.239 N 
ATOM      5  C   UNL     1      -7.986   3.417  -0.630  0.00  0.00    +0.303 C 
ATOM      6  O   UNL     1      -7.968   2.728  -1.632  0.00  0.00    -0.253 OA
ATOM      7  N   UNL     1      -9.045   4.211  -0.378  0.00  0.00    -0.313 N 
ATOM      8  H   UNL     1      -6.962   3.934   1.028  0.00  0.00    +0.159 HD
ATOM      9  H   UNL     1      -9.060   4.760   0.422  0.00  0.00    +0.146 HD
ATOM     10  H   UNL     1      -9.792   4.234  -0.996  0.00  0.00    +0.146 HD
ENDBRANCH   1   2
BRANCH   1  11
ATOM     11  C   UNL     1      -5.019   1.571   2.041  0.00  0.00    -0.025 A 
ATOM     12  C   UNL     1      -5.250   0.242   1.740  0.00  0.00    +0.005 A 
ATOM     13  C   UNL     1      -5.513  -0.660   2.754  0.00  0.00    +0.000 A 
ATOM     14  C   UNL     1      -5.554  -0.232   4.067  0.00  0.00    +0.000 A 
ATOM     15  C   UNL     1      -5.328   1.099   4.368  0.00  0.00    +0.000 A 
ATOM     16  C   UNL     1      -5.061   2.000   3.354  0.00  0.00    +0.005 A 
ENDBRANCH   1  11
BRANCH   1  17
ATOM     17  S   UNL     1      -3.231   2.045   0.055  0.00  0.00    -0.070 S 
BRANCH  17  26
ATOM     18  N   UNL     1      -0.704   1.975   1.216  0.00  0.00    -0.315 N 
ATOM     19  C   UNL     1      -0.118   2.250   2.440  0.00  0.00    +0.070 A 
ATOM     20  C   UNL     1       1.182   2.187   2.920  0.00  0.00    +0.028 A 
ATOM     21  C   UNL     1       1.450   2.538   4.227  0.00  0.00    +0.002 A 
ATOM     22  C   UNL     1       0.427   2.955   5.066  0.00  0.00    +0.002 A 
ATOM     23  C   UNL     1      -0.869   3.024   4.607  0.00  0.00    +0.030 A 
ATOM     24  C   UNL     1      -1.157   2.672   3.286  0.00  0.00    +0.090 A 
ATOM     25  N   UNL     1      -2.304   2.636   2.558  0.00  0.00    -0.222 NA
ATOM     26  C   UNL     1      -2.040   2.232   1.340  0.00  0.00    +0.171 A 
BRANCH  18  27
ATOM     27  C   UNL     1      -0.018   1.503   0.010  0.00  0.00    +0.151 C 
BRANCH  27  29
ATOM     28  C   UNL     1      -0.478  -0.660  -1.025  0.00  0.00    +0.005 C 
ATOM     29  C   UNL     1       0.002  -0.004   0.002  0.00  0.00    -0.013 C 
ENDBRANCH  27  29
ENDBRANCH  18  27
ENDBRANCH  17  26
ENDBRANCH   1  17
TORSDOF 6
