REMARK  Name = ZINC25183211
REMARK  6 active torsions:
REMARK  status: ('A' for Active; 'I' for Inactive)
REMARK    1  A    between atoms: C_1  and  C_2
REMARK    2  A    between atoms: C_2  and  N_19
REMARK    3  A    between atoms: N_9  and  C_12
REMARK    4  A    between atoms: N_19  and  C_20
REMARK    5  A    between atoms: C_20  and  C_21
REMARK    6  A    between atoms: C_21  and  C_22
REMARK                            x       y       z     vdW  Elec       q    Type
REMARK                         _______ _______ _______ _____ _____    ______ ____
ROOT
ATOM      1  C   UNL     1       3.341   5.721   3.980  0.00  0.00    +0.061 C 
ATOM      2  C   UNL     1       3.647   6.271   2.611  0.00  0.00    +0.018 C 
ATOM      3  C   UNL     1       4.759   7.070   2.420  0.00  0.00    +0.116 C 
ATOM      4  C   UNL     1       5.032   7.710   1.121  0.00  0.00    +0.258 C 
ATOM      5  O   UNL     1       4.283   7.550   0.175  0.00  0.00    -0.270 OA
ATOM      6  N   UNL     1       6.136   8.477   1.007  0.00  0.00    -0.235 N 
ATOM      7  C   UNL     1       6.970   8.662   2.040  0.00  0.00    +0.320 C 
ATOM      8  O   UNL     1       7.947   9.364   1.873  0.00  0.00    -0.251 OA
ATOM      9  N   UNL     1       6.783   8.112   3.248  0.00  0.00    -0.190 N 
ATOM     10  C   UNL     1       5.719   7.325   3.509  0.00  0.00    +0.265 C 
ATOM     11  O   UNL     1       5.558   6.836   4.611  0.00  0.00    -0.269 OA
ATOM     12  H   UNL     1       6.369   8.968   0.051  0.00  0.00    +0.159 HD
ENDROOT
BRANCH   9  13
ATOM     13  C   UNL     1       7.713   8.365   4.267  0.00  0.00    +0.048 A 
ATOM     14  C   UNL     1       7.625   9.532   5.014  0.00  0.00    +0.024 A 
ATOM     15  C   UNL     1       8.541   9.780   6.018  0.00  0.00    +0.005 A 
ATOM     16  C   UNL     1       9.546   8.867   6.279  0.00  0.00    +0.038 A 
ATOM     17  C   UNL     1       9.637   7.702   5.536  0.00  0.00    +0.125 A 
ATOM     18  C   UNL     1       8.719   7.447   4.533  0.00  0.00    +0.062 A 
ATOM     19  F   UNL     1      10.620   6.811   5.794  0.00  0.00    -0.205 F 
ENDBRANCH   9  13
BRANCH   2  20
ATOM     20  N   UNL     1       2.837   5.984   1.573  0.00  0.00    -0.346 N 
ATOM     21  H   UNL     1       3.110   6.304   0.557  0.00  0.00    +0.146 HD
BRANCH  20  22
ATOM     22  C   UNL     1       1.592   5.245   1.797  0.00  0.00    +0.107 C 
BRANCH  22  23
ATOM     23  C   UNL     1       0.865   5.053   0.465  0.00  0.00    +0.075 C 
BRANCH  23  24
ATOM     24  C   UNL     1      -0.415   4.293   0.696  0.00  0.00    +0.060 A 
ATOM     25  C   UNL     1      -1.649   4.691   0.332  0.00  0.00    +0.107 A 
ATOM     26  N   UNL     1      -2.515   3.708   0.725  0.00  0.00    -0.351 N 
ATOM     27  H   UNL     1      -3.592   3.811   0.526  0.00  0.00    +0.166 HD
ATOM     28  C   UNL     1      -1.782   2.745   1.325  0.00  0.00    +0.196 A 
ATOM     29  N   UNL     1      -0.526   3.101   1.300  0.00  0.00    -0.241 NA
ENDBRANCH  23  24
ENDBRANCH  22  23
ENDBRANCH  20  22
ENDBRANCH   2  20
TORSDOF 5
