REMARK  Name = ZINC39695794
REMARK  10 active torsions:
REMARK  status: ('A' for Active; 'I' for Inactive)
REMARK    1  A    between atoms: C_1  and  C_2
REMARK    2  A    between atoms: C_9  and  C_11
REMARK    3  A    between atoms: C_11  and  C_13
REMARK    4  A    between atoms: C_11  and  N_14
REMARK    5  A    between atoms: C_15  and  C_17
REMARK    6  A    between atoms: C_28  and  C_30
REMARK    7  A    between atoms: C_34  and  O_37
REMARK    8  A    between atoms: C_35  and  C_36
REMARK    9  A    between atoms: O_37  and  C_38
REMARK   10  A    between atoms: C_38  and  C_40
REMARK                            x       y       z     vdW  Elec       q    Type
REMARK                         _______ _______ _______ _____ _____    ______ ____
ROOT
ATOM      1  C   UNL     1       2.337  -9.066   0.923  0.00  0.00    +0.100 C 
ATOM      2  C   UNL     1       1.135  -9.689   0.179  0.00  0.00    +0.121 C 
ATOM      3  N   UNL     1       1.502 -11.113   0.001  0.00  0.00    -0.296 N 
ATOM      4  C   UNL     1       2.170 -11.483   1.272  0.00  0.00    +0.115 C 
ATOM      5  C   UNL     1       3.013 -10.246   1.640  0.00  0.00    -0.004 C 
ATOM      6  C   UNL     1       2.997 -10.028   3.150  0.00  0.00    -0.010 C 
ATOM      7  C   UNL     1       3.726 -11.186   3.837  0.00  0.00    -0.082 C 
ATOM      8  N   UNL     1       5.108 -11.256   3.347  0.00  0.00    +0.379 N 
ATOM      9  C   UNL     1       5.115 -11.559   1.911  0.00  0.00    -0.082 C 
ATOM     10  C   UNL     1       4.445 -10.417   1.142  0.00  0.00    -0.010 C 
ATOM     11  C   UNL     1       1.280 -11.896  -1.074  0.00  0.00    +0.247 C 
ATOM     12  O   UNL     1       1.559 -13.078  -1.033  0.00  0.00    -0.270 OA
ATOM     13  H   UNL     1       5.564 -10.370   3.505  0.00  0.00    -0.086 HD
ATOM     14  H   UNL     1       5.603 -11.980   3.845  0.00  0.00    -0.086 HD
ENDROOT
BRANCH  11  15
ATOM     15  C   UNL     1       0.698 -11.316  -2.303  0.00  0.00    +0.043 A 
ATOM     16  C   UNL     1      -0.264 -10.308  -2.214  0.00  0.00    +0.013 A 
ATOM     17  C   UNL     1      -0.805  -9.768  -3.363  0.00  0.00    +0.004 A 
ATOM     18  C   UNL     1      -0.398 -10.223  -4.604  0.00  0.00    +0.047 A 
ATOM     19  C   UNL     1       0.558 -11.225  -4.702  0.00  0.00    +0.135 A 
ATOM     20  C   UNL     1       1.112 -11.769  -3.555  0.00  0.00    +0.004 A 
ATOM     21  C   UNL     1       2.154 -12.853  -3.660  0.00  0.00    +0.048 C 
BRANCH  19  22
ATOM     22  O   UNL     1       0.955 -11.667  -5.924  0.00  0.00    -0.426 OA
BRANCH  22  23
ATOM     23  C   UNL     1       0.329 -12.737  -6.441  0.00  0.00    +0.309 C 
ATOM     24  O   UNL     1      -0.618 -13.218  -5.866  0.00  0.00    -0.251 OA
ATOM     25  C   UNL     1       0.808 -13.337  -7.738  0.00  0.00    +0.136 C 
ENDBRANCH  22  23
ENDBRANCH  19  22
ENDBRANCH  11  15
BRANCH   1  27
ATOM     26  N   UNL     1       2.667  -7.025   2.281  0.00  0.00    -0.305 N 
ATOM     27  C   UNL     1       1.862  -8.046   1.925  0.00  0.00    +0.219 C 
ATOM     28  O   UNL     1       0.756  -8.143   2.412  0.00  0.00    -0.275 OA
ATOM     29  H   UNL     1       3.552  -6.947   1.892  0.00  0.00    +0.149 HD
BRANCH  26  30
ATOM     30  C   UNL     1       2.206  -6.033   3.256  0.00  0.00    +0.136 C 
ATOM     31  C   UNL     1       1.396  -4.951   2.538  0.00  0.00    +0.036 C 
BRANCH  30  40
ATOM     32  C   UNL     1       7.230  -2.684   7.606  0.00  0.00    +0.044 C 
ATOM     33  C   UNL     1       6.584  -3.394   6.444  0.00  0.00    -0.048 A 
ATOM     34  C   UNL     1       7.341  -3.713   5.325  0.00  0.00    +0.005 A 
ATOM     35  C   UNL     1       6.774  -4.357   4.261  0.00  0.00    +0.030 A 
ATOM     36  C   UNL     1       5.420  -4.699   4.296  0.00  0.00    +0.089 A 
ATOM     37  C   UNL     1       4.654  -4.376   5.429  0.00  0.00    +0.067 A 
ATOM     38  C   UNL     1       5.248  -3.727   6.502  0.00  0.00    +0.031 A 
ATOM     39  N   UNL     1       3.377  -4.835   5.169  0.00  0.00    -0.340 N 
ATOM     40  C   UNL     1       3.395  -5.403   3.933  0.00  0.00    +0.128 A 
ATOM     41  N   UNL     1       4.589  -5.324   3.422  0.00  0.00    -0.231 NA
ATOM     42  H   UNL     1       2.610  -4.764   5.759  0.00  0.00    +0.167 HD
ENDBRANCH  30  40
ENDBRANCH  26  30
ENDBRANCH   1  27
TORSDOF 6
