REMARK  Name = ZINC00661851
REMARK  5 active torsions:
REMARK  status: ('A' for Active; 'I' for Inactive)
REMARK    1  A    between atoms: C_1  and  C_2
REMARK    2  A    between atoms: C_2  and  C_3
REMARK    3  A    between atoms: C_11  and  N_27
REMARK    4  A    between atoms: C_12  and  C_16
REMARK    5  A    between atoms: N_18  and  C_19
REMARK                            x       y       z     vdW  Elec       q    Type
REMARK                         _______ _______ _______ _____ _____    ______ ____
ROOT
ATOM      1  C   UNL     1      -2.143   1.034   1.345  0.00  0.00    -0.007 C 
ATOM      2  C   UNL     1      -2.897   1.601   2.554  0.00  0.00    +0.010 C 
ATOM      3  C   UNL     1      -4.379   1.263   2.397  0.00  0.00    +0.056 C 
ATOM      4  C   UNL     1      -4.560  -0.208   2.121  0.00  0.00    +0.046 A 
ATOM      5  C   UNL     1      -3.527  -1.013   1.679  0.00  0.00    -0.025 A 
ATOM      6  C   UNL     1      -3.755  -2.353   1.428  0.00  0.00    +0.017 A 
ATOM      7  C   UNL     1      -5.046  -2.893   1.631  0.00  0.00    +0.029 A 
ATOM      8  C   UNL     1      -5.507  -4.259   1.434  0.00  0.00    +0.053 A 
ATOM      9  C   UNL     1      -6.826  -4.549   1.703  0.00  0.00    +0.097 A 
ATOM     10  S   UNL     1      -7.493  -2.984   2.233  0.00  0.00    -0.062 S 
ATOM     11  C   UNL     1      -6.031  -1.988   2.089  0.00  0.00    +0.111 A 
ATOM     12  N   UNL     1      -5.767  -0.721   2.312  0.00  0.00    -0.244 NA
ATOM     13  C   UNL     1      -2.133  -0.489   1.453  0.00  0.00    +0.040 C 
ENDROOT
BRANCH   9  14
ATOM     14  C   UNL     1      -7.493  -5.794   1.587  0.00  0.00    +0.257 C 
ATOM     15  O   UNL     1      -6.884  -6.778   1.206  0.00  0.00    -0.269 OA
ATOM     16  N   UNL     1      -8.800  -5.890   1.899  0.00  0.00    -0.280 N 
ATOM     17  H   UNL     1      -9.269  -5.124   2.265  0.00  0.00    +0.155 HD
BRANCH  16  18
ATOM     18  C   UNL     1      -9.482  -7.096   1.696  0.00  0.00    +0.052 A 
ATOM     19  C   UNL     1      -8.826  -8.305   1.880  0.00  0.00    +0.027 A 
ATOM     20  C   UNL     1      -9.501  -9.494   1.683  0.00  0.00    +0.040 A 
ATOM     21  C   UNL     1     -10.830  -9.480   1.292  0.00  0.00    +0.125 A 
ATOM     22  C   UNL     1     -11.485  -8.276   1.102  0.00  0.00    +0.060 A 
ATOM     23  C   UNL     1     -10.815  -7.084   1.303  0.00  0.00    +0.065 A 
ATOM     24 CL   UNL     1     -11.637  -5.574   1.065  0.00  0.00    -0.082 Cl
ATOM     25  F   UNL     1     -11.487 -10.644   1.095  0.00  0.00    -0.205 F 
ENDBRANCH  16  18
ENDBRANCH   9  14
BRANCH   8  26
ATOM     26  N   UNL     1      -4.639  -5.244   0.985  0.00  0.00    -0.356 N 
ATOM     27  H   UNL     1      -3.712  -5.026   0.798  0.00  0.00    +0.142 HD
ATOM     28  H   UNL     1      -4.958  -6.151   0.858  0.00  0.00    +0.142 HD
ENDBRANCH   8  26
BRANCH   1  30
ATOM     29  C   UNL     1       0.014   1.072   0.084  0.00  0.00    +0.004 C 
ATOM     30  C   UNL     1      -0.706   1.560   1.343  0.00  0.00    +0.000 C 
ENDBRANCH   1  30
TORSDOF 4
