REMARK  Name = ZINC42665513
REMARK  3 active torsions:
REMARK  status: ('A' for Active; 'I' for Inactive)
REMARK    1  A    between atoms: N_10  and  C_13
REMARK    2  A    between atoms: C_13  and  N_14
REMARK    3  A    between atoms: N_17  and  C_26
REMARK                            x       y       z     vdW  Elec       q    Type
REMARK                         _______ _______ _______ _____ _____    ______ ____
ROOT
ATOM      1  C   UNL     1       0.977  -5.669  -2.310  0.00  0.00    +0.072 C 
ENDROOT
BRANCH   1  11
ATOM      2  C   UNL     1      -0.760   1.517  -1.131  0.00  0.00    +0.005 A 
ATOM      3  C   UNL     1       0.382   2.294  -1.278  0.00  0.00    +0.018 A 
ATOM      4  C   UNL     1       1.621   1.686  -1.262  0.00  0.00    +0.084 A 
ATOM      5  N   UNL     1       1.731   0.380  -1.109  0.00  0.00    -0.350 N 
ATOM      6  C   UNL     1       0.667  -0.395  -0.966  0.00  0.00    +0.099 A 
ATOM      7  C   UNL     1      -0.613   0.151  -0.972  0.00  0.00    +0.042 A 
ATOM      8  N   UNL     1       0.830  -1.766  -0.808  0.00  0.00    -0.320 N 
ATOM      9  C   UNL     1       2.158  -2.389  -0.922  0.00  0.00    +0.088 C 
ATOM     10  C   UNL     1       2.059  -3.571  -1.892  0.00  0.00    -0.057 C 
ATOM     11  N   UNL     1       0.999  -4.483  -1.444  0.00  0.00    +0.395 N 
ATOM     12  C   UNL     1      -0.303  -3.807  -1.511  0.00  0.00    -0.057 C 
ATOM     13  C   UNL     1      -0.321  -2.636  -0.516  0.00  0.00    +0.088 C 
ATOM     14  H   UNL     1       2.614  -0.023  -1.101  0.00  0.00    +0.166 HD
ATOM     15  H   UNL     1       1.180  -4.767  -0.493  0.00  0.00    -0.079 HD
ENDBRANCH   1  11
BRANCH   1  16
ATOM     16  N   UNL     1       0.002  -6.633  -1.795  0.00  0.00    -0.256 N 
ATOM     17  C   UNL     1       0.281  -7.774  -1.131  0.00  0.00    +0.178 A 
ATOM     18  S   UNL     1       1.841  -8.361  -0.739  0.00  0.00    -0.011 S 
ATOM     19  N   UNL     1      -0.892  -8.368  -0.834  0.00  0.00    -0.288 N 
ATOM     20  C   UNL     1      -1.911  -7.583  -1.319  0.00  0.00    +0.218 A 
ATOM     21  N   UNL     1      -1.393  -6.536  -1.894  0.00  0.00    -0.136 NA
ATOM     22  N   UNL     1      -3.266  -7.858  -1.211  0.00  0.00    -0.300 N 
ATOM     23  C   UNL     1      -4.236  -6.774  -1.004  0.00  0.00    +0.108 C 
ATOM     24  C   UNL     1      -5.318  -6.868  -2.084  0.00  0.00    +0.019 C 
ATOM     25  C   UNL     1      -5.930  -8.270  -2.067  0.00  0.00    +0.003 C 
ATOM     26  C   UNL     1      -4.847  -9.305  -2.378  0.00  0.00    +0.019 C 
ATOM     27  C   UNL     1      -3.760  -9.239  -1.307  0.00  0.00    +0.108 C 
BRANCH  19  28
ATOM     28  C   UNL     1      -1.053  -9.635  -0.115  0.00  0.00    +0.093 C 
ATOM     29  C   UNL     1       0.154 -10.165   0.662  0.00  0.00    +0.027 C 
ATOM     30  C   UNL     1      -0.280 -10.847  -0.637  0.00  0.00    +0.027 C 
ENDBRANCH  19  28
ENDBRANCH   1  16
TORSDOF 3
