REMARK  Name = ZINC16030881
REMARK  12 active torsions:
REMARK  status: ('A' for Active; 'I' for Inactive)
REMARK    1  A    between atoms: C_1  and  C_2
REMARK    2  A    between atoms: C_6  and  C_30
REMARK    3  A    between atoms: C_6  and  C_31
REMARK    4  A    between atoms: C_13  and  C_15
REMARK    5  A    between atoms: C_15  and  C_16
REMARK    6  A    between atoms: C_16  and  C_17
REMARK    7  A    between atoms: C_21  and  C_22
REMARK    8  A    between atoms: C_22  and  N_71
REMARK    9  A    between atoms: C_23  and  C_24
REMARK   10  A    between atoms: C_23  and  N_71
REMARK   11  A    between atoms: C_31  and  O_33
REMARK   12  A    between atoms: O_33  and  C_34
REMARK                            x       y       z     vdW  Elec       q    Type
REMARK                         _______ _______ _______ _____ _____    ______ ____
ROOT
ATOM      1  C   UNL     1       2.400   0.178  -3.959  0.00  0.00    +0.013 C 
ENDROOT
BRANCH   1  13
ATOM      2  C   UNL     1       3.393  -0.529  -0.313  0.00  0.00    +0.012 C 
ATOM      3  C   UNL     1       2.587   0.159  -1.428  0.00  0.00    -0.022 C 
ATOM      4  C   UNL     1       1.153  -0.368  -1.384  0.00  0.00    +0.007 C 
ATOM      5  C   UNL     1       0.487   0.069  -0.077  0.00  0.00    +0.002 C 
ATOM      6  C   UNL     1       0.408   1.591  -0.045  0.00  0.00    +0.018 C 
ATOM      7  C   UNL     1       1.791   2.231  -0.141  0.00  0.00    +0.068 C 
ATOM      8  C   UNL     1       2.616   1.671  -1.286  0.00  0.00    +0.012 C 
ATOM      9  C   UNL     1       4.057   2.183  -1.234  0.00  0.00    +0.009 C 
ATOM     10  C   UNL     1       4.746   1.864  -2.569  0.00  0.00    +0.031 C 
ATOM     11  C   UNL     1       4.610   0.384  -2.843  0.00  0.00    -0.073 C 
ATOM     12  C   UNL     1       5.661  -0.338  -3.153  0.00  0.00    +0.008 C 
ATOM     13  C   UNL     1       3.239  -0.250  -2.760  0.00  0.00    +0.021 C 
ATOM     14  C   UNL     1       2.507   2.124   1.204  0.00  0.00    +0.023 C 
BRANCH   7  15
ATOM     15  C   UNL     1       1.561   3.715  -0.410  0.00  0.00    +0.313 C 
ATOM     16  O   UNL     1       1.999   4.222  -1.416  0.00  0.00    -0.250 OA
BRANCH  15  17
ATOM     17  O   UNL     1       0.872   4.458   0.470  0.00  0.00    -0.468 OA
ATOM     18  C   UNL     1       0.691   5.862   0.149  0.00  0.00    +0.280 C 
ENDBRANCH  15  17
ENDBRANCH   7  15
ENDBRANCH   1  13
BRANCH   1  19
ATOM     19  C   UNL     1       3.032  -0.363  -5.243  0.00  0.00    +0.039 C 
BRANCH  19  20
ATOM     20  C   UNL     1       2.203   0.060  -6.428  0.00  0.00    -0.008 A 
ATOM     21  C   UNL     1       1.185  -0.694  -7.057  0.00  0.00    +0.045 A 
ATOM     22  C   UNL     1       0.709   0.058  -8.065  0.00  0.00    +0.195 A 
ATOM     23  O   UNL     1       1.381   1.221  -8.081  0.00  0.00    -0.469 OA
ATOM     24  C   UNL     1       2.284   1.230  -7.087  0.00  0.00    +0.091 A 
BRANCH  24  25
ATOM     25  C   UNL     1       3.230   2.358  -6.766  0.00  0.00    -0.006 C 
BRANCH  25  26
ATOM     26  N   UNL     1       4.481   2.169  -7.524  0.00  0.00    +0.386 N 
ATOM     27  H   UNL     1       4.271   2.165  -8.529  0.00  0.00    -0.085 HD
ATOM     28  H   UNL     1       4.906   1.272  -7.260  0.00  0.00    -0.085 HD
BRANCH  26  29
ATOM     29  C   UNL     1       5.428   3.261  -7.230  0.00  0.00    -0.046 C 
BRANCH  29  30
ATOM     30  C   UNL     1       6.695   3.042  -8.017  0.00  0.00    -0.064 A 
ATOM     31  C   UNL     1       7.731   2.309  -7.469  0.00  0.00    +0.002 A 
ATOM     32  C   UNL     1       8.891   2.105  -8.192  0.00  0.00    +0.000 A 
ATOM     33  C   UNL     1       9.019   2.641  -9.460  0.00  0.00    +0.000 A 
ATOM     34  C   UNL     1       7.985   3.378 -10.005  0.00  0.00    +0.000 A 
ATOM     35  C   UNL     1       6.823   3.579  -9.284  0.00  0.00    +0.002 A 
ENDBRANCH  29  30
ENDBRANCH  26  29
ENDBRANCH  25  26
ENDBRANCH  24  25
ENDBRANCH  19  20
ENDBRANCH   1  19
TORSDOF 9
