REMARK  Name = ZINC63174752
REMARK  5 active torsions:
REMARK  status: ('A' for Active; 'I' for Inactive)
REMARK    1  A    between atoms: C_3  and  S_11
REMARK    2  A    between atoms: C_6  and  N_7
REMARK    3  A    between atoms: S_11  and  N_14
REMARK    4  A    between atoms: N_14  and  C_15
REMARK    5  A    between atoms: C_20  and  N_22
REMARK                            x       y       z     vdW  Elec       q    Type
REMARK                         _______ _______ _______ _____ _____    ______ ____
ROOT
ATOM      1  S   UNL     1       3.970   2.340  -0.055  0.00  0.00    +0.060 S 
ATOM      2  O   UNL     1       4.926   1.842  -0.982  0.00  0.00    -0.153 OA
ATOM      3  O   UNL     1       3.506   3.682  -0.087  0.00  0.00    -0.153 OA
ENDROOT
BRANCH   1   6
ATOM      4  C   UNL     1       1.419  -0.538  -1.220  0.00  0.00    +0.035 A 
ATOM      5  C   UNL     1       2.536   0.270  -1.107  0.00  0.00    +0.032 A 
ATOM      6  C   UNL     1       2.547   1.311  -0.199  0.00  0.00    +0.124 A 
ATOM      7  C   UNL     1       1.441   1.544   0.599  0.00  0.00    +0.069 A 
ATOM      8  C   UNL     1       0.325   0.736   0.487  0.00  0.00    +0.054 A 
ATOM      9  C   UNL     1       0.314  -0.305  -0.423  0.00  0.00    +0.128 A 
ATOM     10 CL   UNL     1       1.455   2.851   1.742  0.00  0.00    -0.081 Cl
BRANCH   9  11
ATOM     11  N   UNL     1      -0.880  -1.170  -0.544  0.00  0.00    +0.056 N 
ATOM     12  O   UNL     1      -0.890  -2.080  -1.340  0.00  0.00    -0.126 OA
ATOM     13  O   UNL     1      -1.847  -0.967   0.153  0.00  0.00    -0.126 OA
ENDBRANCH   9  11
ENDBRANCH   1   6
BRANCH   1  14
ATOM     14  N   UNL     1       4.603   2.094   1.455  0.00  0.00    -0.188 NA
ATOM     15  H   UNL     1       4.607   2.816   2.103  0.00  0.00    +0.148 HD
BRANCH  14  16
ATOM     16  C   UNL     1       5.155   0.785   1.814  0.00  0.00    +0.062 C 
ATOM     17  C   UNL     1       6.687   0.801   1.667  0.00  0.00    +0.019 C 
ATOM     18  C   UNL     1       7.266   0.499   3.065  0.00  0.00    -0.000 C 
ATOM     19  C   UNL     1       6.139   0.917   4.042  0.00  0.00    -0.015 C 
ATOM     20  C   UNL     1       4.856   0.473   3.295  0.00  0.00    -0.056 C 
BRANCH  20  21
ATOM     21  N   UNL     1       3.696   1.245   3.759  0.00  0.00    +0.381 N 
ATOM     22  H   UNL     1       2.888   1.005   3.204  0.00  0.00    -0.090 HD
ATOM     23  H   UNL     1       3.514   1.029   4.728  0.00  0.00    -0.090 HD
ATOM     24  H   UNL     1       3.889   2.231   3.664  0.00  0.00    -0.090 HD
ENDBRANCH  20  21
ENDBRANCH  14  16
ENDBRANCH   1  14
TORSDOF 5
