REMARK  Name = ZINC20294682
REMARK  11 active torsions:
REMARK  status: ('A' for Active; 'I' for Inactive)
REMARK    1  A    between atoms: C_1  and  C_2
REMARK    2  A    between atoms: C_2  and  O_3
REMARK    3  A    between atoms: O_3  and  C_4
REMARK    4  A    between atoms: C_4  and  C_5
REMARK    5  A    between atoms: C_5  and  C_6
REMARK    6  A    between atoms: C_6  and  N_7
REMARK    7  A    between atoms: N_7  and  C_8
REMARK    8  A    between atoms: N_19  and  C_22
REMARK    9  A    between atoms: C_22  and  C_23
REMARK   10  A    between atoms: C_32  and  O_33
REMARK   11  A    between atoms: O_33  and  C_34
REMARK                            x       y       z     vdW  Elec       q    Type
REMARK                         _______ _______ _______ _____ _____    ______ ____
ROOT
ATOM      1  C   UNL     1      -5.238   3.713  -6.298  0.00  0.00    -0.067 C 
ATOM      2  C   UNL     1      -5.724   3.615  -4.849  0.00  0.00    -0.011 C 
ATOM      3  C   UNL     1      -4.557   3.858  -3.892  0.00  0.00    +0.035 C 
ATOM      4  C   UNL     1      -3.874   5.169  -4.271  0.00  0.00    -0.023 A 
ATOM      5  C   UNL     1      -4.060   5.716  -5.490  0.00  0.00    -0.006 A 
ATOM      6  S   UNL     1      -3.092   7.201  -5.481  0.00  0.00    -0.073 S 
ATOM      7  C   UNL     1      -2.438   7.081  -3.836  0.00  0.00    +0.116 A 
ATOM      8  C   UNL     1      -2.997   5.889  -3.348  0.00  0.00    +0.076 A 
ATOM      9  C   UNL     1      -2.632   5.536  -2.008  0.00  0.00    +0.263 A 
ATOM     10  O   UNL     1      -3.066   4.519  -1.494  0.00  0.00    -0.267 OA
ATOM     11  N   UNL     1      -1.802   6.347  -1.325  0.00  0.00    -0.294 N 
ATOM     12  C   UNL     1      -1.313   7.486  -1.878  0.00  0.00    +0.203 A 
ATOM     13  N   UNL     1      -1.623   7.831  -3.099  0.00  0.00    -0.230 NA
ATOM     14  C   UNL     1      -4.904   5.179  -6.607  0.00  0.00    +0.027 C 
ENDROOT
BRANCH   1  15
ATOM     15  N   UNL     1      -6.294   3.244  -7.205  0.00  0.00    +0.381 N 
ATOM     16  H   UNL     1      -6.982   4.078  -7.406  0.00  0.00    -0.086 HD
ATOM     17  H   UNL     1      -6.843   2.426  -6.715  0.00  0.00    -0.086 HD
BRANCH  15  18
ATOM     18  C   UNL     1      -5.726   2.763  -8.471  0.00  0.00    -0.080 C 
BRANCH  18  19
ATOM     19  C   UNL     1      -6.854   2.284  -9.387  0.00  0.00    +0.009 C 
BRANCH  19  20
ATOM     20  C   UNL     1      -6.262   1.782 -10.706  0.00  0.00    +0.158 C 
BRANCH  20  21
ATOM     21  O   UNL     1      -7.316   1.335 -11.562  0.00  0.00    -0.380 OA
BRANCH  21  23
ATOM     22  C   UNL     1      -8.074   0.396 -13.655  0.00  0.00    +0.034 C 
ATOM     23  C   UNL     1      -6.868   0.844 -12.827  0.00  0.00    +0.156 C 
ENDBRANCH  21  23
ENDBRANCH  20  21
ENDBRANCH  19  20
ENDBRANCH  18  19
ENDBRANCH  15  18
ENDBRANCH   1  15
BRANCH  11  24
ATOM     24  C   UNL     1      -1.423   5.995   0.046  0.00  0.00    +0.165 C 
BRANCH  24  25
ATOM     25  C   UNL     1      -0.101   5.273   0.033  0.00  0.00    +0.022 A 
ATOM     26  C   UNL     1       1.097   5.990   0.182  0.00  0.00    -0.010 A 
ATOM     27  C   UNL     1       1.096   7.386   0.348  0.00  0.00    +0.009 A 
ATOM     28  C   UNL     1       2.275   8.048   0.497  0.00  0.00    +0.001 A 
ATOM     29  C   UNL     1       3.489   7.364   0.477  0.00  0.00    +0.001 A 
ATOM     30  C   UNL     1       3.530   6.013   0.319  0.00  0.00    +0.008 A 
ATOM     31  C   UNL     1       2.332   5.294   0.168  0.00  0.00    -0.017 A 
ATOM     32  C   UNL     1       2.336   3.897   0.004  0.00  0.00    +0.012 A 
ATOM     33  C   UNL     1       1.159   3.232  -0.140  0.00  0.00    +0.046 A 
ATOM     34  C   UNL     1      -0.061   3.917  -0.125  0.00  0.00    +0.126 A 
BRANCH  34  35
ATOM     35  O   UNL     1      -1.220   3.224  -0.271  0.00  0.00    -0.495 OA
ATOM     36  C   UNL     1      -1.115   1.808  -0.432  0.00  0.00    +0.277 C 
ENDBRANCH  34  35
ENDBRANCH  24  25
ENDBRANCH  11  24
TORSDOF 9
