REMARK  Name = ZINC01159518
REMARK  11 active torsions:
REMARK  status: ('A' for Active; 'I' for Inactive)
REMARK    1  A    between atoms: C_1  and  C_2
REMARK    2  A    between atoms: C_5  and  C_13
REMARK    3  A    between atoms: C_6  and  C_12
REMARK    4  A    between atoms: C_7  and  N_8
REMARK    5  A    between atoms: C_9  and  C_11
REMARK    6  A    between atoms: C_13  and  N_14
REMARK    7  A    between atoms: C_15  and  C_17
REMARK    8  A    between atoms: C_17  and  S_18
REMARK    9  A    between atoms: S_18  and  C_19
REMARK   10  A    between atoms: C_22  and  C_25
REMARK   11  A    between atoms: N_23  and  C_24
REMARK                            x       y       z     vdW  Elec       q    Type
REMARK                         _______ _______ _______ _____ _____    ______ ____
ROOT
ATOM      1  N   UNL     1      -0.154  -0.472   0.520  0.00  0.00    -0.311 N 
ATOM      2  C   UNL     1      -1.481  -0.271   0.645  0.00  0.00    +0.224 C 
ATOM      3  O   UNL     1      -1.938   0.847   0.540  0.00  0.00    -0.275 OA
ATOM      4  H   UNL     1       0.211  -1.367   0.603  0.00  0.00    +0.149 HD
ENDROOT
BRANCH   1   5
ATOM      5  C   UNL     1       0.736   0.660   0.251  0.00  0.00    +0.139 C 
BRANCH   5  10
ATOM      6  C   UNL     1       6.192  -1.222  -0.120  0.00  0.00    +0.045 C 
ATOM      7  C   UNL     1       4.770  -0.732  -0.025  0.00  0.00    -0.029 A 
ATOM      8  C   UNL     1       4.317  -0.146   1.141  0.00  0.00    +0.005 A 
ATOM      9  C   UNL     1       3.013   0.304   1.229  0.00  0.00    +0.006 A 
ATOM     10  C   UNL     1       2.157   0.169   0.151  0.00  0.00    -0.026 A 
ATOM     11  C   UNL     1       2.602  -0.420  -1.016  0.00  0.00    -0.024 A 
ATOM     12  C   UNL     1       3.914  -0.869  -1.109  0.00  0.00    +0.040 A 
ATOM     13  C   UNL     1       1.668  -0.572  -2.188  0.00  0.00    +0.046 C 
BRANCH  12  14
ATOM     14  N   UNL     1       4.369  -1.461  -2.292  0.00  0.00    -0.285 N 
ATOM     15  C   UNL     1       5.075  -2.608  -2.243  0.00  0.00    +0.214 C 
ATOM     16  O   UNL     1       5.262  -3.160  -1.179  0.00  0.00    -0.276 OA
ATOM     17  C   UNL     1       5.633  -3.205  -3.509  0.00  0.00    +0.109 C 
ATOM     18  H   UNL     1       4.177  -1.047  -3.148  0.00  0.00    +0.155 HD
ENDBRANCH  12  14
ENDBRANCH   5  10
ENDBRANCH   1   5
BRANCH   2  19
ATOM     19  C   UNL     1      -2.397  -1.437   0.914  0.00  0.00    +0.173 C 
BRANCH  19  20
ATOM     20  S   UNL     1      -4.105  -0.848   1.029  0.00  0.00    -0.077 S 
BRANCH  20  21
ATOM     21  C   UNL     1      -4.934  -2.372   1.339  0.00  0.00    +0.192 A 
ATOM     22  N   UNL     1      -4.375  -3.558   1.435  0.00  0.00    -0.122 NA
ATOM     23  N   UNL     1      -5.271  -4.449   1.669  0.00  0.00    -0.128 NA
ATOM     24  C   UNL     1      -6.457  -3.889   1.727  0.00  0.00    +0.166 A 
ATOM     25  N   UNL     1      -6.277  -2.542   1.518  0.00  0.00    -0.305 N 
ATOM     26  C   UNL     1      -7.312  -1.504   1.492  0.00  0.00    +0.153 C 
BRANCH  24  27
ATOM     27  C   UNL     1      -7.742  -4.577   1.973  0.00  0.00    +0.038 A 
ATOM     28  C   UNL     1      -8.848  -4.305   1.165  0.00  0.00    +0.014 A 
ATOM     29  C   UNL     1     -10.043  -4.954   1.396  0.00  0.00    +0.021 A 
ATOM     30  C   UNL     1     -10.151  -5.866   2.432  0.00  0.00    +0.042 A 
ATOM     31  C   UNL     1      -9.060  -6.137   3.240  0.00  0.00    +0.040 A 
ATOM     32  C   UNL     1      -7.856  -5.498   3.017  0.00  0.00    +0.053 A 
ATOM     33 CL   UNL     1      -6.489  -5.838   4.031  0.00  0.00    -0.083 Cl
ATOM     34 CL   UNL     1     -11.661  -6.673   2.719  0.00  0.00    -0.083 Cl
ENDBRANCH  24  27
ENDBRANCH  20  21
ENDBRANCH  19  20
ENDBRANCH   2  19
TORSDOF 7
