REMARK  Name = ZINC38600496
REMARK  12 active torsions:
REMARK  status: ('A' for Active; 'I' for Inactive)
REMARK    1  A    between atoms: C_1  and  C_2
REMARK    2  A    between atoms: C_2  and  C_30
REMARK    3  A    between atoms: N_6  and  C_8
REMARK    4  A    between atoms: C_8  and  C_9
REMARK    5  A    between atoms: N_11  and  C_12
REMARK    6  A    between atoms: C_15  and  O_28
REMARK    7  A    between atoms: C_16  and  O_26
REMARK    8  A    between atoms: C_20  and  C_22
REMARK    9  A    between atoms: C_22  and  O_24
REMARK   10  A    between atoms: O_24  and  C_25
REMARK   11  A    between atoms: O_26  and  C_27
REMARK   12  A    between atoms: O_28  and  C_29
REMARK                            x       y       z     vdW  Elec       q    Type
REMARK                         _______ _______ _______ _____ _____    ______ ____
ROOT
ATOM      1  C   UNL     1       6.878   0.828   3.340  0.00  0.00    +0.053 C 
ATOM      2  C   UNL     1       7.704   1.892   3.035  0.00  0.00    +0.021 A 
ATOM      3  C   UNL     1       7.854   2.679   1.864  0.00  0.00    +0.061 A 
ATOM      4  C   UNL     1       8.764   3.684   1.841  0.00  0.00    +0.162 A 
ATOM      5  C   UNL     1       9.572   3.969   2.958  0.00  0.00    +0.163 A 
ATOM      6  C   UNL     1       9.477   3.253   4.111  0.00  0.00    +0.075 A 
ATOM      7  C   UNL     1       8.548   2.189   4.206  0.00  0.00    +0.049 A 
ATOM      8  N   UNL     1       8.271   1.360   5.195  0.00  0.00    -0.367 N 
ATOM      9  C   UNL     1       7.211   0.442   4.764  0.00  0.00    +0.234 C 
ATOM     10  H   UNL     1       8.697   1.359   6.066  0.00  0.00    +0.161 HD
ENDROOT
BRANCH   1  13
ATOM     11  C   UNL     1       5.103  -0.677   3.021  0.00  0.00    +0.200 C 
ATOM     12  O   UNL     1       5.192  -1.022   4.181  0.00  0.00    -0.278 OA
ATOM     13  N   UNL     1       5.949   0.248   2.526  0.00  0.00    -0.288 N 
ATOM     14  H   UNL     1       5.897   0.501   1.591  0.00  0.00    +0.155 HD
BRANCH  11  15
ATOM     15  C   UNL     1       4.046  -1.283   2.134  0.00  0.00    +0.019 C 
BRANCH  15  21
ATOM     16  C   UNL     1       2.539  -5.029   3.361  0.00  0.00    +0.009 C 
ATOM     17  C   UNL     1       1.552  -4.010   2.790  0.00  0.00    -0.050 C 
ATOM     18  C   UNL     1       0.782  -3.346   3.936  0.00  0.00    +0.003 C 
ATOM     19  C   UNL     1       1.766  -2.576   4.821  0.00  0.00    -0.018 C 
ATOM     20  C   UNL     1       2.523  -1.558   3.965  0.00  0.00    -0.078 C 
ATOM     21  N   UNL     1       3.260  -2.256   2.905  0.00  0.00    +0.386 N 
ATOM     22  C   UNL     1       2.317  -2.939   2.010  0.00  0.00    -0.072 C 
ATOM     23  C   UNL     1       0.569  -4.718   1.856  0.00  0.00    +0.009 C 
ATOM     24  H   UNL     1       3.880  -2.935   3.318  0.00  0.00    -0.081 HD
ENDBRANCH  15  21
ENDBRANCH  11  15
ENDBRANCH   1  13
BRANCH   9  25
ATOM     25  C   UNL     1       7.708  -0.980   4.814  0.00  0.00    +0.335 C 
ATOM     26  O   UNL     1       8.804  -1.252   4.383  0.00  0.00    -0.248 OA
BRANCH  25  27
ATOM     27  O   UNL     1       6.934  -1.944   5.337  0.00  0.00    -0.466 OA
ATOM     28  C   UNL     1       7.468  -3.269   5.352  0.00  0.00    +0.280 C 
ENDBRANCH  25  27
ENDBRANCH   9  25
BRANCH   5  29
ATOM     29  O   UNL     1      10.468   4.985   2.884  0.00  0.00    -0.491 OA
ATOM     30  C   UNL     1      11.264   5.235   4.044  0.00  0.00    +0.277 C 
ENDBRANCH   5  29
BRANCH   4  31
ATOM     31  O   UNL     1       8.900   4.433   0.713  0.00  0.00    -0.491 OA
ATOM     32  C   UNL     1       8.056   4.100  -0.391  0.00  0.00    +0.277 C 
ENDBRANCH   4  31
TORSDOF 7
