REMARK  Name = ZINC49177213
REMARK  3 active torsions:
REMARK  status: ('A' for Active; 'I' for Inactive)
REMARK    1  A    between atoms: C_1  and  C_2
REMARK    2  A    between atoms: C_7  and  C_9
REMARK    3  A    between atoms: C_7  and  C_10
REMARK                            x       y       z     vdW  Elec       q    Type
REMARK                         _______ _______ _______ _____ _____    ______ ____
ROOT
ATOM      1  C   UNL     1      -0.208   1.411   0.174  0.00  0.00    +0.039 C 
ATOM      2  C   UNL     1      -0.070  -0.112   0.116  0.00  0.00    +0.133 C 
ATOM      3  C   UNL     1       0.603  -0.515  -1.201  0.00  0.00    +0.138 C 
ATOM      4  N   UNL     1       0.894  -1.957  -1.151  0.00  0.00    -0.309 N 
ATOM      5  C   UNL     1       1.602  -2.479   0.028  0.00  0.00    +0.141 C 
ATOM      6  C   UNL     1       0.880  -1.980   1.286  0.00  0.00    +0.080 C 
ATOM      7  O   UNL     1       0.732  -0.560   1.212  0.00  0.00    -0.368 OA
ATOM      8  C   UNL     1       1.701  -2.345   2.524  0.00  0.00    +0.043 C 
ATOM      9  C   UNL     1      -0.500  -2.634   1.376  0.00  0.00    +0.043 C 
ATOM     10  C   UNL     1       0.512  -2.796  -2.182  0.00  0.00    +0.133 A 
ATOM     11  C   UNL     1       1.396  -3.053  -3.266  0.00  0.00    +0.048 A 
ATOM     12  C   UNL     1       2.739  -2.553  -3.509  0.00  0.00    +0.021 A 
ATOM     13  C   UNL     1       3.391  -2.938  -4.616  0.00  0.00    +0.048 A 
ATOM     14  S   UNL     1       2.229  -4.019  -5.428  0.00  0.00    -0.077 S 
ATOM     15  C   UNL     1       0.899  -3.925  -4.259  0.00  0.00    +0.113 A 
ATOM     16  N   UNL     1      -0.305  -4.455  -4.169  0.00  0.00    -0.228 NA
ATOM     17  C   UNL     1      -1.080  -4.178  -3.138  0.00  0.00    +0.224 A 
ATOM     18  N   UNL     1      -0.678  -3.375  -2.170  0.00  0.00    -0.220 NA
ENDROOT
TORSDOF 0
