REMARK  Name = ZINC30574862
REMARK  11 active torsions:
REMARK  status: ('A' for Active; 'I' for Inactive)
REMARK    1  A    between atoms: C_1  and  C_2
REMARK    2  A    between atoms: C_5  and  C_7
REMARK    3  A    between atoms: N_9  and  C_10
REMARK    4  A    between atoms: C_13  and  C_16
REMARK    5  A    between atoms: N_18  and  C_19
REMARK    6  A    between atoms: C_19  and  C_20
REMARK    7  A    between atoms: C_20  and  C_22
REMARK    8  A    between atoms: C_20  and  C_31
REMARK    9  A    between atoms: C_25  and  N_28
REMARK   10  A    between atoms: N_28  and  C_29
REMARK   11  A    between atoms: N_28  and  C_30
REMARK                            x       y       z     vdW  Elec       q    Type
REMARK                         _______ _______ _______ _____ _____    ______ ____
ROOT
ATOM      1  C   UNL     1      -7.817   6.197   4.809  0.00  0.00    +0.068 C 
ENDROOT
BRANCH   1   2
ATOM      2  C   UNL     1      -6.536   6.983   4.704  0.00  0.00    -0.013 A 
ATOM      3  C   UNL     1      -5.841   7.518   5.721  0.00  0.00    +0.088 A 
ATOM      4  N   UNL     1      -4.729   8.155   5.241  0.00  0.00    -0.360 N 
ATOM      5  H   UNL     1      -4.035   8.648   5.938  0.00  0.00    +0.165 HD
ATOM      6  C   UNL     1      -4.685   8.051   3.869  0.00  0.00    +0.047 A 
ATOM      7  C   UNL     1      -5.814   7.312   3.472  0.00  0.00    +0.003 A 
ATOM      8  C   UNL     1      -6.033   7.046   2.119  0.00  0.00    +0.010 A 
ATOM      9  C   UNL     1      -5.147   7.507   1.186  0.00  0.00    +0.001 A 
ATOM     10  C   UNL     1      -4.032   8.237   1.572  0.00  0.00    +0.002 A 
ATOM     11  C   UNL     1      -3.797   8.510   2.902  0.00  0.00    +0.026 A 
ENDBRANCH   1   2
BRANCH   1  12
ATOM     12  C   UNL     1      -8.880   7.053   5.451  0.00  0.00    -0.038 A 
ATOM     13  C   UNL     1      -8.689   7.547   6.728  0.00  0.00    +0.006 A 
ATOM     14  C   UNL     1      -9.658   8.336   7.316  0.00  0.00    +0.023 A 
ATOM     15  C   UNL     1     -10.829   8.624   6.628  0.00  0.00    +0.029 A 
ATOM     16  C   UNL     1     -11.020   8.121   5.347  0.00  0.00    +0.023 A 
ATOM     17  C   UNL     1     -10.045   7.337   4.763  0.00  0.00    +0.006 A 
BRANCH  15  18
ATOM     18  N   UNL     1     -11.814   9.416   7.223  0.00  0.00    -0.336 N 
ATOM     19  C   UNL     1     -13.057   9.703   6.503  0.00  0.00    +0.129 C 
ATOM     20  C   UNL     1     -11.603   9.961   8.566  0.00  0.00    +0.129 C 
ENDBRANCH  15  18
ENDBRANCH   1  12
BRANCH   1  21
ATOM     21  C   UNL     1      -7.583   4.950   5.664  0.00  0.00    +0.117 C 
BRANCH  21  24
ATOM     22  C   UNL     1      -6.280   2.894   5.552  0.00  0.00    +0.244 C 
ATOM     23  O   UNL     1      -6.740   2.578   6.632  0.00  0.00    -0.270 OA
ATOM     24  N   UNL     1      -6.639   4.061   4.982  0.00  0.00    -0.310 N 
ATOM     25  H   UNL     1      -6.222   4.347   4.005  0.00  0.00    +0.149 HD
BRANCH  22  29
ATOM     26  C   UNL     1      -3.543   0.318   3.575  0.00  0.00    +0.033 A 
ATOM     27  C   UNL     1      -3.908   1.525   2.988  0.00  0.00    +0.024 A 
ATOM     28  C   UNL     1      -4.799   2.360   3.623  0.00  0.00    +0.015 A 
ATOM     29  C   UNL     1      -5.329   1.998   4.864  0.00  0.00    +0.037 A 
ATOM     30  C   UNL     1      -4.957   0.787   5.454  0.00  0.00    +0.015 A 
ATOM     31  C   UNL     1      -4.069  -0.045   4.810  0.00  0.00    +0.024 A 
BRANCH  26  34
ATOM     32  C   UNL     1      -2.650  -0.614   1.581  0.00  0.00    +0.221 C 
ATOM     33  O   UNL     1      -3.497  -0.029   0.940  0.00  0.00    -0.275 OA
ATOM     34  N   UNL     1      -2.643  -0.527   2.926  0.00  0.00    -0.285 N 
ATOM     35  H   UNL     1      -1.928  -1.123   3.512  0.00  0.00    +0.155 HD
BRANCH  32  39
ATOM     36  C   UNL     1      -2.781  -0.712  -1.347  0.00  0.00    +0.008 C 
ATOM     37  C   UNL     1      -1.665  -1.496  -0.654  0.00  0.00    -0.002 C 
ATOM     38  C   UNL     1      -0.563  -0.694   0.039  0.00  0.00    +0.017 C 
ATOM     39  C   UNL     1      -1.606  -1.439   0.874  0.00  0.00    +0.078 C 
ENDBRANCH  32  39
ENDBRANCH  26  34
ENDBRANCH  22  29
ENDBRANCH  21  24
ENDBRANCH   1  21
TORSDOF 8
