REMARK  Name = ZINC64450966
REMARK  8 active torsions:
REMARK  status: ('A' for Active; 'I' for Inactive)
REMARK    1  A    between atoms: C_1  and  C_2
REMARK    2  A    between atoms: C_5  and  C_8
REMARK    3  A    between atoms: C_9  and  N_29
REMARK    4  A    between atoms: N_24  and  C_25
REMARK    5  A    between atoms: C_25  and  C_26
REMARK    6  A    between atoms: C_26  and  O_27
REMARK    7  A    between atoms: O_27  and  C_28
REMARK    8  A    between atoms: N_29  and  C_30
REMARK                            x       y       z     vdW  Elec       q    Type
REMARK                         _______ _______ _______ _____ _____    ______ ____
ROOT
ATOM      1  C   UNL     1       0.062  -4.252  -0.017  0.00  0.00    +0.114 A 
ATOM      2  C   UNL     1       0.702  -5.052   0.883  0.00  0.00    +0.150 A 
ATOM      3  N   UNL     1       0.469  -6.368   0.514  0.00  0.00    -0.190 N 
ATOM      4  C   UNL     1      -0.315  -6.295  -0.611  0.00  0.00    +0.199 A 
ATOM      5  N   UNL     1      -0.558  -5.056  -0.920  0.00  0.00    -0.218 NA
ATOM      6  S   UNL     1      -0.565  -8.008  -1.015  0.00  0.00    -0.013 S 
ATOM      7  C   UNL     1       0.380  -8.710   0.327  0.00  0.00    +0.184 A 
ATOM      8  N   UNL     1       0.798  -7.646   0.955  0.00  0.00    -0.140 NA
ATOM      9  N   UNL     1       0.610 -10.043   0.625  0.00  0.00    -0.305 N 
ATOM     10  C   UNL     1       1.421 -10.420   1.792  0.00  0.00    +0.126 C 
ATOM     11  C   UNL     1       0.597 -11.364   2.676  0.00  0.00    +0.128 C 
ATOM     12  N   UNL     1       0.035 -12.428   1.831  0.00  0.00    -0.283 N 
ATOM     13  C   UNL     1      -0.775 -12.051   0.664  0.00  0.00    +0.128 C 
ATOM     14  C   UNL     1       0.044 -11.107  -0.217  0.00  0.00    +0.126 C 
ATOM     15  C   UNL     1       0.259 -13.725   2.121  0.00  0.00    +0.302 C 
ATOM     16  O   UNL     1       1.007 -14.024   3.031  0.00  0.00    -0.253 OA
ATOM     17  N   UNL     1      -0.347 -14.690   1.402  0.00  0.00    -0.297 N 
ATOM     18  H   UNL     1      -0.887 -14.455   0.631  0.00  0.00    +0.150 HD
ENDROOT
BRANCH   1  23
ATOM     19  C   UNL     1      -0.021   1.504   0.018  0.00  0.00    +0.044 C 
ATOM     20  C   UNL     1       0.000  -0.003   0.009  0.00  0.00    -0.050 A 
ATOM     21  C   UNL     1       0.009  -0.685  -1.195  0.00  0.00    +0.004 A 
ATOM     22  C   UNL     1       0.029  -2.064  -1.210  0.00  0.00    +0.010 A 
ATOM     23  C   UNL     1       0.041  -2.772  -0.008  0.00  0.00    +0.004 A 
ATOM     24  C   UNL     1       0.032  -2.079   1.203  0.00  0.00    +0.010 A 
ATOM     25  C   UNL     1       0.017  -0.699   1.204  0.00  0.00    +0.004 A 
ENDBRANCH   1  23
BRANCH   2  26
ATOM     26  N   UNL     1       1.456  -4.623   1.978  0.00  0.00    -0.324 N 
ATOM     27  H   UNL     1       1.561  -3.675   2.153  0.00  0.00    +0.148 HD
BRANCH  26  28
ATOM     28  C   UNL     1       2.088  -5.605   2.862  0.00  0.00    +0.072 C 
ATOM     29  C   UNL     1       1.107  -6.021   3.977  0.00  0.00    +0.022 C 
ATOM     30  C   UNL     1       2.004  -6.190   5.229  0.00  0.00    +0.002 C 
ATOM     31  C   UNL     1       3.025  -5.035   5.076  0.00  0.00    +0.002 C 
ATOM     32  C   UNL     1       3.308  -4.979   3.561  0.00  0.00    +0.022 C 
ENDBRANCH  26  28
ENDBRANCH   2  26
BRANCH  17  33
ATOM     33  C   UNL     1      -0.192 -16.096   1.785  0.00  0.00    +0.133 C 
BRANCH  33  34
ATOM     34  C   UNL     1      -0.975 -16.979   0.812  0.00  0.00    +0.178 C 
BRANCH  34  35
ATOM     35  O   UNL     1      -0.401 -16.877  -0.492  0.00  0.00    -0.381 OA
ATOM     36  C   UNL     1      -1.062 -17.668  -1.482  0.00  0.00    +0.194 C 
ENDBRANCH  34  35
ENDBRANCH  33  34
ENDBRANCH  17  33
TORSDOF 6
