REMARK  Name = ZINC15257417
REMARK  9 active torsions:
REMARK  status: ('A' for Active; 'I' for Inactive)
REMARK    1  A    between atoms: C_1  and  C_2
REMARK    2  A    between atoms: C_2  and  C_3
REMARK    3  A    between atoms: C_2  and  C_4
REMARK    4  A    between atoms: C_7  and  N_10
REMARK    5  A    between atoms: C_14  and  C_15
REMARK    6  A    between atoms: N_20  and  C_21
REMARK    7  A    between atoms: C_24  and  O_27
REMARK    8  A    between atoms: O_27  and  C_28
REMARK    9  A    between atoms: C_29  and  C_31
REMARK                            x       y       z     vdW  Elec       q    Type
REMARK                         _______ _______ _______ _____ _____    ______ ____
ROOT
ATOM      1  N   UNL     1       0.819   3.711   6.950  0.00  0.00    -0.217 N 
ATOM      2  C   UNL     1      -0.489   3.973   7.149  0.00  0.00    +0.271 C 
ATOM      3  O   UNL     1      -0.996   4.439   8.153  0.00  0.00    -0.268 OA
ATOM      4  C   UNL     1      -1.178   3.584   5.914  0.00  0.00    +0.098 C 
ATOM      5  C   UNL     1      -2.509   3.668   5.649  0.00  0.00    +0.057 C 
ATOM      6  N   UNL     1      -0.170   3.102   5.066  0.00  0.00    -0.292 N 
ATOM      7  C   UNL     1       1.000   3.202   5.722  0.00  0.00    +0.148 C 
ATOM      8  S   UNL     1       2.516   2.735   5.078  0.00  0.00    -0.018 S 
ATOM      9  H   UNL     1      -0.294   2.760   4.166  0.00  0.00    +0.154 HD
ENDROOT
BRANCH   5  10
ATOM     10  C   UNL     1      -3.027   3.230   4.351  0.00  0.00    +0.075 A 
ATOM     11  C   UNL     1      -4.382   3.309   4.066  0.00  0.00    +0.076 A 
ATOM     12  S   UNL     1      -4.409   2.664   2.398  0.00  0.00    -0.059 S 
ATOM     13  C   UNL     1      -2.657   2.349   2.246  0.00  0.00    +0.172 A 
ATOM     14  N   UNL     1      -2.206   2.747   3.417  0.00  0.00    -0.225 NA
ATOM     15  N   UNL     1      -1.952   1.825   1.169  0.00  0.00    -0.219 N 
ATOM     16  C   UNL     1      -0.635   1.565   1.287  0.00  0.00    +0.223 C 
ATOM     17  O   UNL     1      -0.087   1.687   2.362  0.00  0.00    -0.275 OA
ATOM     18  C   UNL     1       0.157   1.124   0.083  0.00  0.00    +0.110 C 
BRANCH  15  19
ATOM     19  C   UNL     1      -2.612   1.567  -0.042  0.00  0.00    +0.043 A 
ATOM     20  C   UNL     1      -3.301   2.585  -0.688  0.00  0.00    +0.027 A 
ATOM     21  C   UNL     1      -3.946   2.331  -1.882  0.00  0.00    +0.047 A 
ATOM     22  C   UNL     1      -3.916   1.057  -2.431  0.00  0.00    +0.120 A 
ATOM     23  C   UNL     1      -3.232   0.039  -1.783  0.00  0.00    +0.047 A 
ATOM     24  C   UNL     1      -2.582   0.292  -0.591  0.00  0.00    +0.027 A 
BRANCH  22  25
ATOM     25  O   UNL     1      -4.556   0.807  -3.604  0.00  0.00    -0.495 OA
ATOM     26  C   UNL     1      -5.240   1.902  -4.216  0.00  0.00    +0.277 C 
ENDBRANCH  22  25
ENDBRANCH  15  19
ENDBRANCH   5  10
BRANCH   1  30
ATOM     27  C   UNL     1       3.846   4.380   9.736  0.00  0.00    -0.045 A 
ATOM     28  C   UNL     1       3.825   5.098   8.555  0.00  0.00    +0.006 A 
ATOM     29  C   UNL     1       2.823   4.878   7.630  0.00  0.00    +0.024 A 
ATOM     30  C   UNL     1       1.837   3.935   7.887  0.00  0.00    +0.043 A 
ATOM     31  C   UNL     1       1.858   3.219   9.076  0.00  0.00    +0.024 A 
ATOM     32  C   UNL     1       2.865   3.440   9.995  0.00  0.00    +0.006 A 
BRANCH  27  34
ATOM     33  C   UNL     1       4.324   5.084  12.066  0.00  0.00    +0.012 C 
ATOM     34  C   UNL     1       4.940   4.622  10.744  0.00  0.00    +0.013 C 
ATOM     35  C   UNL     1       5.720   3.325  10.971  0.00  0.00    +0.012 C 
ENDBRANCH  27  34
ENDBRANCH   1  30
TORSDOF 5
