REMARK  Name = ZINC02242074
REMARK  6 active torsions:
REMARK  status: ('A' for Active; 'I' for Inactive)
REMARK    1  A    between atoms: C_1  and  C_2
REMARK    2  A    between atoms: C_4  and  C_31
REMARK    3  A    between atoms: C_6  and  S_8
REMARK    4  A    between atoms: S_8  and  C_9
REMARK    5  A    between atoms: C_9  and  C_10
REMARK    6  A    between atoms: C_20  and  C_25
REMARK                            x       y       z     vdW  Elec       q    Type
REMARK                         _______ _______ _______ _____ _____    ______ ____
ROOT
ATOM      1  C   UNL     1       0.002  -0.004   0.002  0.00  0.00    +0.230 C 
ATOM      2  O   UNL     1       1.060  -0.596  -0.011  0.00  0.00    -0.274 OA
ATOM      3  N   UNL     1      -1.156  -0.694   0.009  0.00  0.00    -0.254 N 
ATOM      4  C   UNL     1      -1.137  -2.078   0.002  0.00  0.00    +0.222 A 
ATOM      5  N   UNL     1       0.033  -2.702  -0.018  0.00  0.00    -0.222 NA
ATOM      6  C   UNL     1       0.095  -4.021  -0.023  0.00  0.00    +0.127 A 
ATOM      7  C   UNL     1      -1.102  -4.748  -0.017  0.00  0.00    +0.057 A 
ATOM      8  C   UNL     1      -2.317  -4.055   0.002  0.00  0.00    +0.057 A 
ATOM      9  N   UNL     1      -2.289  -2.733   0.009  0.00  0.00    -0.218 NA
ATOM     10  C   UNL     1      -3.635  -4.777   0.022  0.00  0.00    +0.065 C 
ATOM     11  C   UNL     1      -3.496  -6.195  -0.526  0.00  0.00    +0.032 C 
ATOM     12  C   UNL     1      -2.394  -6.935   0.242  0.00  0.00    +0.088 C 
ATOM     13  C   UNL     1      -1.087  -6.218  -0.033  0.00  0.00    +0.167 C 
ATOM     14  O   UNL     1      -0.067  -6.835  -0.257  0.00  0.00    -0.292 OA
ATOM     15  H   UNL     1      -2.002  -0.220   0.020  0.00  0.00    +0.158 HD
ENDROOT
BRANCH  11  16
ATOM     16  C   UNL     1      -4.802  -6.928  -0.362  0.00  0.00    -0.044 A 
ATOM     17  C   UNL     1      -5.336  -7.114   0.899  0.00  0.00    +0.004 A 
ATOM     18  C   UNL     1      -6.537  -7.782   1.050  0.00  0.00    +0.000 A 
ATOM     19  C   UNL     1      -7.199  -8.273  -0.060  0.00  0.00    +0.000 A 
ATOM     20  C   UNL     1      -6.662  -8.091  -1.321  0.00  0.00    +0.000 A 
ATOM     21  C   UNL     1      -5.464  -7.418  -1.472  0.00  0.00    +0.004 A 
ENDBRANCH  11  16
BRANCH   1  22
ATOM     22  C   UNL     1      -0.018   1.503   0.010  0.00  0.00    +0.173 C 
BRANCH  22  23
ATOM     23  S   UNL     1       1.680   2.129  -0.003  0.00  0.00    -0.077 S 
BRANCH  23  29
ATOM     24  C   UNL     1      -1.585   6.070   0.050  0.00  0.00    +0.066 C 
ATOM     25  C   UNL     1      -0.157   5.589   0.034  0.00  0.00    +0.043 A 
ATOM     26  C   UNL     1       0.890   6.498   0.029  0.00  0.00    +0.046 A 
ATOM     27  C   UNL     1       2.189   6.013   0.013  0.00  0.00    +0.043 A 
ATOM     28  N   UNL     1       2.389   4.706   0.004  0.00  0.00    -0.227 NA
ATOM     29  C   UNL     1       1.366   3.863   0.010  0.00  0.00    +0.189 A 
ATOM     30  N   UNL     1       0.113   4.294   0.019  0.00  0.00    -0.227 NA
ATOM     31  C   UNL     1       3.357   6.964   0.008  0.00  0.00    +0.066 C 
ENDBRANCH  23  29
ENDBRANCH  22  23
ENDBRANCH   1  22
TORSDOF 4
