REMARK  Name = ZINC39936513
REMARK  6 active torsions:
REMARK  status: ('A' for Active; 'I' for Inactive)
REMARK    1  A    between atoms: C_1  and  C_2
REMARK    2  A    between atoms: C_8  and  N_10
REMARK    3  A    between atoms: N_15  and  C_18
REMARK    4  A    between atoms: C_18  and  C_19
REMARK    5  A    between atoms: C_19  and  C_21
REMARK    6  A    between atoms: C_23  and  C_26
REMARK                            x       y       z     vdW  Elec       q    Type
REMARK                         _______ _______ _______ _____ _____    ______ ____
ROOT
ATOM      1  N   UNL     1       0.056  -0.038   2.447  0.00  0.00    -0.214 N 
ATOM      2  C   UNL     1      -1.221  -0.319   2.785  0.00  0.00    +0.310 C 
ATOM      3  O   UNL     1      -2.013  -0.996   2.165  0.00  0.00    -0.264 OA
ATOM      4  C   UNL     1      -1.452   0.386   4.089  0.00  0.00    +0.310 C 
ATOM      5  O   UNL     1      -2.472   0.398   4.746  0.00  0.00    -0.264 OA
ATOM      6  N   UNL     1      -0.286   1.003   4.375  0.00  0.00    -0.210 N 
ATOM      7  C   UNL     1       0.597   0.739   3.399  0.00  0.00    +0.319 C 
ATOM      8  O   UNL     1       1.739   1.153   3.378  0.00  0.00    -0.252 OA
ENDROOT
BRANCH   1  15
ATOM      9  C   UNL     1      -0.019   1.526   0.010  0.00  0.00    +0.009 C 
ATOM     10  C   UNL     1       0.002  -0.004   0.002  0.00  0.00    +0.007 C 
ATOM     11  C   UNL     1       0.718  -0.497  -1.257  0.00  0.00    +0.005 C 
ATOM     12  C   UNL     1       0.739  -2.027  -1.265  0.00  0.00    +0.000 C 
ATOM     13  C   UNL     1       1.479  -2.534  -0.026  0.00  0.00    +0.002 C 
ATOM     14  C   UNL     1       0.763  -2.041   1.233  0.00  0.00    +0.023 C 
ATOM     15  C   UNL     1       0.742  -0.511   1.242  0.00  0.00    +0.089 C 
ENDBRANCH   1  15
BRANCH   6  16
ATOM     16  C   UNL     1      -0.025   1.824   5.561  0.00  0.00    +0.197 C 
BRANCH  16  17
ATOM     17  C   UNL     1       0.503   0.950   6.670  0.00  0.00    +0.179 C 
ATOM     18  O   UNL     1       0.648  -0.240   6.487  0.00  0.00    -0.291 OA
BRANCH  17  19
ATOM     19  C   UNL     1       0.842   1.538   7.965  0.00  0.00    +0.020 C 
ATOM     20  C   UNL     1       1.329   0.895   9.050  0.00  0.00    +0.041 C 
ATOM     21  C   UNL     1       1.527   1.866  10.134  0.00  0.00    +0.121 C 
ATOM     22  N   UNL     1       1.185   3.057   9.758  0.00  0.00    -0.274 NA
ATOM     23  C   UNL     1       0.726   2.992   8.365  0.00  0.00    +0.181 C 
BRANCH  21  24
ATOM     24  C   UNL     1       2.051   1.526  11.484  0.00  0.00    +0.265 C 
ATOM     25  O   UNL     1       2.347   0.379  11.749  0.00  0.00    -0.268 OA
ATOM     26  N   UNL     1       2.196   2.492  12.413  0.00  0.00    -0.296 N 
ATOM     27  C   UNL     1       1.872   3.914  12.228  0.00  0.00    +0.108 C 
ATOM     28  C   UNL     1       2.225   4.639  13.544  0.00  0.00    +0.020 C 
ATOM     29  C   UNL     1       3.256   3.684  14.201  0.00  0.00    +0.020 C 
ATOM     30  C   UNL     1       2.702   2.296  13.784  0.00  0.00    +0.108 C 
ENDBRANCH  21  24
ENDBRANCH  17  19
ENDBRANCH  16  17
ENDBRANCH   6  16
TORSDOF 5
