REMARK  Name = ZINC35350754
REMARK  11 active torsions:
REMARK  status: ('A' for Active; 'I' for Inactive)
REMARK    1  A    between atoms: C_1  and  C_2
REMARK    2  A    between atoms: C_2  and  C_3
REMARK    3  A    between atoms: C_3  and  N_4
REMARK    4  A    between atoms: N_4  and  C_5
REMARK    5  A    between atoms: C_5  and  C_6
REMARK    6  A    between atoms: N_8  and  C_9
REMARK    7  A    between atoms: N_8  and  C_21
REMARK    8  A    between atoms: C_9  and  C_10
REMARK    9  A    between atoms: C_10  and  C_11
REMARK   10  A    between atoms: C_21  and  C_22
REMARK   11  A    between atoms: C_28  and  C_30
REMARK                            x       y       z     vdW  Elec       q    Type
REMARK                         _______ _______ _______ _____ _____    ______ ____
ROOT
ATOM      1  C   UNL     1      -3.377  -2.935   1.081  0.00  0.00    +0.233 C 
ATOM      2  O   UNL     1      -4.079  -2.706   0.118  0.00  0.00    -0.274 OA
ATOM      3  N   UNL     1      -3.918  -3.453   2.201  0.00  0.00    -0.296 N 
ENDROOT
BRANCH   1   4
ATOM      4  C   UNL     1      -1.900  -2.640   1.024  0.00  0.00    +0.203 C 
BRANCH   4   5
ATOM      5  N   UNL     1      -1.581  -1.990  -0.249  0.00  0.00    -0.292 N 
ATOM      6  C   UNL     1      -1.108  -2.720  -1.279  0.00  0.00    +0.222 C 
ATOM      7  O   UNL     1      -0.948  -2.204  -2.365  0.00  0.00    -0.275 OA
BRANCH   6   8
ATOM      8  C   UNL     1      -0.776  -4.176  -1.081  0.00  0.00    +0.048 C 
ATOM      9  C   UNL     1       0.383  -4.306  -0.091  0.00  0.00    +0.019 C 
ATOM     10  C   UNL     1       0.720  -5.784   0.110  0.00  0.00    -0.009 C 
ATOM     11  C   UNL     1       1.121  -6.403  -1.230  0.00  0.00    +0.007 C 
ATOM     12  C   UNL     1      -0.038  -6.274  -2.220  0.00  0.00    -0.009 C 
ATOM     13  C   UNL     1      -0.375  -4.795  -2.421  0.00  0.00    +0.019 C 
ATOM     14  C   UNL     1      -1.264  -7.005  -1.667  0.00  0.00    +0.007 C 
ATOM     15  C   UNL     1      -1.666  -6.386  -0.327  0.00  0.00    -0.009 C 
ATOM     16  C   UNL     1      -0.506  -6.515   0.663  0.00  0.00    +0.007 C 
ATOM     17  C   UNL     1      -2.002  -4.907  -0.528  0.00  0.00    +0.019 C 
ENDBRANCH   6   8
BRANCH   5  18
ATOM     18  C   UNL     1      -1.776  -0.546  -0.404  0.00  0.00    +0.108 C 
BRANCH  18  20
ATOM     19  C   UNL     1      -0.629   1.674  -0.402  0.00  0.00    +0.005 C 
ATOM     20  C   UNL     1      -0.459   0.180  -0.120  0.00  0.00    +0.016 C 
ENDBRANCH  18  20
ENDBRANCH   5  18
ENDBRANCH   4   5
ENDBRANCH   1   4
BRANCH   3  21
ATOM     21  C   UNL     1      -5.329  -3.849   2.218  0.00  0.00    +0.113 C 
BRANCH  21  22
ATOM     22  C   UNL     1      -5.452  -5.313   1.788  0.00  0.00    +0.056 C 
BRANCH  22  23
ATOM     23  C   UNL     1      -6.903  -5.721   1.806  0.00  0.00    -0.021 A 
ATOM     24  C   UNL     1      -7.550  -6.327   2.813  0.00  0.00    +0.087 A 
ATOM     25  N   UNL     1      -8.856  -6.541   2.467  0.00  0.00    -0.360 N 
ATOM     26  H   UNL     1      -9.520  -6.965   3.033  0.00  0.00    +0.165 HD
ATOM     27  C   UNL     1      -9.088  -6.065   1.196  0.00  0.00    +0.047 A 
ATOM     28  C   UNL     1      -7.876  -5.525   0.728  0.00  0.00    +0.003 A 
ATOM     29  C   UNL     1      -7.812  -4.958  -0.546  0.00  0.00    +0.010 A 
ATOM     30  C   UNL     1      -8.929  -4.928  -1.332  0.00  0.00    +0.001 A 
ATOM     31  C   UNL     1     -10.128  -5.456  -0.874  0.00  0.00    +0.002 A 
ATOM     32  C   UNL     1     -10.211  -6.029   0.377  0.00  0.00    +0.026 A 
ENDBRANCH  22  23
ENDBRANCH  21  22
ENDBRANCH   3  21
BRANCH   3  33
ATOM     33  C   UNL     1      -3.096  -3.619   3.402  0.00  0.00    +0.143 C 
BRANCH  33  34
ATOM     34  C   UNL     1      -3.305  -2.444   4.321  0.00  0.00    -0.030 A 
ATOM     35  C   UNL     1      -2.564  -1.290   4.147  0.00  0.00    +0.005 A 
ATOM     36  C   UNL     1      -2.756  -0.211   4.990  0.00  0.00    +0.000 A 
ATOM     37  C   UNL     1      -3.690  -0.286   6.007  0.00  0.00    +0.000 A 
ATOM     38  C   UNL     1      -4.432  -1.439   6.180  0.00  0.00    +0.000 A 
ATOM     39  C   UNL     1      -4.243  -2.516   5.335  0.00  0.00    +0.005 A 
ENDBRANCH  33  34
ENDBRANCH   3  33
TORSDOF 10
