REMARK  Name = ZINC03304839
REMARK  9 active torsions:
REMARK  status: ('A' for Active; 'I' for Inactive)
REMARK    1  A    between atoms: C_1  and  C_2
REMARK    2  A    between atoms: C_3  and  C_14
REMARK    3  A    between atoms: C_4  and  C_7
REMARK    4  A    between atoms: N_16  and  C_17
REMARK    5  A    between atoms: C_17  and  N_19
REMARK    6  A    between atoms: N_19  and  N_20
REMARK    7  A    between atoms: C_21  and  C_23
REMARK    8  A    between atoms: C_26  and  C_29
REMARK    9  A    between atoms: C_29  and  N_30
REMARK                            x       y       z     vdW  Elec       q    Type
REMARK                         _______ _______ _______ _____ _____    ______ ____
ROOT
ATOM      1  N   UNL     1       2.180  -1.014  -0.814  0.00  0.00    -0.231 N 
ATOM      2  C   UNL     1       3.255  -1.782  -1.079  0.00  0.00    +0.260 C 
ATOM      3  O   UNL     1       4.365  -1.287  -1.101  0.00  0.00    -0.269 OA
ATOM      4  H   UNL     1       1.294  -1.410  -0.797  0.00  0.00    +0.173 HD
ENDROOT
BRANCH   2   5
ATOM      5  C   UNL     1       3.085  -3.227  -1.341  0.00  0.00    +0.038 A 
ATOM      6  C   UNL     1       1.813  -3.800  -1.311  0.00  0.00    +0.013 A 
ATOM      7  C   UNL     1       1.661  -5.148  -1.564  0.00  0.00    +0.006 A 
ATOM      8  C   UNL     1       2.767  -5.933  -1.834  0.00  0.00    -0.030 A 
ATOM      9  C   UNL     1       4.032  -5.373  -1.859  0.00  0.00    +0.006 A 
ATOM     10  C   UNL     1       4.197  -4.025  -1.615  0.00  0.00    +0.013 A 
BRANCH   8  11
ATOM     11  C   UNL     1       2.594  -7.406  -2.102  0.00  0.00    +0.149 C 
BRANCH  11  12
ATOM     12  N   UNL     1       2.682  -8.146  -0.841  0.00  0.00    -0.263 N 
ATOM     13  C   UNL     1       3.855  -8.658  -0.301  0.00  0.00    +0.045 A 
ATOM     14  C   UNL     1       5.194  -8.692  -0.642  0.00  0.00    +0.024 A 
ATOM     15  C   UNL     1       6.110  -9.331   0.194  0.00  0.00    +0.002 A 
ATOM     16  C   UNL     1       5.756  -9.946   1.365  0.00  0.00    +0.008 A 
ATOM     17  C   UNL     1       4.405  -9.926   1.750  0.00  0.00    -0.015 A 
ATOM     18  C   UNL     1       3.511  -9.283   0.893  0.00  0.00    +0.016 A 
ATOM     19  C   UNL     1       2.130  -9.184   1.122  0.00  0.00    +0.047 A 
ATOM     20  C   UNL     1       1.647  -9.770   2.279  0.00  0.00    +0.014 A 
ATOM     21  C   UNL     1       2.528 -10.416   3.146  0.00  0.00    +0.001 A 
ATOM     22  C   UNL     1       3.874 -10.508   2.914  0.00  0.00    +0.008 A 
ATOM     23  C   UNL     1       1.626  -8.434  -0.035  0.00  0.00    +0.252 C 
ATOM     24  O   UNL     1       0.467  -8.124  -0.236  0.00  0.00    -0.270 OA
ENDBRANCH  11  12
ENDBRANCH   8  11
ENDBRANCH   2   5
BRANCH   1  25
ATOM     25  N   UNL     1       2.341   0.355  -0.565  0.00  0.00    -0.245 N 
ATOM     26  H   UNL     1       3.226   0.750  -0.583  0.00  0.00    +0.172 HD
BRANCH  25  27
ATOM     27  C   UNL     1       1.265   1.123  -0.301  0.00  0.00    +0.153 C 
ATOM     28  S   UNL     1       1.462   2.796   0.003  0.00  0.00    -0.017 S 
BRANCH  27  31
ATOM     29  C   UNL     1      -1.042   1.343  -0.018  0.00  0.00    +0.255 C 
ATOM     30  O   UNL     1      -0.902   2.531   0.198  0.00  0.00    -0.270 OA
ATOM     31  N   UNL     1       0.034   0.574  -0.277  0.00  0.00    -0.263 N 
ATOM     32  H   UNL     1      -0.077  -0.374  -0.449  0.00  0.00    +0.157 HD
BRANCH  29  35
ATOM     33  C   UNL     1      -2.654   0.268   2.519  0.00  0.00    +0.090 C 
ATOM     34  C   UNL     1      -3.099   0.276   1.079  0.00  0.00    +0.147 A 
ATOM     35  C   UNL     1      -2.386   0.744   0.003  0.00  0.00    +0.106 A 
ATOM     36  C   UNL     1      -3.301   0.492  -1.131  0.00  0.00    +0.127 A 
ATOM     37  N   UNL     1      -4.365  -0.052  -0.596  0.00  0.00    -0.077 NA
ATOM     38  O   UNL     1      -4.263  -0.169   0.600  0.00  0.00    -0.359 OA
BRANCH  36  39
ATOM     39  C   UNL     1      -3.064   0.790  -2.564  0.00  0.00    +0.023 A 
ATOM     40  C   UNL     1      -2.566   2.034  -2.947  0.00  0.00    +0.011 A 
ATOM     41  C   UNL     1      -2.347   2.306  -4.282  0.00  0.00    +0.001 A 
ATOM     42  C   UNL     1      -2.621   1.347  -5.240  0.00  0.00    +0.001 A 
ATOM     43  C   UNL     1      -3.116   0.111  -4.868  0.00  0.00    +0.020 A 
ATOM     44  C   UNL     1      -3.334  -0.175  -3.534  0.00  0.00    +0.050 A 
ATOM     45 CL   UNL     1      -3.948  -1.730  -3.067  0.00  0.00    -0.083 Cl
ENDBRANCH  36  39
ENDBRANCH  29  35
ENDBRANCH  27  31
ENDBRANCH  25  27
ENDBRANCH   1  25
TORSDOF 8
