REMARK  Name = ZINC20348096
REMARK  7 active torsions:
REMARK  status: ('A' for Active; 'I' for Inactive)
REMARK    1  A    between atoms: C_1  and  C_2
REMARK    2  A    between atoms: C_3  and  N_9
REMARK    3  A    between atoms: C_10  and  C_12
REMARK    4  A    between atoms: C_12  and  S_13
REMARK    5  A    between atoms: S_13  and  C_14
REMARK    6  A    between atoms: C_15  and  C_33
REMARK    7  A    between atoms: C_16  and  C_26
REMARK                            x       y       z     vdW  Elec       q    Type
REMARK                         _______ _______ _______ _____ _____    ______ ____
ROOT
ATOM      1  C   UNL     1       4.524  -0.377  -1.383  0.00  0.00    +0.080 C 
ATOM      2  C   UNL     1       4.865   0.812  -0.817  0.00  0.00    +0.069 C 
ATOM      3  C   UNL     1       3.837   1.880  -0.582  0.00  0.00    +0.097 C 
ATOM      4  C   UNL     1       2.441   1.312  -0.630  0.00  0.00    +0.024 C 
ATOM      5  C   UNL     1       2.199   0.115  -1.205  0.00  0.00    +0.016 C 
ATOM      6  N   UNL     1       3.219  -0.620  -1.744  0.00  0.00    -0.311 N 
ATOM      7  C   UNL     1       0.800  -0.448  -1.267  0.00  0.00    +0.051 C 
ATOM      8  C   UNL     1       0.001   0.029  -0.052  0.00  0.00    +0.014 C 
ATOM      9  C   UNL     1      -0.016   1.561  -0.052  0.00  0.00    +0.080 C 
ATOM     10  C   UNL     1       1.401   2.065  -0.058  0.00  0.00    +0.162 C 
ATOM     11  O   UNL     1       1.652   3.144   0.442  0.00  0.00    -0.292 OA
ATOM     12  H   UNL     1       2.989  -1.411  -2.473  0.00  0.00    +0.152 HD
ENDROOT
BRANCH   3  13
ATOM     13  C   UNL     1       3.977   2.942  -1.642  0.00  0.00    -0.035 A 
ATOM     14  C   UNL     1       3.795   2.617  -2.973  0.00  0.00    +0.006 A 
ATOM     15  C   UNL     1       3.917   3.591  -3.946  0.00  0.00    +0.020 A 
ATOM     16  C   UNL     1       4.233   4.890  -3.588  0.00  0.00    +0.041 A 
ATOM     17  C   UNL     1       4.420   5.213  -2.256  0.00  0.00    +0.020 A 
ATOM     18  C   UNL     1       4.292   4.239  -1.284  0.00  0.00    +0.006 A 
ATOM     19 CL   UNL     1       4.393   6.113  -4.809  0.00  0.00    -0.084 Cl
ENDBRANCH   3  13
BRANCH   2  20
ATOM     20  C   UNL     1       6.226   1.048  -0.439  0.00  0.00    +0.098 C 
ATOM     21  N   UNL     1       7.305   1.236  -0.139  0.00  0.00    -0.191 NA
ENDBRANCH   2  20
BRANCH   1  22
ATOM     22  S   UNL     1       5.756  -1.607  -1.653  0.00  0.00    -0.100 S 
BRANCH  22  23
ATOM     23  C   UNL     1       4.742  -2.908  -2.400  0.00  0.00    +0.171 C 
BRANCH  23  25
ATOM     24  N   UNL     1       5.067  -5.191  -3.293  0.00  0.00    -0.285 N 
ATOM     25  C   UNL     1       5.610  -4.096  -2.726  0.00  0.00    +0.227 C 
ATOM     26  O   UNL     1       6.796  -4.067  -2.477  0.00  0.00    -0.275 OA
ATOM     27  H   UNL     1       3.978  -5.255  -3.436  0.00  0.00    +0.155 HD
BRANCH  24  30
ATOM     28  C   UNL     1       3.924  -7.792  -3.468  0.00  0.00    +0.047 C 
ATOM     29  C   UNL     1       5.371  -7.533  -3.800  0.00  0.00    -0.011 A 
ATOM     30  C   UNL     1       5.888  -6.248  -3.701  0.00  0.00    +0.038 A 
ATOM     31  C   UNL     1       7.221  -6.013  -4.012  0.00  0.00    +0.023 A 
ATOM     32  C   UNL     1       8.032  -7.059  -4.409  0.00  0.00    +0.003 A 
ATOM     33  C   UNL     1       7.515  -8.337  -4.507  0.00  0.00    +0.020 A 
ATOM     34  C   UNL     1       6.185  -8.575  -4.203  0.00  0.00    +0.046 A 
ATOM     35 CL   UNL     1       5.540 -10.182  -4.328  0.00  0.00    -0.083 Cl
ENDBRANCH  24  30
ENDBRANCH  23  25
ENDBRANCH  22  23
ENDBRANCH   1  22
TORSDOF 6
