REMARK  Name = ZINC00894608
REMARK  8 active torsions:
REMARK  status: ('A' for Active; 'I' for Inactive)
REMARK    1  A    between atoms: C_1  and  C_2
REMARK    2  A    between atoms: C_2  and  C_3
REMARK    3  A    between atoms: C_3  and  C_4
REMARK    4  A    between atoms: C_4  and  O_6
REMARK    5  A    between atoms: O_6  and  C_7
REMARK    6  A    between atoms: C_7  and  C_8
REMARK    7  A    between atoms: C_8  and  N_9
REMARK    8  A    between atoms: N_17  and  C_22
REMARK                            x       y       z     vdW  Elec       q    Type
REMARK                         _______ _______ _______ _____ _____    ______ ____
ROOT
ATOM      1  N   UNL     1      -3.781  -6.219   0.005  0.00  0.00    -0.310 N 
ATOM      2  C   UNL     1      -3.732  -7.033  -1.111  0.00  0.00    +0.152 A 
ATOM      3  C   UNL     1      -3.753  -6.807  -2.503  0.00  0.00    +0.280 A 
ATOM      4  O   UNL     1      -3.830  -5.674  -2.942  0.00  0.00    -0.265 OA
ATOM      5  N   UNL     1      -3.688  -7.861  -3.343  0.00  0.00    -0.273 N 
ATOM      6  H   UNL     1      -3.702  -7.710  -4.301  0.00  0.00    +0.173 HD
ATOM      7  C   UNL     1      -3.602  -9.117  -2.871  0.00  0.00    +0.331 A 
ATOM      8  O   UNL     1      -3.544 -10.043  -3.658  0.00  0.00    -0.246 OA
ATOM      9  N   UNL     1      -3.579  -9.376  -1.550  0.00  0.00    -0.280 N 
ATOM     10  C   UNL     1      -3.643  -8.336  -0.637  0.00  0.00    +0.169 A 
ATOM     11  N   UNL     1      -3.642  -8.275   0.697  0.00  0.00    -0.203 NA
ATOM     12  C   UNL     1      -3.717  -7.025   1.083  0.00  0.00    +0.180 A 
ATOM     13 BR   UNL     1      -3.739  -6.442   2.882  0.00  0.00    -0.008 Br
ATOM     14  C   UNL     1      -3.485 -10.760  -1.078  0.00  0.00    +0.155 C 
ENDROOT
BRANCH   1  15
ATOM     15  C   UNL     1      -3.878  -4.757   0.013  0.00  0.00    +0.165 C 
BRANCH  15  16
ATOM     16  C   UNL     1      -2.472  -4.153   0.003  0.00  0.00    +0.253 C 
BRANCH  16  17
ATOM     17  O   UNL     1      -2.566  -2.727   0.012  0.00  0.00    -0.463 OA
BRANCH  17  18
ATOM     18  C   UNL     1      -1.413  -2.041   0.005  0.00  0.00    +0.307 C 
ATOM     19  O   UNL     1      -0.358  -2.630  -0.009  0.00  0.00    -0.251 OA
BRANCH  18  20
ATOM     20  C   UNL     1      -1.433  -0.534   0.013  0.00  0.00    +0.120 C 
BRANCH  20  22
ATOM     21  C   UNL     1      -0.019   1.526   0.010  0.00  0.00    +0.004 C 
ATOM     22  C   UNL     1       0.002  -0.004   0.002  0.00  0.00    +0.008 C 
ENDBRANCH  20  22
ENDBRANCH  18  20
ENDBRANCH  17  18
ENDBRANCH  16  17
ENDBRANCH  15  16
ENDBRANCH   1  15
TORSDOF 6
