REMARK  Name = ZINC19534537
REMARK  11 active torsions:
REMARK  status: ('A' for Active; 'I' for Inactive)
REMARK    1  A    between atoms: C_1  and  C_2
REMARK    2  A    between atoms: C_3  and  C_33
REMARK    3  A    between atoms: N_4  and  C_27
REMARK    4  A    between atoms: C_5  and  N_9
REMARK    5  A    between atoms: C_6  and  C_7
REMARK    6  A    between atoms: C_10  and  C_12
REMARK    7  A    between atoms: C_12  and  N_13
REMARK    8  A    between atoms: C_17  and  C_19
REMARK    9  A    between atoms: C_22  and  O_25
REMARK   10  A    between atoms: O_25  and  C_26
REMARK   11  A    between atoms: C_27  and  C_28
REMARK                            x       y       z     vdW  Elec       q    Type
REMARK                         _______ _______ _______ _____ _____    ______ ____
ROOT
ATOM      1  N   UNL     1       1.106   1.839   0.139  0.00  0.00    -0.272 N 
ATOM      2  C   UNL     1       0.189   1.562   1.088  0.00  0.00    +0.202 C 
ATOM      3  O   UNL     1       0.407   0.694   1.906  0.00  0.00    -0.278 OA
ATOM      4  H   UNL     1       0.879   2.574  -0.647  0.00  0.00    +0.156 HD
ENDROOT
BRANCH   1   9
ATOM      5  C   UNL     1       4.805  -1.554  -0.445  0.00  0.00    +0.047 C 
ATOM      6  C   UNL     1       4.027  -0.312  -0.094  0.00  0.00    -0.011 A 
ATOM      7  C   UNL     1       4.508   0.794   0.497  0.00  0.00    +0.022 A 
ATOM      8  N   UNL     1       3.495   1.703   0.648  0.00  0.00    -0.324 N 
ATOM      9  C   UNL     1       2.335   1.198   0.154  0.00  0.00    +0.124 A 
ATOM     10  C   UNL     1       2.597  -0.077  -0.328  0.00  0.00    +0.095 A 
ATOM     11  C   UNL     1       5.937   1.002   0.928  0.00  0.00    +0.064 C 
BRANCH  10  12
ATOM     12  C   UNL     1       1.663  -0.979  -0.932  0.00  0.00    +0.103 C 
ATOM     13  N   UNL     1       0.922  -1.695  -1.411  0.00  0.00    -0.191 NA
ENDBRANCH  10  12
BRANCH   8  14
ATOM     14  C   UNL     1       3.641   3.028   1.255  0.00  0.00    +0.197 C 
BRANCH  14  15
ATOM     15  C   UNL     1       3.420   2.927   2.743  0.00  0.00    +0.124 A 
ATOM     16  C   UNL     1       4.369   2.684   3.664  0.00  0.00    +0.046 A 
ATOM     17  C   UNL     1       3.725   2.676   4.923  0.00  0.00    +0.041 A 
ATOM     18  C   UNL     1       2.419   2.906   4.694  0.00  0.00    +0.195 A 
ATOM     19  O   UNL     1       2.240   3.057   3.372  0.00  0.00    -0.466 OA
ENDBRANCH  14  15
ENDBRANCH   8  14
ENDBRANCH   1   9
BRANCH   2  20
ATOM     20  C   UNL     1      -1.108   2.327   1.128  0.00  0.00    +0.020 C 
BRANCH  20  21
ATOM     21  N   UNL     1      -1.932   1.837   2.242  0.00  0.00    +0.390 N 
ATOM     22  C   UNL     1      -1.349   2.223   3.540  0.00  0.00    -0.077 C 
ATOM     23  C   UNL     1      -2.427   3.019   4.306  0.00  0.00    -0.020 C 
ATOM     24  C   UNL     1      -3.747   2.553   3.637  0.00  0.00    -0.013 C 
ATOM     25  C   UNL     1      -3.306   2.377   2.163  0.00  0.00    -0.037 C 
ATOM     26  H   UNL     1      -1.956   0.740   2.160  0.00  0.00    -0.080 HD
BRANCH  25  27
ATOM     27  C   UNL     1      -4.213   1.402   1.456  0.00  0.00    -0.061 A 
ATOM     28  C   UNL     1      -4.088   0.046   1.696  0.00  0.00    +0.005 A 
ATOM     29  C   UNL     1      -4.922  -0.849   1.054  0.00  0.00    +0.046 A 
ATOM     30  C   UNL     1      -5.877  -0.387   0.160  0.00  0.00    +0.120 A 
ATOM     31  C   UNL     1      -5.996   0.974  -0.083  0.00  0.00    +0.046 A 
ATOM     32  C   UNL     1      -5.164   1.865   0.566  0.00  0.00    +0.005 A 
BRANCH  30  33
ATOM     33  O   UNL     1      -6.696  -1.266  -0.477  0.00  0.00    -0.495 OA
ATOM     34  C   UNL     1      -6.516  -2.651  -0.178  0.00  0.00    +0.277 C 
ENDBRANCH  30  33
ENDBRANCH  25  27
ENDBRANCH  20  21
ENDBRANCH   2  20
TORSDOF 8
