REMARK  Name = ZINC59932500
REMARK  9 active torsions:
REMARK  status: ('A' for Active; 'I' for Inactive)
REMARK    1  A    between atoms: C_1  and  C_2
REMARK    2  A    between atoms: N_5  and  C_8
REMARK    3  A    between atoms: C_8  and  C_10
REMARK    4  A    between atoms: C_8  and  C_25
REMARK    5  A    between atoms: C_10  and  N_11
REMARK    6  A    between atoms: N_11  and  S_12
REMARK    7  A    between atoms: S_12  and  C_15
REMARK    8  A    between atoms: C_15  and  C_16
REMARK    9  A    between atoms: C_19  and  N_22
REMARK                            x       y       z     vdW  Elec       q    Type
REMARK                         _______ _______ _______ _____ _____    ______ ____
ROOT
ATOM      1  C   UNL     1       2.358  -4.349  -1.341  0.00  0.00    +0.095 C 
ENDROOT
BRANCH   1   2
ATOM      2  N   UNL     1       2.290  -5.808  -1.457  0.00  0.00    -0.195 NA
ATOM      3  H   UNL     1       2.007  -6.342  -0.698  0.00  0.00    +0.148 HD
BRANCH   2   4
ATOM      4  S   UNL     1       2.696  -6.545  -2.884  0.00  0.00    +0.033 S 
ATOM      5  O   UNL     1       2.494  -7.931  -2.646  0.00  0.00    -0.158 OA
ATOM      6  O   UNL     1       1.939  -5.862  -3.873  0.00  0.00    -0.158 OA
BRANCH   4   7
ATOM      7  C   UNL     1       4.464  -6.199  -3.100  0.00  0.00    +0.220 C 
BRANCH   7   8
ATOM      8  C   UNL     1       4.945  -6.830  -4.381  0.00  0.00    -0.025 A 
ATOM      9  C   UNL     1       5.430  -8.125  -4.375  0.00  0.00    +0.007 A 
ATOM     10  C   UNL     1       5.872  -8.703  -5.550  0.00  0.00    +0.033 A 
ATOM     11  C   UNL     1       5.828  -7.987  -6.732  0.00  0.00    +0.126 A 
ATOM     12  C   UNL     1       5.343  -6.693  -6.739  0.00  0.00    +0.033 A 
ATOM     13  C   UNL     1       4.897  -6.116  -5.564  0.00  0.00    +0.007 A 
BRANCH  11  14
ATOM     14  N   UNL     1       6.302  -8.607  -7.990  0.00  0.00    +0.056 N 
ATOM     15  O   UNL     1       6.727  -9.738  -7.984  0.00  0.00    -0.126 OA
ATOM     16  O   UNL     1       6.264  -7.980  -9.024  0.00  0.00    -0.126 OA
ENDBRANCH  11  14
ENDBRANCH   7   8
ENDBRANCH   4   7
ENDBRANCH   2   4
ENDBRANCH   1   2
BRANCH   1  17
ATOM     17  C   UNL     1       1.566  -3.898  -0.113  0.00  0.00    -0.022 C 
BRANCH  17  22
ATOM     18  C   UNL     1       0.391   1.678   0.126  0.00  0.00    +0.007 C 
ATOM     19  C   UNL     1       0.260   0.155   0.052  0.00  0.00    -0.018 C 
ATOM     20  C   UNL     1       0.964  -0.358  -1.207  0.00  0.00    -0.015 C 
ATOM     21  C   UNL     1       0.898  -1.887  -1.234  0.00  0.00    -0.078 C 
ATOM     22  N   UNL     1       1.563  -2.430  -0.044  0.00  0.00    +0.385 N 
ATOM     23  C   UNL     1       0.850  -2.000   1.165  0.00  0.00    -0.078 C 
ATOM     24  C   UNL     1       0.914  -0.476   1.284  0.00  0.00    -0.015 C 
ATOM     25  H   UNL     1       2.514  -2.095  -0.009  0.00  0.00    -0.081 HD
ENDBRANCH  17  22
BRANCH  17  26
ATOM     26  C   UNL     1       2.206  -4.458   1.131  0.00  0.00    -0.060 A 
ATOM     27  C   UNL     1       3.319  -3.843   1.673  0.00  0.00    +0.002 A 
ATOM     28  C   UNL     1       3.906  -4.357   2.814  0.00  0.00    +0.000 A 
ATOM     29  C   UNL     1       3.380  -5.485   3.414  0.00  0.00    +0.000 A 
ATOM     30  C   UNL     1       2.266  -6.100   2.873  0.00  0.00    +0.000 A 
ATOM     31  C   UNL     1       1.676  -5.583   1.734  0.00  0.00    +0.002 A 
ENDBRANCH  17  26
ENDBRANCH   1  17
TORSDOF 8
