REMARK  Name = ZINC14960175
REMARK  7 active torsions:
REMARK  status: ('A' for Active; 'I' for Inactive)
REMARK    1  A    between atoms: C_1  and  C_2
REMARK    2  A    between atoms: C_3  and  C_8
REMARK    3  A    between atoms: N_5  and  C_7
REMARK    4  A    between atoms: N_14  and  C_21
REMARK    5  A    between atoms: C_21  and  C_22
REMARK    6  A    between atoms: C_27  and  O_28
REMARK    7  A    between atoms: O_28  and  C_29
REMARK                            x       y       z     vdW  Elec       q    Type
REMARK                         _______ _______ _______ _____ _____    ______ ____
ROOT
ATOM      1  C   UNL     1       0.717   2.005  -2.263  0.00  0.00    -0.033 C 
ATOM      2  C   UNL     1      -0.583   1.954  -1.438  0.00  0.00    -0.007 C 
ATOM      3  C   UNL     1      -0.128   1.489  -0.039  0.00  0.00    +0.003 C 
ATOM      4  C   UNL     1      -0.021  -0.053  -0.050  0.00  0.00    +0.110 C 
ATOM      5  N   UNL     1       1.276  -0.371   0.557  0.00  0.00    -0.298 N 
ATOM      6  C   UNL     1       2.078   0.710   0.594  0.00  0.00    +0.206 C 
ATOM      7  O   UNL     1       3.216   0.716   1.013  0.00  0.00    -0.277 OA
ATOM      8  C   UNL     1       1.359   1.905   0.040  0.00  0.00    +0.018 C 
ATOM      9  C   UNL     1       2.167   3.702  -1.309  0.00  0.00    -0.077 C 
ATOM     10  C   UNL     1       2.546   4.008   0.163  0.00  0.00    -0.019 C 
ATOM     11  C   UNL     1       1.521   3.139   0.941  0.00  0.00    -0.004 C 
ATOM     12  N   UNL     1       1.806   2.266  -1.300  0.00  0.00    +0.394 N 
ATOM     13  H   UNL     1       2.627   1.705  -1.555  0.00  0.00    -0.079 HD
ENDROOT
BRANCH   1  16
ATOM     14  C   UNL     1       2.709   2.452  -4.686  0.00  0.00    +0.068 C 
ATOM     15  C   UNL     1       1.520   3.314  -4.348  0.00  0.00    +0.062 A 
ATOM     16  C   UNL     1       0.641   3.116  -3.278  0.00  0.00    -0.020 A 
ATOM     17  C   UNL     1      -0.291   4.096  -3.318  0.00  0.00    +0.110 A 
ATOM     18  N   UNL     1      -0.008   4.890  -4.372  0.00  0.00    -0.274 N 
ATOM     19  N   UNL     1       1.131   4.377  -5.005  0.00  0.00    -0.177 NA
ATOM     20  C   UNL     1      -0.763   6.076  -4.785  0.00  0.00    +0.172 C 
ENDBRANCH   1  16
BRANCH   5  21
ATOM     21  C   UNL     1       1.651  -1.695   1.061  0.00  0.00    +0.146 C 
BRANCH  21  22
ATOM     22  C   UNL     1       2.296  -2.489  -0.046  0.00  0.00    +0.011 A 
ATOM     23  C   UNL     1       1.562  -3.436  -0.735  0.00  0.00    +0.009 A 
ATOM     24  C   UNL     1       2.152  -4.162  -1.754  0.00  0.00    +0.001 A 
ATOM     25  C   UNL     1       3.479  -3.949  -2.079  0.00  0.00    +0.004 A 
ATOM     26  C   UNL     1       4.218  -3.007  -1.390  0.00  0.00    +0.046 A 
ATOM     27  C   UNL     1       3.627  -2.274  -0.370  0.00  0.00    +0.125 A 
BRANCH  27  28
ATOM     28  O   UNL     1       4.351  -1.346   0.309  0.00  0.00    -0.495 OA
ATOM     29  C   UNL     1       5.717  -1.178  -0.079  0.00  0.00    +0.277 C 
ENDBRANCH  27  28
ENDBRANCH  21  22
ENDBRANCH   5  21
TORSDOF 4
