REMARK  Name = ZINC63464976
REMARK  8 active torsions:
REMARK  status: ('A' for Active; 'I' for Inactive)
REMARK    1  A    between atoms: C_1  and  C_2
REMARK    2  A    between atoms: C_2  and  O_3
REMARK    3  A    between atoms: O_3  and  C_4
REMARK    4  A    between atoms: C_9  and  C_14
REMARK    5  A    between atoms: N_16  and  N_17
REMARK    6  A    between atoms: C_18  and  C_19
REMARK    7  A    between atoms: C_22  and  O_26
REMARK    8  A    between atoms: C_24  and  O_25
REMARK                            x       y       z     vdW  Elec       q    Type
REMARK                         _______ _______ _______ _____ _____    ______ ____
ROOT
ATOM      1  C   UNL     1       3.198  -6.628  -3.003  0.00  0.00    +0.259 C 
ATOM      2  O   UNL     1       3.671  -6.748  -1.893  0.00  0.00    -0.271 OA
ATOM      3  N   UNL     1       3.858  -7.116  -4.073  0.00  0.00    -0.205 N 
ATOM      4  H   UNL     1       3.480  -7.019  -4.961  0.00  0.00    +0.177 HD
ENDROOT
BRANCH   1  10
ATOM      5  C   UNL     1       0.777  -1.810  -1.336  0.00  0.00    +0.121 A 
ATOM      6  C   UNL     1       0.227  -2.657  -0.358  0.00  0.00    +0.047 A 
ATOM      7  C   UNL     1       0.289  -4.003  -0.444  0.00  0.00    +0.029 A 
ATOM      8  C   UNL     1       0.950  -4.630  -1.593  0.00  0.00    +0.043 A 
ATOM      9  N   UNL     1       1.147  -5.884  -1.915  0.00  0.00    -0.370 N 
ATOM     10  C   UNL     1       1.874  -5.932  -3.188  0.00  0.00    +0.191 C 
ATOM     11  C   UNL     1       2.092  -4.492  -3.596  0.00  0.00    +0.016 C 
ATOM     12  C   UNL     1       1.530  -3.738  -2.625  0.00  0.00    -0.000 A 
ATOM     13  C   UNL     1       1.404  -2.289  -2.438  0.00  0.00    +0.055 A 
ATOM     14  H   UNL     1       0.860  -6.652  -1.397  0.00  0.00    +0.161 HD
BRANCH   5  15
ATOM     15  O   UNL     1       0.671  -0.465  -1.174  0.00  0.00    -0.492 OA
BRANCH  15  17
ATOM     16  C   UNL     1      -0.019   1.526   0.010  0.00  0.00    +0.048 C 
ATOM     17  C   UNL     1       0.002  -0.004   0.002  0.00  0.00    +0.225 C 
ENDBRANCH  15  17
ENDBRANCH   5  15
ENDBRANCH   1  10
BRANCH   3  18
ATOM     18  N   UNL     1       5.089  -7.762  -3.901  0.00  0.00    -0.188 NA
ATOM     19  C   UNL     1       5.724  -8.232  -4.931  0.00  0.00    +0.142 C 
BRANCH  19  20
ATOM     20  C   UNL     1       7.019  -8.912  -4.751  0.00  0.00    +0.036 A 
ATOM     21  C   UNL     1       7.707  -9.414  -5.859  0.00  0.00    +0.016 A 
ATOM     22  C   UNL     1       8.918 -10.048  -5.686  0.00  0.00    +0.046 A 
ATOM     23  C   UNL     1       9.457 -10.192  -4.413  0.00  0.00    +0.120 A 
ATOM     24  C   UNL     1       8.781  -9.698  -3.307  0.00  0.00    +0.091 A 
ATOM     25  C   UNL     1       7.567  -9.053  -3.469  0.00  0.00    +0.129 A 
BRANCH  25  26
ATOM     26  O   UNL     1       6.906  -8.564  -2.388  0.00  0.00    -0.506 OA
ATOM     27  H   UNL     1       6.297  -9.194  -1.981  0.00  0.00    +0.292 HD
ENDBRANCH  25  26
BRANCH  23  28
ATOM     28  O   UNL     1      10.651 -10.820  -4.251  0.00  0.00    -0.507 OA
ATOM     29  H   UNL     1      11.415 -10.229  -4.294  0.00  0.00    +0.292 HD
ENDBRANCH  23  28
ENDBRANCH  19  20
ENDBRANCH   3  18
TORSDOF 7
