REMARK  Name = ZINC19892185
REMARK  12 active torsions:
REMARK  status: ('A' for Active; 'I' for Inactive)
REMARK    1  A    between atoms: C_4  and  C_7
REMARK    2  A    between atoms: C_7  and  O_8
REMARK    3  A    between atoms: O_8  and  C_9
REMARK    4  A    between atoms: C_9  and  C_11
REMARK    5  A    between atoms: C_11  and  C_13
REMARK    6  A    between atoms: C_11  and  N_21
REMARK    7  A    between atoms: C_13  and  C_14
REMARK    8  A    between atoms: C_17  and  O_20
REMARK    9  A    between atoms: C_22  and  C_24
REMARK   10  A    between atoms: C_30  and  O_32
REMARK   11  A    between atoms: O_32  and  C_33
REMARK   12  A    between atoms: C_33  and  C_34
REMARK                            x       y       z     vdW  Elec       q    Type
REMARK                         _______ _______ _______ _____ _____    ______ ____
ROOT
ATOM      1  C   UNL     1      -3.527  -1.479   2.330  0.00  0.00    +0.186 C 
ENDROOT
BRANCH   1   2
ATOM      2  N   UNL     1      -3.317  -0.442   1.317  0.00  0.00    -0.301 N 
ATOM      3  C   UNL     1      -3.675   0.833   1.573  0.00  0.00    +0.234 C 
ATOM      4  O   UNL     1      -4.088   1.137   2.672  0.00  0.00    -0.274 OA
ATOM      5  H   UNL     1      -2.868  -0.703   0.348  0.00  0.00    +0.150 HD
BRANCH   3   6
ATOM      6  C   UNL     1      -3.562   1.878   0.493  0.00  0.00    +0.165 C 
ATOM      7  C   UNL     1      -4.863   1.919  -0.336  0.00  0.00    +0.033 C 
ATOM      8  C   UNL     1      -5.054   3.434  -0.609  0.00  0.00    +0.021 C 
ATOM      9  C   UNL     1      -4.531   4.055   0.714  0.00  0.00    +0.112 C 
ATOM     10  N   UNL     1      -3.389   3.206   1.100  0.00  0.00    -0.256 N 
ATOM     11  C   UNL     1      -2.360   3.583   1.884  0.00  0.00    +0.404 C 
ATOM     12  O   UNL     1      -1.520   2.771   2.217  0.00  0.00    -0.226 OA
BRANCH  11  13
ATOM     13  O   UNL     1      -2.259   4.862   2.292  0.00  0.00    -0.445 OA
BRANCH  13  14
ATOM     14  C   UNL     1      -1.121   5.199   3.130  0.00  0.00    +0.269 C 
BRANCH  14  15
ATOM     15  C   UNL     1      -1.175   6.662   3.486  0.00  0.00    -0.010 A 
ATOM     16  C   UNL     1      -0.553   7.594   2.676  0.00  0.00    +0.007 A 
ATOM     17  C   UNL     1      -0.606   8.937   3.001  0.00  0.00    +0.000 A 
ATOM     18  C   UNL     1      -1.272   9.346   4.140  0.00  0.00    +0.000 A 
ATOM     19  C   UNL     1      -1.890   8.414   4.953  0.00  0.00    +0.000 A 
ATOM     20  C   UNL     1      -1.841   7.072   4.626  0.00  0.00    +0.007 A 
ENDBRANCH  14  15
ENDBRANCH  13  14
ENDBRANCH  11  13
ENDBRANCH   3   6
ENDBRANCH   1   2
BRANCH   1  21
ATOM     21  C   UNL     1      -4.913  -2.052   2.183  0.00  0.00    +0.328 C 
ATOM     22  O   UNL     1      -5.650  -1.636   1.320  0.00  0.00    -0.249 OA
BRANCH  21  23
ATOM     23  O   UNL     1      -5.329  -3.024   3.010  0.00  0.00    -0.459 OA
BRANCH  23  24
ATOM     24  C   UNL     1      -6.676  -3.528   2.810  0.00  0.00    +0.267 C 
BRANCH  24  28
ATOM     25  C   UNL     1      -7.494  -6.583   5.682  0.00  0.00    +0.000 A 
ATOM     26  C   UNL     1      -7.783  -5.263   5.975  0.00  0.00    +0.000 A 
ATOM     27  C   UNL     1      -7.518  -4.275   5.046  0.00  0.00    +0.007 A 
ATOM     28  C   UNL     1      -6.964  -4.606   3.823  0.00  0.00    -0.010 A 
ATOM     29  C   UNL     1      -6.680  -5.926   3.528  0.00  0.00    +0.007 A 
ATOM     30  C   UNL     1      -6.939  -6.914   4.460  0.00  0.00    +0.000 A 
ENDBRANCH  24  28
ENDBRANCH  23  24
ENDBRANCH  21  23
ENDBRANCH   1  21
BRANCH   1  31
ATOM     31  C   UNL     1      -2.493  -2.591   2.143  0.00  0.00    +0.069 C 
BRANCH  31  32
ATOM     32  C   UNL     1      -1.115  -2.048   2.423  0.00  0.00    -0.045 A 
ATOM     33  C   UNL     1      -0.380  -1.472   1.403  0.00  0.00    +0.007 A 
ATOM     34  C   UNL     1       0.881  -0.969   1.659  0.00  0.00    +0.045 A 
ATOM     35  C   UNL     1       1.414  -1.050   2.937  0.00  0.00    +0.117 A 
ATOM     36  C   UNL     1       0.676  -1.633   3.957  0.00  0.00    +0.045 A 
ATOM     37  C   UNL     1      -0.586  -2.131   3.698  0.00  0.00    +0.007 A 
BRANCH  35  38
ATOM     38  O   UNL     1       2.656  -0.561   3.189  0.00  0.00    -0.507 OA
ATOM     39  H   UNL     1       3.078  -0.626   4.203  0.00  0.00    +0.292 HD
ENDBRANCH  35  38
ENDBRANCH  31  32
ENDBRANCH   1  31
TORSDOF 12
