REMARK  Name = ZINC11856034
REMARK  4 active torsions:
REMARK  status: ('A' for Active; 'I' for Inactive)
REMARK    1  A    between atoms: C_3  and  C_6
REMARK    2  A    between atoms: C_8  and  N_23
REMARK    3  A    between atoms: C_24  and  C_26
REMARK    4  A    between atoms: C_28  and  C_31
REMARK                            x       y       z     vdW  Elec       q    Type
REMARK                         _______ _______ _______ _____ _____    ______ ____
ROOT
ATOM      1  C   UNL     1      -3.356  -1.114   0.014  0.00  0.00    +0.102 A 
ATOM      2  C   UNL     1      -2.656  -2.340   0.004  0.00  0.00    +0.074 A 
ATOM      3  C   UNL     1      -1.328  -2.059  -0.007  0.00  0.00    +0.132 A 
ATOM      4  N   UNL     1      -1.191  -0.700   0.005  0.00  0.00    -0.185 N 
ATOM      5  N   UNL     1      -2.473  -0.136   0.015  0.00  0.00    -0.162 NA
ATOM      6  C   UNL     1       0.002  -0.004   0.002  0.00  0.00    +0.234 A 
ATOM      7  N   UNL     1      -0.016   1.355   0.009  0.00  0.00    -0.291 N 
ATOM      8  H   UNL     1      -0.861   1.833   0.016  0.00  0.00    +0.172 HD
ATOM      9  C   UNL     1       1.148   2.035   0.002  0.00  0.00    +0.256 A 
ATOM     10  O   UNL     1       1.152   3.255   0.010  0.00  0.00    -0.267 OA
ATOM     11  C   UNL     1       2.363   1.315  -0.015  0.00  0.00    +0.038 A 
ATOM     12  C   UNL     1       2.321  -0.041  -0.014  0.00  0.00    +0.053 A 
ATOM     13  N   UNL     1       1.136  -0.666  -0.009  0.00  0.00    -0.217 NA
ATOM     14  C   UNL     1       3.563  -0.893  -0.009  0.00  0.00    +0.056 C 
ATOM     15  C   UNL     1       4.776  -0.076  -0.449  0.00  0.00    +0.006 C 
ATOM     16  C   UNL     1       4.821   1.210   0.385  0.00  0.00    +0.005 C 
ATOM     17  C   UNL     1       3.649   2.095  -0.035  0.00  0.00    +0.042 C 
ENDROOT
BRANCH   1  20
ATOM     18  C   UNL     1      -6.943   0.094   0.040  0.00  0.00    +0.008 A 
ATOM     19  C   UNL     1      -5.569   0.194   0.034  0.00  0.00    +0.018 A 
ATOM     20  C   UNL     1      -4.825  -0.956   0.023  0.00  0.00    +0.039 A 
ATOM     21  S   UNL     1      -6.093  -2.213   0.014  0.00  0.00    -0.095 S 
ATOM     22  C   UNL     1      -7.517  -1.137   0.035  0.00  0.00    +0.046 A 
ENDBRANCH   1  20
BRANCH   3  23
ATOM     23  N   UNL     1      -0.292  -2.989  -0.024  0.00  0.00    -0.265 N 
ATOM     24  C   UNL     1      -0.571  -4.308  -0.034  0.00  0.00    +0.271 C 
ATOM     25  O   UNL     1      -1.726  -4.685  -0.029  0.00  0.00    -0.268 OA
ATOM     26  H   UNL     1       0.630  -2.688  -0.028  0.00  0.00    +0.157 HD
BRANCH  24  27
ATOM     27  C   UNL     1       0.532  -5.298  -0.052  0.00  0.00    +0.168 A 
ATOM     28  C   UNL     1       0.409  -6.716  -0.059  0.00  0.00    +0.081 A 
ATOM     29  C   UNL     1       1.689  -7.154  -0.079  0.00  0.00    +0.141 A 
ATOM     30  O   UNL     1       2.469  -6.064  -0.074  0.00  0.00    -0.359 OA
ATOM     31  N   UNL     1       1.818  -5.045  -0.059  0.00  0.00    -0.073 NA
BRANCH  29  32
ATOM     32  C   UNL     1       2.148  -8.589  -0.095  0.00  0.00    +0.058 C 
ATOM     33  C   UNL     1       3.643  -8.855   0.098  0.00  0.00    +0.012 C 
ATOM     34  C   UNL     1       3.003  -9.044  -1.280  0.00  0.00    +0.012 C 
ENDBRANCH  29  32
ENDBRANCH  24  27
ENDBRANCH   3  23
TORSDOF 4
