REMARK  Name = ZINC67614978
REMARK  11 active torsions:
REMARK  status: ('A' for Active; 'I' for Inactive)
REMARK    1  A    between atoms: C_1  and  C_2
REMARK    2  A    between atoms: C_2  and  C_4
REMARK    3  A    between atoms: C_2  and  N_11
REMARK    4  A    between atoms: C_8  and  O_10
REMARK    5  A    between atoms: N_11  and  C_12
REMARK    6  A    between atoms: N_15  and  C_16
REMARK    7  A    between atoms: C_16  and  C_17
REMARK    8  A    between atoms: C_21  and  N_23
REMARK    9  A    between atoms: C_24  and  C_26
REMARK   10  A    between atoms: C_26  and  C_27
REMARK   11  A    between atoms: C_26  and  C_28
REMARK                            x       y       z     vdW  Elec       q    Type
REMARK                         _______ _______ _______ _____ _____    ______ ____
ROOT
ATOM      1  N   UNL     1      -1.836  -0.317  -0.634  0.00  0.00    -0.282 N 
ATOM      2  C   UNL     1      -2.742  -0.051  -1.755  0.00  0.00    +0.134 C 
ATOM      3  C   UNL     1      -2.294  -0.946   0.467  0.00  0.00    +0.303 C 
ATOM      4  O   UNL     1      -1.542  -1.166   1.397  0.00  0.00    -0.253 OA
ATOM      5  N   UNL     1      -3.583  -1.330   0.537  0.00  0.00    -0.295 N 
ATOM      6  H   UNL     1      -4.183  -1.154  -0.205  0.00  0.00    +0.151 HD
ENDROOT
BRANCH   1   8
ATOM      7  C   UNL     1      -0.363   1.591  -1.047  0.00  0.00    +0.033 C 
ATOM      8  C   UNL     1      -0.434   0.101  -0.710  0.00  0.00    +0.104 C 
BRANCH   8   9
ATOM      9  C   UNL     1       0.268  -0.691  -1.783  0.00  0.00    -0.024 A 
ATOM     10  C   UNL     1       1.436  -1.370  -1.488  0.00  0.00    +0.006 A 
ATOM     11  C   UNL     1       2.083  -2.097  -2.470  0.00  0.00    +0.004 A 
ATOM     12  C   UNL     1       1.563  -2.146  -3.750  0.00  0.00    +0.045 A 
ATOM     13  C   UNL     1       0.392  -1.465  -4.048  0.00  0.00    +0.117 A 
ATOM     14  C   UNL     1      -0.258  -0.742  -3.059  0.00  0.00    +0.050 A 
BRANCH  13  15
ATOM     15  O   UNL     1      -0.120  -1.512  -5.306  0.00  0.00    -0.507 OA
ATOM     16  H   UNL     1      -0.740  -2.240  -5.452  0.00  0.00    +0.292 HD
ENDBRANCH  13  15
ENDBRANCH   8   9
ENDBRANCH   1   8
BRANCH   5  17
ATOM     17  C   UNL     1      -4.080  -2.013   1.734  0.00  0.00    +0.141 C 
BRANCH  17  18
ATOM     18  C   UNL     1      -5.543  -2.332   1.559  0.00  0.00    -0.029 A 
ATOM     19  C   UNL     1      -6.502  -1.419   1.958  0.00  0.00    +0.005 A 
ATOM     20  C   UNL     1      -7.845  -1.708   1.799  0.00  0.00    +0.002 A 
ATOM     21  C   UNL     1      -8.232  -2.910   1.241  0.00  0.00    +0.023 A 
ATOM     22  C   UNL     1      -7.272  -3.830   0.840  0.00  0.00    +0.034 A 
ATOM     23  C   UNL     1      -5.924  -3.534   0.996  0.00  0.00    +0.028 A 
BRANCH  22  24
ATOM     24  N   UNL     1      -7.662  -5.049   0.275  0.00  0.00    -0.285 N 
ATOM     25  C   UNL     1      -8.764  -5.112  -0.498  0.00  0.00    +0.220 C 
ATOM     26  O   UNL     1      -9.370  -4.098  -0.774  0.00  0.00    -0.275 OA
ATOM     27  H   UNL     1      -7.139  -5.849   0.440  0.00  0.00    +0.155 HD
BRANCH  25  28
ATOM     28  C   UNL     1      -9.243  -6.442  -1.021  0.00  0.00    +0.069 C 
ATOM     29  C   UNL     1     -10.502  -6.235  -1.865  0.00  0.00    +0.017 C 
ATOM     30  C   UNL     1      -8.149  -7.075  -1.884  0.00  0.00    +0.017 C 
ENDBRANCH  25  28
ENDBRANCH  22  24
ENDBRANCH  17  18
ENDBRANCH   5  17
TORSDOF 7
