REMARK  Name = ZINC07112128
REMARK  7 active torsions:
REMARK  status: ('A' for Active; 'I' for Inactive)
REMARK    1  A    between atoms: C_1  and  C_2
REMARK    2  A    between atoms: C_5  and  C_8
REMARK    3  A    between atoms: C_11  and  S_14
REMARK    4  A    between atoms: N_12  and  N_13
REMARK    5  A    between atoms: S_14  and  C_15
REMARK    6  A    between atoms: C_15  and  C_16
REMARK    7  A    between atoms: C_18  and  C_21
REMARK                            x       y       z     vdW  Elec       q    Type
REMARK                         _______ _______ _______ _____ _____    ______ ____
ROOT
ATOM      1  C   UNL     1       0.002  -0.004   0.002  0.00  0.00    +0.182 A 
ATOM      2  N   UNL     1       1.035  -0.772   0.262  0.00  0.00    -0.127 NA
ATOM      3  N   UNL     1       0.698  -2.008   0.164  0.00  0.00    -0.121 NA
ATOM      4  C   UNL     1      -0.571  -2.105  -0.164  0.00  0.00    +0.209 A 
ATOM      5  N   UNL     1      -1.060  -0.835  -0.273  0.00  0.00    -0.224 N 
ENDROOT
BRANCH   1  10
ATOM      6  C   UNL     1      -0.076   5.750   0.035  0.00  0.00    +0.044 C 
ATOM      7  C   UNL     1      -0.056   4.243   0.026  0.00  0.00    -0.050 A 
ATOM      8  C   UNL     1       1.154   3.571   0.010  0.00  0.00    +0.004 A 
ATOM      9  C   UNL     1       1.179   2.191   0.003  0.00  0.00    +0.012 A 
ATOM     10  C   UNL     1      -0.018   1.474   0.010  0.00  0.00    +0.021 A 
ATOM     11  C   UNL     1      -1.234   2.159   0.020  0.00  0.00    +0.012 A 
ATOM     12  C   UNL     1      -1.246   3.538   0.033  0.00  0.00    +0.004 A 
ENDBRANCH   1  10
BRANCH   5  13
ATOM     13  N   UNL     1      -2.336  -0.466  -0.592  0.00  0.00    -0.295 N 
ATOM     14  H   UNL     1      -2.443  -0.360  -1.590  0.00  0.00    +0.163 HD
ATOM     15  H   UNL     1      -3.005  -1.125  -0.224  0.00  0.00    +0.163 HD
ENDBRANCH   5  13
BRANCH   4  16
ATOM     16  S   UNL     1      -1.476  -3.598  -0.409  0.00  0.00    -0.075 S 
BRANCH  16  17
ATOM     17  C   UNL     1      -0.173  -4.812  -0.085  0.00  0.00    +0.176 C 
BRANCH  17  18
ATOM     18  C   UNL     1      -0.733  -6.202  -0.241  0.00  0.00    +0.238 A 
ATOM     19  N   UNL     1      -0.759  -6.911  -1.342  0.00  0.00    -0.191 NA
ATOM     20  C   UNL     1      -1.347  -8.082  -1.006  0.00  0.00    +0.203 A 
ATOM     21  N   UNL     1      -1.641  -8.015   0.266  0.00  0.00    -0.056 NA
ATOM     22  O   UNL     1      -1.290  -6.946   0.720  0.00  0.00    -0.337 OA
BRANCH  20  23
ATOM     23  C   UNL     1      -1.611  -9.226  -1.913  0.00  0.00    +0.041 A 
ATOM     24  C   UNL     1      -1.247  -9.154  -3.256  0.00  0.00    +0.013 A 
ATOM     25  C   UNL     1      -1.490 -10.223  -4.093  0.00  0.00    +0.001 A 
ATOM     26  C   UNL     1      -2.104 -11.363  -3.604  0.00  0.00    +0.001 A 
ATOM     27  C   UNL     1      -2.473 -11.440  -2.274  0.00  0.00    +0.021 A 
ATOM     28  C   UNL     1      -2.230 -10.377  -1.425  0.00  0.00    +0.052 A 
ATOM     29 CL   UNL     1      -2.694 -10.474   0.245  0.00  0.00    -0.083 Cl
ENDBRANCH  20  23
ENDBRANCH  17  18
ENDBRANCH  16  17
ENDBRANCH   4  16
TORSDOF 6
