REMARK  Name = ZINC46721806
REMARK  7 active torsions:
REMARK  status: ('A' for Active; 'I' for Inactive)
REMARK    1  A    between atoms: C_1  and  C_2
REMARK    2  A    between atoms: C_2  and  C_3
REMARK    3  A    between atoms: C_2  and  C_4
REMARK    4  A    between atoms: C_4  and  C_6
REMARK    5  A    between atoms: C_4  and  N_13
REMARK    6  A    between atoms: C_14  and  C_16
REMARK    7  A    between atoms: C_16  and  N_17
REMARK                            x       y       z     vdW  Elec       q    Type
REMARK                         _______ _______ _______ _____ _____    ______ ____
ROOT
ATOM      1  N   UNL     1       2.612  -0.173   1.238  0.00  0.00    -0.310 N 
ATOM      2  C   UNL     1       2.741   1.088   1.697  0.00  0.00    +0.197 C 
ATOM      3  O   UNL     1       1.753   1.742   1.958  0.00  0.00    -0.278 OA
ATOM      4  H   UNL     1       3.401  -0.696   1.029  0.00  0.00    +0.149 HD
ENDROOT
BRANCH   1   5
ATOM      5  C   UNL     1       1.279  -0.753   1.054  0.00  0.00    +0.106 C 
BRANCH   5   6
ATOM      6  C   UNL     1       1.368  -2.255   1.142  0.00  0.00    -0.027 A 
ATOM      7  C   UNL     1       2.437  -2.918   0.568  0.00  0.00    +0.008 A 
ATOM      8  C   UNL     1       2.520  -4.295   0.648  0.00  0.00    +0.038 A 
ATOM      9  C   UNL     1       1.532  -5.011   1.303  0.00  0.00    +0.123 A 
ATOM     10  C   UNL     1       0.462  -4.346   1.877  0.00  0.00    +0.038 A 
ATOM     11  C   UNL     1       0.384  -2.968   1.801  0.00  0.00    +0.008 A 
ATOM     12  F   UNL     1       1.613  -6.357   1.381  0.00  0.00    -0.205 F 
ENDBRANCH   5   6
BRANCH   5  14
ATOM     13  C   UNL     1       0.643   1.171  -0.407  0.00  0.00    +0.009 C 
ATOM     14  C   UNL     1       0.733  -0.353  -0.318  0.00  0.00    +0.008 C 
ATOM     15  C   UNL     1       1.670  -0.873  -1.410  0.00  0.00    +0.009 C 
ENDBRANCH   5  14
ENDBRANCH   1   5
BRANCH   2  16
ATOM     16  C   UNL     1       4.112   1.684   1.886  0.00  0.00    +0.019 C 
BRANCH  16  17
ATOM     17  N   UNL     1       3.983   3.057   2.392  0.00  0.00    +0.387 N 
ATOM     18  C   UNL     1       3.322   3.890   1.379  0.00  0.00    -0.059 C 
ATOM     19  C   UNL     1       3.083   5.292   1.949  0.00  0.00    +0.088 C 
ATOM     20  N   UNL     1       4.368   5.825   2.429  0.00  0.00    -0.319 N 
ATOM     21  C   UNL     1       5.177   4.983   3.323  0.00  0.00    +0.088 C 
ATOM     22  C   UNL     1       5.317   3.595   2.688  0.00  0.00    -0.059 C 
ATOM     23  C   UNL     1       4.805   7.089   2.048  0.00  0.00    +0.121 A 
ATOM     24  C   UNL     1       3.934   7.949   1.385  0.00  0.00    +0.045 A 
ATOM     25  C   UNL     1       4.382   9.203   1.012  0.00  0.00    +0.020 A 
ATOM     26  C   UNL     1       5.691   9.557   1.315  0.00  0.00    +0.036 A 
ATOM     27  C   UNL     1       6.500   8.653   1.974  0.00  0.00    +0.128 A 
ATOM     28  N   UNL     1       6.044   7.465   2.323  0.00  0.00    -0.239 NA
ATOM     29 BR   UNL     1       6.357  11.258   0.828  0.00  0.00    -0.049 Br
ATOM     30  H   UNL     1       3.428   3.053   3.235  0.00  0.00    -0.081 HD
ENDBRANCH  16  17
ENDBRANCH   2  16
TORSDOF 5
