REMARK  Name = ZINC64653791
REMARK  6 active torsions:
REMARK  status: ('A' for Active; 'I' for Inactive)
REMARK    1  A    between atoms: C_5  and  C_7
REMARK    2  A    between atoms: C_7  and  N_8
REMARK    3  A    between atoms: C_15  and  C_21
REMARK    4  A    between atoms: N_23  and  C_24
REMARK    5  A    between atoms: C_24  and  C_25
REMARK    6  A    between atoms: C_25  and  C_26
REMARK                            x       y       z     vdW  Elec       q    Type
REMARK                         _______ _______ _______ _____ _____    ______ ____
ROOT
ATOM      1  N   UNL     1       1.606  -2.677   1.306  0.00  0.00    -0.247 N 
ATOM      2  C   UNL     1       2.919  -2.780   1.627  0.00  0.00    +0.234 C 
ATOM      3  O   UNL     1       3.797  -2.497   0.839  0.00  0.00    -0.274 OA
ATOM      4  C   UNL     1       3.225  -3.269   3.025  0.00  0.00    +0.144 C 
ATOM      5  C   UNL     1       4.322  -4.282   2.977  0.00  0.00    -0.008 C 
ATOM      6  C   UNL     1       4.462  -5.201   3.931  0.00  0.00    +0.010 C 
ATOM      7  C   UNL     1       3.506  -5.292   5.043  0.00  0.00    +0.038 C 
ATOM      8  C   UNL     1       2.303  -4.619   4.949  0.00  0.00    +0.035 C 
ATOM      9  C   UNL     1       2.068  -3.841   3.807  0.00  0.00    +0.049 C 
ATOM     10  N   UNL     1       0.855  -3.635   3.345  0.00  0.00    -0.196 NA
ATOM     11  C   UNL     1       0.646  -3.010   2.179  0.00  0.00    +0.163 C 
ATOM     12  S   UNL     1      -0.969  -2.630   1.760  0.00  0.00    -0.016 S 
ENDROOT
BRANCH   7  13
ATOM     13  C   UNL     1       3.828  -6.093   6.246  0.00  0.00    +0.244 C 
ATOM     14  O   UNL     1       3.030  -6.162   7.161  0.00  0.00    -0.270 OA
ATOM     15  N   UNL     1       5.004  -6.745   6.327  0.00  0.00    -0.311 N 
ATOM     16  H   UNL     1       5.641  -6.690   5.597  0.00  0.00    +0.149 HD
BRANCH  15  17
ATOM     17  C   UNL     1       5.322  -7.538   7.518  0.00  0.00    +0.109 C 
BRANCH  17  18
ATOM     18  C   UNL     1       6.706  -8.169   7.356  0.00  0.00    +0.052 C 
BRANCH  18  19
ATOM     19  C   UNL     1       7.033  -8.984   8.580  0.00  0.00    -0.040 C 
ATOM     20  C   UNL     1       6.849 -10.314   8.745  0.00  0.00    -0.001 A 
ATOM     21  C   UNL     1       6.309 -11.359   7.867  0.00  0.00    +0.010 A 
ATOM     22  C   UNL     1       6.249 -12.632   8.322  0.00  0.00    +0.001 A 
ATOM     23  C   UNL     1       6.688 -12.976   9.608  0.00  0.00    +0.002 A 
ATOM     24  C   UNL     1       7.196 -12.071  10.472  0.00  0.00    +0.026 A 
ATOM     25  C   UNL     1       7.306 -10.704  10.098  0.00  0.00    +0.043 A 
ATOM     26  N   UNL     1       7.756  -9.655  10.745  0.00  0.00    -0.380 N 
ATOM     27  C   UNL     1       7.640  -8.482   9.871  0.00  0.00    +0.144 C 
ATOM     28  H   UNL     1       8.109  -9.656  11.648  0.00  0.00    +0.160 HD
ENDBRANCH  18  19
ENDBRANCH  17  18
ENDBRANCH  15  17
ENDBRANCH   7  13
BRANCH   1  29
ATOM     29  C   UNL     1       1.229  -2.186  -0.022  0.00  0.00    +0.152 C 
BRANCH  29  34
ATOM     30  C   UNL     1      -0.651   1.074   0.283  0.00  0.00    +0.000 A 
ATOM     31  C   UNL     1       0.376   1.995   0.194  0.00  0.00    +0.001 A 
ATOM     32  C   UNL     1       1.679   1.564   0.035  0.00  0.00    +0.020 A 
ATOM     33  C   UNL     1       1.956   0.210  -0.034  0.00  0.00    +0.046 A 
ATOM     34  C   UNL     1       0.928  -0.711   0.055  0.00  0.00    -0.011 A 
ATOM     35  C   UNL     1      -0.375  -0.279   0.213  0.00  0.00    +0.006 A 
ATOM     36 CL   UNL     1       3.593  -0.333  -0.234  0.00  0.00    -0.083 Cl
ENDBRANCH  29  34
ENDBRANCH   1  29
TORSDOF 6
