REMARK  Name = ZINC61713099
REMARK  4 active torsions:
REMARK  status: ('A' for Active; 'I' for Inactive)
REMARK    1  A    between atoms: C_1  and  C_2
REMARK    2  A    between atoms: C_7  and  C_9
REMARK    3  A    between atoms: C_7  and  N_12
REMARK    4  A    between atoms: C_18  and  O_21
REMARK                            x       y       z     vdW  Elec       q    Type
REMARK                         _______ _______ _______ _____ _____    ______ ____
ROOT
ATOM      1  N   UNL     1       0.224   1.450   2.497  0.00  0.00    -0.283 N 
ATOM      2  C   UNL     1       1.362   2.141   2.287  0.00  0.00    +0.303 C 
ATOM      3  O   UNL     1       2.405   1.548   2.091  0.00  0.00    -0.253 OA
ATOM      4  N   UNL     1       1.344   3.489   2.294  0.00  0.00    -0.283 N 
ATOM      5  C   UNL     1       0.159   4.328   2.524  0.00  0.00    +0.112 C 
ATOM      6  C   UNL     1       0.622   5.799   2.468  0.00  0.00    +0.052 C 
ATOM      7  C   UNL     1       2.140   5.697   2.773  0.00  0.00    +0.133 C 
ATOM      8  C   UNL     1       2.510   4.365   2.080  0.00  0.00    +0.140 C 
ATOM      9  H   UNL     1      -0.609   1.923   2.653  0.00  0.00    +0.151 HD
ENDROOT
BRANCH   1  15
ATOM     10  C   UNL     1      -0.274   1.522   0.049  0.00  0.00    +0.007 C 
ATOM     11  C   UNL     1      -0.254  -0.008   0.040  0.00  0.00    -0.012 C 
ATOM     12  C   UNL     1      -1.660  -0.538   0.325  0.00  0.00    +0.003 C 
ATOM     13  C   UNL     1      -2.125  -0.042   1.695  0.00  0.00    +0.003 C 
ATOM     14  C   UNL     1      -1.163  -0.545   2.773  0.00  0.00    +0.037 C 
ATOM     15  C   UNL     1       0.244  -0.015   2.489  0.00  0.00    +0.137 C 
ATOM     16  C   UNL     1       0.709  -0.511   1.118  0.00  0.00    +0.040 C 
BRANCH  15  17
ATOM     17  C   UNL     1       1.191  -0.510   3.550  0.00  0.00    +0.379 C 
ATOM     18  O   UNL     1       1.355  -1.707   3.711  0.00  0.00    -0.244 OA
ATOM     19  O   UNL     1       1.794   0.287   4.249  0.00  0.00    -0.244 OA
ENDBRANCH  15  17
ENDBRANCH   1  15
BRANCH   7  20
ATOM     20  O   UNL     1       2.853   6.793   2.196  0.00  0.00    -0.390 OA
ATOM     21  H   UNL     1       3.805   6.773   2.360  0.00  0.00    +0.210 HD
ENDBRANCH   7  20
TORSDOF 3
