REMARK  Name = ZINC44855339
REMARK  7 active torsions:
REMARK  status: ('A' for Active; 'I' for Inactive)
REMARK    1  A    between atoms: C_1  and  C_2
REMARK    2  A    between atoms: C_9  and  C_32
REMARK    3  A    between atoms: C_9  and  C_33
REMARK    4  A    between atoms: C_11  and  N_13
REMARK    5  A    between atoms: C_14  and  C_16
REMARK    6  A    between atoms: N_21  and  C_23
REMARK    7  A    between atoms: C_23  and  C_24
REMARK                            x       y       z     vdW  Elec       q    Type
REMARK                         _______ _______ _______ _____ _____    ______ ____
ROOT
ATOM      1  N   UNL     1       0.836  -5.447  -1.040  0.00  0.00    -0.308 N 
ATOM      2  C   UNL     1       0.445  -5.373  -2.328  0.00  0.00    +0.215 C 
ATOM      3  O   UNL     1      -0.682  -5.018  -2.601  0.00  0.00    -0.276 OA
ATOM      4  H   UNL     1       1.737  -5.731  -0.822  0.00  0.00    +0.149 HD
ENDROOT
BRANCH   1  15
ATOM      5  C   UNL     1      -0.003   0.638   0.786  0.00  0.00    +0.044 C 
ATOM      6  C   UNL     1      -0.026  -0.857   0.599  0.00  0.00    -0.047 A 
ATOM      7  C   UNL     1      -0.010  -1.396  -0.674  0.00  0.00    +0.004 A 
ATOM      8  C   UNL     1      -0.033  -2.767  -0.844  0.00  0.00    +0.009 A 
ATOM      9  C   UNL     1      -0.072  -3.607   0.256  0.00  0.00    +0.015 A 
ATOM     10  C   UNL     1      -0.085  -3.071   1.532  0.00  0.00    +0.126 A 
ATOM     11  C   UNL     1      -0.058  -1.690   1.699  0.00  0.00    +0.049 A 
ATOM     12  O   UNL     1      -0.112  -3.858   2.639  0.00  0.00    -0.486 OA
ATOM     13  C   UNL     1      -0.501  -5.223   2.479  0.00  0.00    +0.107 C 
ATOM     14  C   UNL     1       0.302  -5.822   1.317  0.00  0.00    +0.074 C 
ATOM     15  C   UNL     1      -0.102  -5.097   0.030  0.00  0.00    +0.110 C 
ATOM     16  C   UNL     1      -1.996  -5.298   2.165  0.00  0.00    +0.055 C 
ATOM     17  C   UNL     1      -0.203  -5.997   3.764  0.00  0.00    +0.055 C 
ENDBRANCH   1  15
BRANCH   2  18
ATOM     18  C   UNL     1       1.409  -5.733  -3.429  0.00  0.00    +0.058 C 
ATOM     19  C   UNL     1       1.856  -7.188  -3.263  0.00  0.00    +0.009 C 
ATOM     20  C   UNL     1       2.773  -7.567  -4.429  0.00  0.00    -0.018 C 
ATOM     21  C   UNL     1       2.033  -7.335  -5.749  0.00  0.00    -0.078 C 
ATOM     22  N   UNL     1       1.656  -5.921  -5.860  0.00  0.00    +0.383 N 
ATOM     23  C   UNL     1       0.720  -5.568  -4.786  0.00  0.00    -0.066 C 
ATOM     24  H   UNL     1       2.482  -5.346  -5.786  0.00  0.00    -0.081 HD
BRANCH  22  25
ATOM     25  C   UNL     1       1.016  -5.687  -7.161  0.00  0.00    -0.042 C 
BRANCH  25  26
ATOM     26  C   UNL     1       2.023  -5.900  -8.262  0.00  0.00    -0.046 A 
ATOM     27  C   UNL     1       2.003  -7.069  -9.000  0.00  0.00    +0.004 A 
ATOM     28  C   UNL     1       2.926  -7.265 -10.010  0.00  0.00    +0.020 A 
ATOM     29  C   UNL     1       3.871  -6.291 -10.283  0.00  0.00    +0.042 A 
ATOM     30  C   UNL     1       3.890  -5.121  -9.545  0.00  0.00    +0.040 A 
ATOM     31  C   UNL     1       2.963  -4.923  -8.537  0.00  0.00    +0.044 A 
ATOM     32 CL   UNL     1       2.983  -3.453  -7.615  0.00  0.00    -0.083 Cl
ATOM     33 CL   UNL     1       5.030  -6.537 -11.551  0.00  0.00    -0.083 Cl
ENDBRANCH  25  26
ENDBRANCH  22  25
ENDBRANCH   2  18
TORSDOF 4
