REMARK  Name = ZINC63794379
REMARK  8 active torsions:
REMARK  status: ('A' for Active; 'I' for Inactive)
REMARK    1  A    between atoms: C_1  and  N_2
REMARK    2  A    between atoms: C_6  and  S_7
REMARK    3  A    between atoms: S_7  and  C_8
REMARK    4  A    between atoms: C_8  and  C_9
REMARK    5  A    between atoms: N_11  and  C_12
REMARK    6  A    between atoms: C_12  and  C_13
REMARK    7  A    between atoms: C_13  and  C_15
REMARK    8  A    between atoms: C_13  and  C_23
REMARK                            x       y       z     vdW  Elec       q    Type
REMARK                         _______ _______ _______ _____ _____    ______ ____
ROOT
ATOM      1  C   UNL     1       8.472  -3.203  -0.101  0.00  0.00    +0.066 C 
ENDROOT
BRANCH   1   2
ATOM      2  C   UNL     1       9.928  -2.828   0.009  0.00  0.00    -0.033 C 
ATOM      3  C   UNL     1      10.793  -3.203   0.979  0.00  0.00    -0.000 A 
ATOM      4  C   UNL     1      10.643  -4.039   2.176  0.00  0.00    +0.010 A 
ATOM      5  C   UNL     1      11.715  -4.238   2.977  0.00  0.00    +0.001 A 
ATOM      6  C   UNL     1      12.962  -3.666   2.692  0.00  0.00    +0.002 A 
ATOM      7  C   UNL     1      13.178  -2.887   1.612  0.00  0.00    +0.026 A 
ATOM      8  C   UNL     1      12.121  -2.612   0.701  0.00  0.00    +0.043 A 
ATOM      9  N   UNL     1      12.079  -1.898  -0.398  0.00  0.00    -0.380 N 
ATOM     10  C   UNL     1      10.719  -1.962  -0.945  0.00  0.00    +0.145 C 
ATOM     11  H   UNL     1      12.823  -1.413  -0.787  0.00  0.00    +0.160 HD
ENDBRANCH   1   2
BRANCH   1  12
ATOM     12  C   UNL     1       8.242  -3.949  -1.390  0.00  0.00    -0.020 A 
ATOM     13  C   UNL     1       8.529  -3.343  -2.600  0.00  0.00    +0.007 A 
ATOM     14  C   UNL     1       8.318  -4.027  -3.782  0.00  0.00    +0.020 A 
ATOM     15  C   UNL     1       7.820  -5.318  -3.756  0.00  0.00    +0.042 A 
ATOM     16  C   UNL     1       7.533  -5.924  -2.546  0.00  0.00    +0.040 A 
ATOM     17  C   UNL     1       7.749  -5.241  -1.363  0.00  0.00    +0.046 A 
ATOM     18 CL   UNL     1       7.395  -6.003   0.156  0.00  0.00    -0.083 Cl
ATOM     19 CL   UNL     1       7.555  -6.176  -5.242  0.00  0.00    -0.083 Cl
ENDBRANCH   1  12
BRANCH   1  20
ATOM     20  C   UNL     1       7.617  -1.934  -0.086  0.00  0.00    +0.116 C 
BRANCH  20  23
ATOM     21  C   UNL     1       5.254  -1.341  -0.059  0.00  0.00    +0.223 C 
ATOM     22  O   UNL     1       5.577  -0.172  -0.057  0.00  0.00    -0.275 OA
ATOM     23  N   UNL     1       6.199  -2.302  -0.073  0.00  0.00    -0.314 N 
ATOM     24  H   UNL     1       5.940  -3.237  -0.075  0.00  0.00    +0.149 HD
BRANCH  21  25
ATOM     25  C   UNL     1       3.795  -1.719  -0.046  0.00  0.00    +0.172 C 
BRANCH  25  26
ATOM     26  S   UNL     1       2.781  -0.215  -0.028  0.00  0.00    -0.080 S 
BRANCH  26  32
ATOM     27  C   UNL     1      -0.018   1.461   0.010  0.00  0.00    +0.133 C 
ATOM     28  N   UNL     1       0.002  -0.004   0.002  0.00  0.00    -0.295 N 
ATOM     29  C   UNL     1      -1.166  -0.900   0.002  0.00  0.00    +0.230 C 
ATOM     30  N   UNL     1      -0.577  -2.250  -0.008  0.00  0.00    -0.249 N 
ATOM     31  N   UNL     1       0.811  -2.069  -0.013  0.00  0.00    -0.163 NA
ATOM     32  C   UNL     1       1.125  -0.818  -0.014  0.00  0.00    +0.175 C 
ATOM     33  H   UNL     1      -1.054  -3.095  -0.010  0.00  0.00    +0.170 HD
ENDBRANCH  26  32
ENDBRANCH  25  26
ENDBRANCH  21  25
ENDBRANCH  20  23
ENDBRANCH   1  20
TORSDOF 7
