REMARK  Name = ZINC67365941
REMARK  6 active torsions:
REMARK  status: ('A' for Active; 'I' for Inactive)
REMARK    1  A    between atoms: C_1  and  C_2
REMARK    2  A    between atoms: N_4  and  C_5
REMARK    3  A    between atoms: C_5  and  C_6
REMARK    4  A    between atoms: C_13  and  C_15
REMARK    5  A    between atoms: C_15  and  N_16
REMARK    6  A    between atoms: C_17  and  C_19
REMARK                            x       y       z     vdW  Elec       q    Type
REMARK                         _______ _______ _______ _____ _____    ______ ____
ROOT
ATOM      1  C   UNL     1      -7.065  -2.822  -1.551  0.00  0.00    +0.200 C 
ENDROOT
BRANCH   1   8
ATOM      2  C   UNL     1      -2.571  -2.688   0.012  0.00  0.00    +0.024 C 
ATOM      3  C   UNL     1      -2.552  -4.214   0.128  0.00  0.00    +0.008 C 
ATOM      4  C   UNL     1      -3.988  -4.742   0.172  0.00  0.00    +0.019 C 
ATOM      5  C   UNL     1      -4.706  -4.365  -1.127  0.00  0.00    +0.108 C 
ATOM      6  N   UNL     1      -4.604  -2.912  -1.320  0.00  0.00    -0.300 N 
ATOM      7  C   UNL     1      -3.274  -2.287  -1.288  0.00  0.00    +0.112 C 
ATOM      8  C   UNL     1      -5.708  -2.166  -1.522  0.00  0.00    +0.233 C 
ATOM      9  O   UNL     1      -5.610  -0.968  -1.679  0.00  0.00    -0.274 OA
BRANCH   2  10
ATOM     10  C   UNL     1      -1.136  -2.159   0.001  0.00  0.00    +0.109 C 
BRANCH  10  14
ATOM     11  C   UNL     1      -0.018   1.503   0.010  0.00  0.00    +0.109 C 
ATOM     12  C   UNL     1       0.002  -0.004   0.002  0.00  0.00    +0.210 C 
ATOM     13  O   UNL     1       1.060  -0.596  -0.011  0.00  0.00    -0.276 OA
ATOM     14  N   UNL     1      -1.156  -0.694   0.009  0.00  0.00    -0.315 N 
ATOM     15  H   UNL     1      -2.002  -0.220   0.020  0.00  0.00    +0.149 HD
ENDBRANCH  10  14
ENDBRANCH   2  10
ENDBRANCH   1   8
BRANCH   1  16
ATOM     16  N   UNL     1      -8.093  -1.805  -1.784  0.00  0.00    -0.306 N 
ATOM     17  C   UNL     1      -9.391  -2.162  -1.849  0.00  0.00    +0.220 C 
ATOM     18  O   UNL     1      -9.708  -3.325  -1.716  0.00  0.00    -0.275 OA
ATOM     19  H   UNL     1      -7.840  -0.875  -1.890  0.00  0.00    +0.149 HD
BRANCH  17  20
ATOM     20  C   UNL     1     -10.449  -1.116  -2.089  0.00  0.00    +0.048 C 
ATOM     21  C   UNL     1     -10.407  -0.081  -0.963  0.00  0.00    +0.019 C 
ATOM     22  C   UNL     1     -11.481   0.981  -1.205  0.00  0.00    -0.009 C 
ATOM     23  C   UNL     1     -12.859   0.316  -1.235  0.00  0.00    +0.007 C 
ATOM     24  C   UNL     1     -12.901  -0.719  -2.362  0.00  0.00    -0.009 C 
ATOM     25  C   UNL     1     -11.827  -1.781  -2.119  0.00  0.00    +0.019 C 
ATOM     26  C   UNL     1     -12.640  -0.026  -3.701  0.00  0.00    +0.007 C 
ATOM     27  C   UNL     1     -11.262   0.639  -3.671  0.00  0.00    -0.009 C 
ATOM     28  C   UNL     1     -11.220   1.674  -2.544  0.00  0.00    +0.007 C 
ATOM     29  C   UNL     1     -10.188  -0.423  -3.428  0.00  0.00    +0.019 C 
ENDBRANCH  17  20
ENDBRANCH   1  16
TORSDOF 5
