REMARK  Name = ZINC04494455
REMARK  11 active torsions:
REMARK  status: ('A' for Active; 'I' for Inactive)
REMARK    1  A    between atoms: C_1  and  C_2
REMARK    2  A    between atoms: C_2  and  C_3
REMARK    3  A    between atoms: C_3  and  C_5
REMARK    4  A    between atoms: C_3  and  N_58
REMARK    5  A    between atoms: C_8  and  S_17
REMARK    6  A    between atoms: N_9  and  C_10
REMARK    7  A    between atoms: C_10  and  C_11
REMARK    8  A    between atoms: S_17  and  C_18
REMARK    9  A    between atoms: C_18  and  C_19
REMARK   10  A    between atoms: C_29  and  N_58
REMARK   11  A    between atoms: C_30  and  N_58
REMARK                            x       y       z     vdW  Elec       q    Type
REMARK                         _______ _______ _______ _____ _____    ______ ____
ROOT
ATOM      1  C   UNL     1      -6.512   6.524  -2.144  0.00  0.00    +0.121 A 
ATOM      2  N   UNL     1      -5.914   6.112  -1.062  0.00  0.00    -0.135 NA
ATOM      3  N   UNL     1      -4.668   5.904  -1.299  0.00  0.00    -0.123 NA
ATOM      4  C   UNL     1      -4.400   6.183  -2.554  0.00  0.00    +0.192 A 
ATOM      5  N   UNL     1      -5.569   6.585  -3.133  0.00  0.00    -0.303 N 
ENDROOT
BRANCH   1   6
ATOM      6  C   UNL     1      -7.973   6.871  -2.280  0.00  0.00    +0.000 C 
BRANCH   6   9
ATOM      7  C   UNL     1      -7.524   8.869  -0.989  0.00  0.00    -0.096 C 
ATOM      8  C   UNL     1      -9.799   8.087  -1.257  0.00  0.00    -0.096 C 
ATOM      9  N   UNL     1      -8.387   7.676  -1.112  0.00  0.00    +0.383 N 
ATOM     10  H   UNL     1      -8.291   7.106  -0.263  0.00  0.00    -0.082 HD
ENDBRANCH   6   9
BRANCH   6  12
ATOM     11  C   UNL     1      -8.596   4.812  -1.009  0.00  0.00    +0.002 C 
ATOM     12  C   UNL     1      -8.801   5.585  -2.314  0.00  0.00    -0.011 C 
ENDBRANCH   6  12
ENDBRANCH   1   6
BRANCH   5  13
ATOM     13  C   UNL     1      -5.772   6.995  -4.524  0.00  0.00    +0.160 C 
BRANCH  13  14
ATOM     14  C   UNL     1      -6.128   5.790  -5.357  0.00  0.00    -0.028 A 
ATOM     15  C   UNL     1      -5.130   5.053  -5.967  0.00  0.00    +0.005 A 
ATOM     16  C   UNL     1      -5.455   3.945  -6.727  0.00  0.00    +0.000 A 
ATOM     17  C   UNL     1      -6.779   3.579  -6.884  0.00  0.00    +0.000 A 
ATOM     18  C   UNL     1      -7.777   4.319  -6.277  0.00  0.00    +0.000 A 
ATOM     19  C   UNL     1      -7.451   5.424  -5.514  0.00  0.00    +0.005 A 
ENDBRANCH  13  14
ENDBRANCH   5  13
BRANCH   4  20
ATOM     20  S   UNL     1      -2.830   6.057  -3.343  0.00  0.00    -0.081 S 
BRANCH  20  21
ATOM     21  C   UNL     1      -1.825   5.477  -1.953  0.00  0.00    +0.113 C 
BRANCH  21  22
ATOM     22  C   UNL     1      -0.400   5.293  -2.406  0.00  0.00    -0.029 A 
ATOM     23  C   UNL     1       0.008   4.096  -2.911  0.00  0.00    +0.005 A 
ATOM     24  C   UNL     1       1.323   3.906  -3.330  0.00  0.00    +0.001 A 
ATOM     25  C   UNL     1       2.236   4.914  -3.257  0.00  0.00    +0.008 A 
ATOM     26  C   UNL     1       1.850   6.165  -2.747  0.00  0.00    -0.018 A 
ATOM     27  C   UNL     1       0.513   6.357  -2.315  0.00  0.00    -0.014 A 
ATOM     28  C   UNL     1       0.127   7.609  -1.806  0.00  0.00    +0.009 A 
ATOM     29  C   UNL     1       1.039   8.616  -1.733  0.00  0.00    +0.001 A 
ATOM     30  C   UNL     1       2.353   8.427  -2.157  0.00  0.00    +0.001 A 
ATOM     31  C   UNL     1       2.763   7.229  -2.656  0.00  0.00    +0.008 A 
ENDBRANCH  21  22
ENDBRANCH  20  21
ENDBRANCH   4  20
TORSDOF 8
