REMARK  Name = ZINC66660796
REMARK  6 active torsions:
REMARK  status: ('A' for Active; 'I' for Inactive)
REMARK    1  A    between atoms: C_1  and  C_2
REMARK    2  A    between atoms: C_2  and  C_4
REMARK    3  A    between atoms: C_2  and  N_7
REMARK    4  A    between atoms: C_8  and  N_12
REMARK    5  A    between atoms: C_13  and  C_15
REMARK    6  A    between atoms: C_22  and  N_25
REMARK                            x       y       z     vdW  Elec       q    Type
REMARK                         _______ _______ _______ _____ _____    ______ ____
ROOT
ATOM      1  N   UNL     1      -1.285  -1.777   2.108  0.00  0.00    -0.266 N 
ATOM      2  C   UNL     1      -1.956  -2.559   2.976  0.00  0.00    +0.251 C 
ATOM      3  O   UNL     1      -3.118  -2.849   2.761  0.00  0.00    -0.270 OA
ATOM      4  H   UNL     1      -0.359  -1.546   2.279  0.00  0.00    +0.157 HD
ENDROOT
BRANCH   2   5
ATOM      5  C   UNL     1      -1.285  -3.062   4.182  0.00  0.00    +0.062 A 
ATOM      6  C   UNL     1       0.003  -2.819   4.561  0.00  0.00    +0.096 A 
ATOM      7  N   UNL     1       0.263  -3.451   5.731  0.00  0.00    -0.360 N 
ATOM      8  H   UNL     1       1.114  -3.424   6.197  0.00  0.00    +0.165 HD
ATOM      9  C   UNL     1      -0.852  -4.136   6.167  0.00  0.00    +0.047 A 
ATOM     10  C   UNL     1      -1.872  -3.922   5.226  0.00  0.00    +0.014 A 
ATOM     11  C   UNL     1      -3.127  -4.496   5.413  0.00  0.00    +0.043 A 
ATOM     12  C   UNL     1      -3.362  -5.272   6.527  0.00  0.00    +0.127 A 
ATOM     13  C   UNL     1      -2.357  -5.482   7.460  0.00  0.00    +0.035 A 
ATOM     14  C   UNL     1      -1.108  -4.925   7.283  0.00  0.00    +0.028 A 
BRANCH  12  15
ATOM     15  N   UNL     1      -4.694  -5.885   6.730  0.00  0.00    +0.056 N 
ATOM     16  O   UNL     1      -5.573  -5.704   5.920  0.00  0.00    -0.126 OA
ATOM     17  O   UNL     1      -4.904  -6.566   7.707  0.00  0.00    -0.126 OA
ENDBRANCH  12  15
ENDBRANCH   2   5
BRANCH   1  19
ATOM     18  N   UNL     1      -1.372  -0.511   0.012  0.00  0.00    -0.247 N 
ATOM     19  C   UNL     1      -1.922  -1.300   0.963  0.00  0.00    +0.124 A 
ATOM     20  C   UNL     1      -3.211  -1.545   0.600  0.00  0.00    +0.065 A 
ATOM     21  C   UNL     1      -3.447  -0.883  -0.609  0.00  0.00    +0.136 A 
ATOM     22  N   UNL     1      -2.351  -0.260  -0.958  0.00  0.00    -0.178 NA
BRANCH  18  24
ATOM     23  C   UNL     1      -0.019   1.526   0.010  0.00  0.00    +0.033 C 
ATOM     24  C   UNL     1       0.002  -0.004   0.002  0.00  0.00    +0.109 C 
BRANCH  24  25
ATOM     25  C   UNL     1       0.718  -0.497  -1.257  0.00  0.00    +0.013 C 
ATOM     26  C   UNL     1       1.844  -1.518  -1.075  0.00  0.00    +0.006 C 
ATOM     27  C   UNL     1       2.175  -0.072  -1.454  0.00  0.00    +0.006 C 
ENDBRANCH  24  25
ENDBRANCH  18  24
ENDBRANCH   1  19
TORSDOF 5
