REMARK  Name = ZINC13981212
REMARK  9 active torsions:
REMARK  status: ('A' for Active; 'I' for Inactive)
REMARK    1  A    between atoms: C_1  and  C_2
REMARK    2  A    between atoms: C_6  and  C_25
REMARK    3  A    between atoms: C_7  and  O_8
REMARK    4  A    between atoms: O_8  and  C_9
REMARK    5  A    between atoms: C_9  and  C_10
REMARK    6  A    between atoms: N_12  and  N_13
REMARK    7  A    between atoms: N_13  and  C_14
REMARK    8  A    between atoms: C_14  and  N_16
REMARK    9  A    between atoms: C_17  and  C_19
REMARK                            x       y       z     vdW  Elec       q    Type
REMARK                         _______ _______ _______ _____ _____    ______ ____
ROOT
ATOM      1  C   UNL     1       7.068   4.235  -0.043  0.00  0.00    +0.267 C 
ATOM      2  O   UNL     1       7.452   5.386  -0.040  0.00  0.00    -0.271 OA
ATOM      3  N   UNL     1       5.747   3.966  -0.032  0.00  0.00    -0.232 N 
ATOM      4  H   UNL     1       5.440   3.046  -0.034  0.00  0.00    +0.173 HD
ENDROOT
BRANCH   3   5
ATOM      5  N   UNL     1       4.819   5.015  -0.017  0.00  0.00    -0.245 N 
ATOM      6  H   UNL     1       5.126   5.935  -0.015  0.00  0.00    +0.172 HD
BRANCH   5   7
ATOM      7  C   UNL     1       3.498   4.746  -0.006  0.00  0.00    +0.153 C 
ATOM      8  S   UNL     1       2.364   6.027   0.012  0.00  0.00    -0.017 S 
BRANCH   7   9
ATOM      9  N   UNL     1       3.071   3.467  -0.009  0.00  0.00    -0.260 N 
ATOM     10  C   UNL     1       1.751   3.198   0.003  0.00  0.00    +0.285 C 
ATOM     11  O   UNL     1       0.944   4.109   0.015  0.00  0.00    -0.266 OA
ATOM     12  H   UNL     1       3.714   2.741  -0.019  0.00  0.00    +0.157 HD
BRANCH  10  13
ATOM     13  C   UNL     1       1.286   1.809  -0.001  0.00  0.00    +0.191 A 
ATOM     14  C   UNL     1      -0.017   1.398   0.010  0.00  0.00    +0.056 A 
ATOM     15  C   UNL     1       0.002  -0.004   0.002  0.00  0.00    +0.058 A 
ATOM     16  C   UNL     1       1.301  -0.385  -0.012  0.00  0.00    +0.171 A 
ATOM     17  O   UNL     1       2.071   0.711  -0.014  0.00  0.00    -0.444 OA
ATOM     18 BR   UNL     1       1.925  -2.170  -0.028  0.00  0.00    -0.008 Br
ENDBRANCH  10  13
ENDBRANCH   7   9
ENDBRANCH   5   7
ENDBRANCH   3   5
BRANCH   1  19
ATOM     19  C   UNL     1       8.067   3.107  -0.058  0.00  0.00    +0.326 C 
BRANCH  19  20
ATOM     20  O   UNL     1       9.391   3.643  -0.068  0.00  0.00    -0.482 OA
BRANCH  20  27
ATOM     21  C   UNL     1      10.407   2.786   2.425  0.00  0.00    +0.047 C 
ATOM     22  C   UNL     1      10.958   2.295   1.111  0.00  0.00    -0.009 A 
ATOM     23  C   UNL     1      11.998   1.386   1.093  0.00  0.00    +0.007 A 
ATOM     24  C   UNL     1      12.507   0.940  -0.112  0.00  0.00    +0.001 A 
ATOM     25  C   UNL     1      11.974   1.399  -1.303  0.00  0.00    +0.007 A 
ATOM     26  C   UNL     1      10.931   2.304  -1.291  0.00  0.00    -0.009 A 
ATOM     27  C   UNL     1      10.418   2.753  -0.083  0.00  0.00    +0.127 A 
ATOM     28  C   UNL     1      10.351   2.803  -2.589  0.00  0.00    +0.047 C 
ENDBRANCH  20  27
ENDBRANCH  19  20
ENDBRANCH   1  19
TORSDOF 7
