REMARK  Name = ZINC23291914
REMARK  5 active torsions:
REMARK  status: ('A' for Active; 'I' for Inactive)
REMARK    1  A    between atoms: C_8  and  C_12
REMARK    2  A    between atoms: C_12  and  N_13
REMARK    3  A    between atoms: N_16  and  C_19
REMARK    4  A    between atoms: C_19  and  C_20
REMARK    5  A    between atoms: C_19  and  C_27
REMARK                            x       y       z     vdW  Elec       q    Type
REMARK                         _______ _______ _______ _____ _____    ______ ____
ROOT
ATOM      1  N   UNL     1       2.603  -4.676   2.346  0.00  0.00    -0.294 NA
ATOM      2  C   UNL     1       1.214  -4.265   2.099  0.00  0.00    +0.100 C 
ATOM      3  C   UNL     1       0.290  -4.979   3.089  0.00  0.00    +0.100 C 
ATOM      4  N   UNL     1       0.441  -6.433   2.934  0.00  0.00    -0.289 NA
ATOM      5  C   UNL     1       1.831  -6.844   3.181  0.00  0.00    +0.100 C 
ATOM      6  C   UNL     1       2.754  -6.130   2.191  0.00  0.00    +0.100 C 
ENDROOT
BRANCH   1   7
ATOM      7  C   UNL     1       3.530  -3.953   1.464  0.00  0.00    +0.137 C 
BRANCH   7  15
ATOM      8  C   UNL     1       7.912  -2.849   5.479  0.00  0.00    +0.005 A 
ATOM      9  C   UNL     1       8.931  -3.543   4.812  0.00  0.00    +0.018 A 
ATOM     10  C   UNL     1       8.675  -4.165   3.639  0.00  0.00    +0.096 A 
ATOM     11  N   UNL     1       7.430  -4.128   3.089  0.00  0.00    -0.270 N 
ATOM     12  C   UNL     1       6.415  -3.459   3.715  0.00  0.00    +0.118 A 
ATOM     13  C   UNL     1       6.663  -2.805   4.936  0.00  0.00    +0.045 A 
ATOM     14  N   UNL     1       5.195  -3.417   3.184  0.00  0.00    -0.343 N 
ATOM     15  C   UNL     1       4.922  -4.020   2.037  0.00  0.00    +0.037 A 
ATOM     16  C   UNL     1       5.912  -4.709   1.365  0.00  0.00    +0.093 A 
ATOM     17  C   UNL     1       7.198  -4.756   1.917  0.00  0.00    +0.258 A 
ATOM     18  O   UNL     1       8.095  -5.357   1.348  0.00  0.00    -0.267 OA
ATOM     19  H   UNL     1       4.491  -2.936   3.647  0.00  0.00    +0.167 HD
ENDBRANCH   7  15
ENDBRANCH   1   7
BRANCH   4  20
ATOM     20  C   UNL     1      -0.486  -7.155   3.816  0.00  0.00    +0.117 C 
BRANCH  20  21
ATOM     21  C   UNL     1      -1.903  -6.773   3.475  0.00  0.00    -0.026 A 
ATOM     22  C   UNL     1      -2.309  -6.733   2.155  0.00  0.00    +0.008 A 
ATOM     23  C   UNL     1      -3.609  -6.383   1.841  0.00  0.00    +0.038 A 
ATOM     24  C   UNL     1      -4.505  -6.073   2.851  0.00  0.00    +0.123 A 
ATOM     25  C   UNL     1      -4.096  -6.114   4.173  0.00  0.00    +0.038 A 
ATOM     26  C   UNL     1      -2.798  -6.469   4.484  0.00  0.00    +0.008 A 
ATOM     27  F   UNL     1      -5.775  -5.731   2.545  0.00  0.00    -0.205 F 
ENDBRANCH  20  21
BRANCH  20  28
ATOM     28  C   UNL     1      -0.306  -8.639   3.626  0.00  0.00    -0.026 A 
ATOM     29  C   UNL     1      -0.212  -9.166   2.351  0.00  0.00    +0.008 A 
ATOM     30  C   UNL     1      -0.046 -10.527   2.175  0.00  0.00    +0.038 A 
ATOM     31  C   UNL     1       0.025 -11.363   3.276  0.00  0.00    +0.123 A 
ATOM     32  C   UNL     1      -0.070 -10.834   4.553  0.00  0.00    +0.038 A 
ATOM     33  C   UNL     1      -0.230  -9.473   4.726  0.00  0.00    +0.008 A 
ATOM     34  F   UNL     1       0.186 -12.693   3.106  0.00  0.00    -0.205 F 
ENDBRANCH  20  28
ENDBRANCH   4  20
TORSDOF 5
