REMARK  Name = ZINC13688936
REMARK  8 active torsions:
REMARK  status: ('A' for Active; 'I' for Inactive)
REMARK    1  A    between atoms: N_9  and  C_27
REMARK    2  A    between atoms: C_10  and  S_12
REMARK    3  A    between atoms: S_12  and  C_13
REMARK    4  A    between atoms: C_13  and  C_14
REMARK    5  A    between atoms: N_16  and  N_17
REMARK    6  A    between atoms: C_18  and  C_19
REMARK    7  A    between atoms: C_22  and  O_26
REMARK    8  A    between atoms: C_24  and  O_25
REMARK                            x       y       z     vdW  Elec       q    Type
REMARK                         _______ _______ _______ _____ _____    ______ ____
ROOT
ATOM      1  C   UNL     1      -9.988   8.791   1.002  0.00  0.00    +0.001 A 
ATOM      2  C   UNL     1      -9.767   7.527   0.470  0.00  0.00    +0.002 A 
ATOM      3  C   UNL     1      -8.540   7.176  -0.019  0.00  0.00    +0.028 A 
ATOM      4  C   UNL     1      -7.491   8.099   0.015  0.00  0.00    +0.079 A 
ATOM      5  C   UNL     1      -7.720   9.384   0.558  0.00  0.00    +0.065 A 
ATOM      6  C   UNL     1      -8.982   9.716   1.050  0.00  0.00    +0.015 A 
ATOM      7  C   UNL     1      -6.602  10.336   0.583  0.00  0.00    +0.267 A 
ATOM      8  O   UNL     1      -6.738  11.457   1.038  0.00  0.00    -0.267 OA
ATOM      9  N   UNL     1      -5.416   9.921   0.082  0.00  0.00    -0.255 N 
ATOM     10  C   UNL     1      -5.282   8.658  -0.425  0.00  0.00    +0.177 A 
ATOM     11  N   UNL     1      -6.267   7.795  -0.461  0.00  0.00    -0.223 NA
ENDROOT
BRANCH   9  12
ATOM     12  C   UNL     1      -4.317  10.791   0.082  0.00  0.00    +0.052 A 
ATOM     13  C   UNL     1      -3.456  10.823   1.170  0.00  0.00    +0.028 A 
ATOM     14  C   UNL     1      -2.371  11.678   1.165  0.00  0.00    +0.022 A 
ATOM     15  C   UNL     1      -2.149  12.510   0.082  0.00  0.00    +0.041 A 
ATOM     16  C   UNL     1      -3.009  12.484  -1.001  0.00  0.00    +0.022 A 
ATOM     17  C   UNL     1      -4.092  11.627  -1.004  0.00  0.00    +0.028 A 
ATOM     18 CL   UNL     1      -0.788  13.588   0.082  0.00  0.00    -0.084 Cl
ENDBRANCH   9  12
BRANCH  10  19
ATOM     19  S   UNL     1      -3.714   8.171  -1.064  0.00  0.00    -0.078 S 
BRANCH  19  20
ATOM     20  C   UNL     1      -4.096   6.478  -1.578  0.00  0.00    +0.174 C 
BRANCH  20  21
ATOM     21  C   UNL     1      -2.865   5.844  -2.173  0.00  0.00    +0.242 C 
ATOM     22  O   UNL     1      -1.831   6.475  -2.244  0.00  0.00    -0.273 OA
ATOM     23  N   UNL     1      -2.913   4.576  -2.628  0.00  0.00    -0.206 N 
ATOM     24  H   UNL     1      -3.740   4.072  -2.572  0.00  0.00    +0.177 HD
BRANCH  23  25
ATOM     25  N   UNL     1      -1.769   3.986  -3.181  0.00  0.00    -0.188 NA
ATOM     26  C   UNL     1      -1.815   2.765  -3.619  0.00  0.00    +0.142 C 
BRANCH  26  27
ATOM     27  C   UNL     1      -0.612   2.145  -4.201  0.00  0.00    +0.036 A 
ATOM     28  C   UNL     1      -0.659   0.831  -4.673  0.00  0.00    +0.016 A 
ATOM     29  C   UNL     1       0.467   0.257  -5.222  0.00  0.00    +0.046 A 
ATOM     30  C   UNL     1       1.650   0.981  -5.308  0.00  0.00    +0.120 A 
ATOM     31  C   UNL     1       1.707   2.286  -4.842  0.00  0.00    +0.091 A 
ATOM     32  C   UNL     1       0.583   2.874  -4.289  0.00  0.00    +0.129 A 
BRANCH  32  33
ATOM     33  O   UNL     1       0.636   4.152  -3.833  0.00  0.00    -0.506 OA
ATOM     34  H   UNL     1       0.890   4.227  -2.903  0.00  0.00    +0.292 HD
ENDBRANCH  32  33
BRANCH  30  35
ATOM     35  O   UNL     1       2.756   0.408  -5.851  0.00  0.00    -0.507 OA
ATOM     36  H   UNL     1       2.837   0.537  -6.806  0.00  0.00    +0.292 HD
ENDBRANCH  30  35
ENDBRANCH  26  27
ENDBRANCH  23  25
ENDBRANCH  20  21
ENDBRANCH  19  20
ENDBRANCH  10  19
TORSDOF 8
