REMARK  Name = ZINC35896586
REMARK  9 active torsions:
REMARK  status: ('A' for Active; 'I' for Inactive)
REMARK    1  A    between atoms: C_1  and  C_2
REMARK    2  A    between atoms: C_2  and  O_3
REMARK    3  A    between atoms: O_3  and  C_4
REMARK    4  A    between atoms: C_4  and  C_6
REMARK    5  A    between atoms: C_13  and  C_15
REMARK    6  A    between atoms: C_18  and  C_26
REMARK    7  A    between atoms: N_21  and  C_23
REMARK    8  A    between atoms: C_23  and  C_24
REMARK    9  A    between atoms: C_30  and  C_32
REMARK                            x       y       z     vdW  Elec       q    Type
REMARK                         _______ _______ _______ _____ _____    ______ ____
ROOT
ATOM      1  C   UNL     1      -5.935  -6.072  -0.517  0.00  0.00    +0.059 C 
ATOM      2  C   UNL     1      -7.039  -5.014  -0.602  0.00  0.00    +0.017 C 
ATOM      3  C   UNL     1      -7.053  -4.417  -2.012  0.00  0.00    +0.003 C 
ATOM      4  C   UNL     1      -7.246  -5.540  -3.034  0.00  0.00    -0.070 C 
ATOM      5  N   UNL     1      -6.145  -6.504  -2.920  0.00  0.00    +0.383 N 
ATOM      6  C   UNL     1      -6.169  -7.135  -1.594  0.00  0.00    -0.066 C 
ATOM      7  H   UNL     1      -5.266  -6.026  -3.048  0.00  0.00    -0.081 HD
ENDROOT
BRANCH   1  14
ATOM      8  C   UNL     1      -3.985  -4.639   2.651  0.00  0.00    +0.115 C 
ATOM      9  C   UNL     1      -2.637  -3.922   2.549  0.00  0.00    +0.018 C 
ATOM     10  C   UNL     1      -1.896  -4.400   1.298  0.00  0.00    +0.020 C 
ATOM     11  C   UNL     1      -2.724  -4.055   0.056  0.00  0.00    +0.108 C 
ATOM     12  N   UNL     1      -4.071  -4.620   0.213  0.00  0.00    -0.301 N 
ATOM     13  C   UNL     1      -4.836  -4.297   1.425  0.00  0.00    +0.122 C 
ATOM     14  C   UNL     1      -4.595  -5.419  -0.737  0.00  0.00    +0.217 C 
ATOM     15  O   UNL     1      -3.988  -5.614  -1.769  0.00  0.00    -0.275 OA
BRANCH   8  16
ATOM     16  C   UNL     1      -4.699  -4.192   3.900  0.00  0.00    +0.312 C 
ATOM     17  O   UNL     1      -5.779  -3.655   3.819  0.00  0.00    -0.250 OA
BRANCH  16  18
ATOM     18  O   UNL     1      -4.137  -4.389   5.103  0.00  0.00    -0.465 OA
BRANCH  18  20
ATOM     19  C   UNL     1      -4.075  -4.248   7.515  0.00  0.00    +0.048 C 
ATOM     20  C   UNL     1      -4.870  -3.939   6.244  0.00  0.00    +0.229 C 
ENDBRANCH  18  20
ENDBRANCH  16  18
ENDBRANCH   8  16
ENDBRANCH   1  14
BRANCH   3  21
ATOM     21  C   UNL     1      -8.185  -3.429  -2.130  0.00  0.00    -0.046 A 
ATOM     22  C   UNL     1      -9.488  -3.844  -1.925  0.00  0.00    +0.006 A 
ATOM     23  C   UNL     1     -10.527  -2.939  -2.031  0.00  0.00    +0.039 A 
ATOM     24  C   UNL     1     -10.262  -1.616  -2.344  0.00  0.00    +0.126 A 
ATOM     25  C   UNL     1      -8.957  -1.202  -2.548  0.00  0.00    -0.015 A 
ATOM     26  C   UNL     1      -7.920  -2.108  -2.436  0.00  0.00    +0.010 A 
ATOM     27  C   UNL     1      -8.668   0.237  -2.888  0.00  0.00    +0.047 C 
ATOM     28  F   UNL     1     -11.277  -0.731  -2.448  0.00  0.00    -0.205 F 
ENDBRANCH   3  21
BRANCH   5  29
ATOM     29  C   UNL     1      -6.292  -7.538  -3.954  0.00  0.00    -0.052 C 
BRANCH  29  30
ATOM     30  C   UNL     1      -5.099  -8.458  -3.918  0.00  0.00    -0.053 C 
ATOM     31  C   UNL     1      -5.272  -9.749  -3.784  0.00  0.00    +0.002 C 
ENDBRANCH  29  30
ENDBRANCH   5  29
TORSDOF 7
