REMARK  Name = ZINC59921087
REMARK  7 active torsions:
REMARK  status: ('A' for Active; 'I' for Inactive)
REMARK    1  A    between atoms: C_1  and  C_2
REMARK    2  A    between atoms: C_2  and  O_3
REMARK    3  A    between atoms: O_3  and  C_4
REMARK    4  A    between atoms: C_6  and  C_12
REMARK    5  A    between atoms: C_9  and  O_10
REMARK    6  A    between atoms: N_13  and  N_14
REMARK    7  A    between atoms: C_15  and  C_17
REMARK                            x       y       z     vdW  Elec       q    Type
REMARK                         _______ _______ _______ _____ _____    ______ ____
ROOT
ATOM      1  C   UNL     1      -0.211  -4.964   0.449  0.00  0.00    +0.138 C 
ATOM      2  N   UNL     1      -0.108  -6.248   0.289  0.00  0.00    -0.187 NA
ENDROOT
BRANCH   1   5
ATOM      3  C   UNL     1       0.777  -1.811  -1.336  0.00  0.00    +0.163 A 
ATOM      4  C   UNL     1       0.244  -2.666  -0.389  0.00  0.00    +0.059 A 
ATOM      5  C   UNL     1       0.354  -4.048  -0.559  0.00  0.00    -0.001 A 
ATOM      6  C   UNL     1       1.003  -4.561  -1.685  0.00  0.00    +0.028 A 
ATOM      7  C   UNL     1       1.532  -3.702  -2.627  0.00  0.00    +0.063 A 
ATOM      8  C   UNL     1       1.417  -2.328  -2.460  0.00  0.00    +0.173 A 
ATOM      9 BR   UNL     1       2.409  -4.397  -4.151  0.00  0.00    -0.046 Br
BRANCH   8  10
ATOM     10  O   UNL     1       1.935  -1.486  -3.393  0.00  0.00    -0.503 OA
ATOM     11  H   UNL     1       2.854  -1.234  -3.229  0.00  0.00    +0.292 HD
ENDBRANCH   8  10
BRANCH   3  12
ATOM     12  O   UNL     1       0.671  -0.465  -1.174  0.00  0.00    -0.489 OA
BRANCH  12  14
ATOM     13  C   UNL     1      -0.019   1.526   0.010  0.00  0.00    +0.048 C 
ATOM     14  C   UNL     1       0.002  -0.004   0.002  0.00  0.00    +0.226 C 
ENDBRANCH  12  14
ENDBRANCH   3  12
ENDBRANCH   1   5
BRANCH   2  15
ATOM     15  N   UNL     1      -0.645  -7.118   1.246  0.00  0.00    -0.203 N 
ATOM     16  C   UNL     1      -0.538  -8.451   1.081  0.00  0.00    +0.263 C 
ATOM     17  O   UNL     1       0.025  -8.899   0.101  0.00  0.00    -0.268 OA
ATOM     18  H   UNL     1      -1.095  -6.761   2.028  0.00  0.00    +0.178 HD
BRANCH  16  19
ATOM     19  C   UNL     1      -1.105  -9.369   2.091  0.00  0.00    +0.040 A 
ATOM     20  C   UNL     1      -1.758  -8.858   3.214  0.00  0.00    +0.014 A 
ATOM     21  C   UNL     1      -2.285  -9.719   4.154  0.00  0.00    +0.022 A 
ATOM     22  C   UNL     1      -2.168 -11.088   3.985  0.00  0.00    +0.059 A 
ATOM     23  C   UNL     1      -1.522 -11.602   2.872  0.00  0.00    +0.060 A 
ATOM     24  C   UNL     1      -0.995 -10.750   1.922  0.00  0.00    +0.034 A 
ATOM     25 CL   UNL     1      -1.379 -13.320   2.669  0.00  0.00    -0.082 Cl
ATOM     26 CL   UNL     1      -2.834 -12.166   5.172  0.00  0.00    -0.082 Cl
ENDBRANCH  16  19
ENDBRANCH   2  15
TORSDOF 6
