REMARK  Name = ZINC40064189
REMARK  9 active torsions:
REMARK  status: ('A' for Active; 'I' for Inactive)
REMARK    1  A    between atoms: C_1  and  C_2
REMARK    2  A    between atoms: C_2  and  O_3
REMARK    3  A    between atoms: O_3  and  C_4
REMARK    4  A    between atoms: C_6  and  C_11
REMARK    5  A    between atoms: C_9  and  O_10
REMARK    6  A    between atoms: C_19  and  C_35
REMARK    7  A    between atoms: C_20  and  C_34
REMARK    8  A    between atoms: C_29  and  C_33
REMARK    9  A    between atoms: C_30  and  C_32
REMARK                            x       y       z     vdW  Elec       q    Type
REMARK                         _______ _______ _______ _____ _____    ______ ____
ROOT
ATOM      1  C   UNL     1      -0.217  -4.963  -0.535  0.00  0.00    +0.152 C 
ATOM      2  C   UNL     1       0.855  -5.469  -1.443  0.00  0.00    +0.072 A 
ATOM      3  C   UNL     1       1.766  -4.764  -2.351  0.00  0.00    +0.199 A 
ATOM      4  O   UNL     1       1.886  -3.552  -2.366  0.00  0.00    -0.287 OA
ATOM      5  C   UNL     1       2.528  -5.668  -3.249  0.00  0.00    +0.065 A 
ATOM      6  C   UNL     1       3.282  -5.148  -4.300  0.00  0.00    +0.015 A 
ATOM      7  C   UNL     1       3.974  -5.993  -5.122  0.00  0.00    +0.004 A 
ATOM      8  C   UNL     1       3.926  -7.365  -4.913  0.00  0.00    -0.044 A 
ATOM      9  C   UNL     1       3.188  -7.896  -3.879  0.00  0.00    -0.005 A 
ATOM     10  C   UNL     1       2.475  -7.054  -3.026  0.00  0.00    +0.143 A 
ATOM     11  O   UNL     1       1.764  -7.596  -2.011  0.00  0.00    -0.449 OA
ATOM     12  C   UNL     1       0.894  -6.830  -1.323  0.00  0.00    +0.199 A 
ATOM     13  C   UNL     1      -0.138  -7.238  -0.356  0.00  0.00    +0.289 C 
ATOM     14  O   UNL     1      -0.368  -8.385  -0.025  0.00  0.00    -0.266 OA
ATOM     15  N   UNL     1      -0.793  -6.154   0.111  0.00  0.00    -0.232 N 
ATOM     16  C   UNL     1      -1.827  -6.159   1.037  0.00  0.00    +0.169 A 
ATOM     17  N   UNL     1      -2.498  -5.135   1.519  0.00  0.00    -0.229 NA
ATOM     18  C   UNL     1      -3.463  -5.307   2.403  0.00  0.00    +0.050 A 
ATOM     19  C   UNL     1      -3.727  -6.581   2.787  0.00  0.00    +0.011 A 
ATOM     20  S   UNL     1      -2.531  -7.477   1.811  0.00  0.00    -0.057 S 
ATOM     21  C   UNL     1      -4.752  -7.097   3.764  0.00  0.00    +0.053 C 
ATOM     22  C   UNL     1      -4.237  -4.140   2.961  0.00  0.00    +0.066 C 
ATOM     23  C   UNL     1       3.149  -9.387  -3.671  0.00  0.00    +0.048 C 
ATOM     24  C   UNL     1       4.692  -8.284  -5.829  0.00  0.00    +0.044 C 
ENDROOT
BRANCH   1  27
ATOM     25  C   UNL     1       0.802  -1.825   1.306  0.00  0.00    +0.162 A 
ATOM     26  C   UNL     1       0.261  -2.673   0.353  0.00  0.00    +0.055 A 
ATOM     27  C   UNL     1       0.372  -4.043   0.502  0.00  0.00    -0.018 A 
ATOM     28  C   UNL     1       1.024  -4.570   1.602  0.00  0.00    +0.009 A 
ATOM     29  C   UNL     1       1.566  -3.730   2.557  0.00  0.00    +0.049 A 
ATOM     30  C   UNL     1       1.462  -2.356   2.410  0.00  0.00    +0.158 A 
BRANCH  30  31
ATOM     31  O   UNL     1       2.000  -1.528   3.345  0.00  0.00    -0.503 OA
ATOM     32  H   UNL     1       1.395  -1.301   4.064  0.00  0.00    +0.292 HD
ENDBRANCH  30  31
BRANCH  25  33
ATOM     33  O   UNL     1       0.693  -0.477   1.160  0.00  0.00    -0.489 OA
BRANCH  33  35
ATOM     34  C   UNL     1      -0.019   1.526   0.010  0.00  0.00    +0.048 C 
ATOM     35  C   UNL     1       0.002  -0.004   0.002  0.00  0.00    +0.226 C 
ENDBRANCH  33  35
ENDBRANCH  25  33
ENDBRANCH   1  27
TORSDOF 4
