REMARK  Name = ZINC02771845
REMARK  10 active torsions:
REMARK  status: ('A' for Active; 'I' for Inactive)
REMARK    1  A    between atoms: C_1  and  C_2
REMARK    2  A    between atoms: C_7  and  N_8
REMARK    3  A    between atoms: N_8  and  C_9
REMARK    4  A    between atoms: C_9  and  N_11
REMARK    5  A    between atoms: N_11  and  N_12
REMARK    6  A    between atoms: C_13  and  C_15
REMARK    7  A    between atoms: C_22  and  C_25
REMARK    8  A    between atoms: C_25  and  C_26
REMARK    9  A    between atoms: C_25  and  C_27
REMARK   10  A    between atoms: C_25  and  C_28
REMARK                            x       y       z     vdW  Elec       q    Type
REMARK                         _______ _______ _______ _____ _____    ______ ____
ROOT
ATOM      1  N   UNL     1       0.100  -2.718   0.190  0.00  0.00    -0.231 N 
ATOM      2  C   UNL     1       0.126  -4.063   0.284  0.00  0.00    +0.261 C 
ATOM      3  O   UNL     1      -0.914  -4.686   0.382  0.00  0.00    -0.269 OA
ATOM      4  H   UNL     1       0.930  -2.222   0.111  0.00  0.00    +0.173 HD
ENDROOT
BRANCH   2   5
ATOM      5  C   UNL     1       1.413  -4.777   0.267  0.00  0.00    +0.049 A 
ATOM      6  C   UNL     1       2.604  -4.094   0.151  0.00  0.00    +0.058 A 
ATOM      7  S   UNL     1       3.790  -5.357   0.184  0.00  0.00    -0.101 S 
ATOM      8  C   UNL     1       2.712  -6.753   0.339  0.00  0.00    -0.006 A 
ATOM      9  C   UNL     1       1.468  -6.223   0.367  0.00  0.00    -0.025 A 
ATOM     10  C   UNL     1       0.239  -7.114   0.496  0.00  0.00    +0.037 C 
ATOM     11  C   UNL     1       0.676  -8.480   1.028  0.00  0.00    +0.009 C 
ATOM     12  C   UNL     1       1.814  -9.036   0.168  0.00  0.00    -0.000 C 
ATOM     13  C   UNL     1       3.079  -8.203   0.422  0.00  0.00    +0.046 C 
BRANCH  12  14
ATOM     14  C   UNL     1       2.077 -10.495   0.546  0.00  0.00    -0.035 C 
ATOM     15  C   UNL     1       0.810 -11.320   0.308  0.00  0.00    +0.011 C 
ATOM     16  C   UNL     1       3.214 -11.048  -0.316  0.00  0.00    +0.011 C 
ATOM     17  C   UNL     1       2.469 -10.577   2.022  0.00  0.00    +0.011 C 
ENDBRANCH  12  14
ENDBRANCH   2   5
BRANCH   1  18
ATOM     18  N   UNL     1      -1.125  -2.038   0.205  0.00  0.00    -0.245 N 
ATOM     19  H   UNL     1      -1.954  -2.535   0.284  0.00  0.00    +0.172 HD
BRANCH  18  20
ATOM     20  C   UNL     1      -1.150  -0.694   0.111  0.00  0.00    +0.151 C 
ATOM     21  S   UNL     1      -2.647   0.137   0.130  0.00  0.00    -0.017 S 
BRANCH  20  22
ATOM     22  N   UNL     1       0.002  -0.004   0.002  0.00  0.00    -0.296 N 
ATOM     23  H   UNL     1       0.846  -0.477  -0.072  0.00  0.00    +0.154 HD
BRANCH  22  30
ATOM     24  C   UNL     1       1.849   1.374   1.672  0.00  0.00    +0.045 C 
ATOM     25  C   UNL     1       0.866   2.107   0.795  0.00  0.00    -0.029 A 
ATOM     26  C   UNL     1       0.844   3.488   0.787  0.00  0.00    +0.005 A 
ATOM     27  C   UNL     1      -0.058   4.161  -0.017  0.00  0.00    +0.000 A 
ATOM     28  C   UNL     1      -0.940   3.455  -0.815  0.00  0.00    +0.002 A 
ATOM     29  C   UNL     1      -0.919   2.074  -0.815  0.00  0.00    +0.023 A 
ATOM     30  C   UNL     1      -0.018   1.395  -0.004  0.00  0.00    +0.036 A 
ENDBRANCH  22  30
ENDBRANCH  20  22
ENDBRANCH  18  20
ENDBRANCH   1  18
TORSDOF 6
