REMARK  Name = ZINC54946447
REMARK  13 active torsions:
REMARK  status: ('A' for Active; 'I' for Inactive)
REMARK    1  A    between atoms: C_1  and  C_2
REMARK    2  A    between atoms: C_4  and  N_28
REMARK    3  A    between atoms: C_7  and  N_8
REMARK    4  A    between atoms: C_9  and  C_11
REMARK    5  A    between atoms: N_13  and  C_14
REMARK    6  A    between atoms: C_14  and  C_15
REMARK    7  A    between atoms: C_15  and  C_16
REMARK    8  A    between atoms: C_15  and  C_17
REMARK    9  A    between atoms: C_15  and  N_18
REMARK   10  A    between atoms: C_20  and  C_27
REMARK   11  A    between atoms: C_23  and  C_26
REMARK   12  A    between atoms: N_28  and  C_29
REMARK   13  A    between atoms: N_28  and  C_30
REMARK                            x       y       z     vdW  Elec       q    Type
REMARK                         _______ _______ _______ _____ _____    ______ ____
ROOT
ATOM      1  C   UNL     1       0.009   0.116   5.006  0.00  0.00    +0.299 C 
ATOM      2  O   UNL     1      -0.220   1.299   4.864  0.00  0.00    -0.265 OA
ATOM      3  N   UNL     1       0.089  -0.412   6.244  0.00  0.00    -0.309 N 
ATOM      4  H   UNL     1       0.273  -1.357   6.357  0.00  0.00    +0.149 HD
ENDROOT
BRANCH   1   6
ATOM      5  N   UNL     1       0.123  -0.229   2.571  0.00  0.00    -0.278 N 
ATOM      6  C   UNL     1       0.203  -0.756   3.809  0.00  0.00    +0.303 C 
ATOM      7  O   UNL     1       0.432  -1.940   3.951  0.00  0.00    -0.265 OA
ATOM      8  H   UNL     1      -0.005   0.726   2.458  0.00  0.00    +0.155 HD
BRANCH   5  15
ATOM      9  C   UNL     1      -1.138   0.611   0.165  0.00  0.00    +0.046 C 
ATOM     10  C   UNL     1      -0.376  -0.687   0.254  0.00  0.00    -0.027 A 
ATOM     11  C   UNL     1      -0.272  -1.503  -0.855  0.00  0.00    +0.028 A 
ATOM     12  C   UNL     1       0.430  -2.699  -0.773  0.00  0.00    +0.030 A 
ATOM     13  C   UNL     1       1.026  -3.074   0.425  0.00  0.00    +0.025 A 
ATOM     14  C   UNL     1       0.921  -2.258   1.533  0.00  0.00    +0.025 A 
ATOM     15  C   UNL     1       0.225  -1.059   1.450  0.00  0.00    +0.037 A 
BRANCH  12  16
ATOM     16  N   UNL     1       0.536  -3.526  -1.895  0.00  0.00    -0.336 N 
ATOM     17  C   UNL     1      -0.199  -3.197  -3.119  0.00  0.00    +0.129 C 
ATOM     18  C   UNL     1       1.381  -4.721  -1.847  0.00  0.00    +0.129 C 
ENDBRANCH  12  16
ENDBRANCH   5  15
ENDBRANCH   1   6
BRANCH   3  19
ATOM     19  C   UNL     1      -0.101   0.444   7.418  0.00  0.00    +0.092 C 
BRANCH  19  20
ATOM     20  C   UNL     1      -0.085  -0.417   8.683  0.00  0.00    -0.055 C 
ATOM     21  C   UNL     1       1.302  -1.036   8.862  0.00  0.00    -0.008 C 
ATOM     22  C   UNL     1      -0.416   0.455   9.896  0.00  0.00    -0.008 C 
BRANCH  20  23
ATOM     23  N   UNL     1      -1.086  -1.485   8.561  0.00  0.00    +0.384 N 
ATOM     24  C   UNL     1      -2.399  -0.894   8.274  0.00  0.00    -0.075 C 
ATOM     25  C   UNL     1      -3.429  -2.006   8.066  0.00  0.00    -0.031 C 
ATOM     26  C   UNL     1      -3.517  -2.857   9.336  0.00  0.00    +0.003 C 
ATOM     27  C   UNL     1      -2.127  -3.408   9.667  0.00  0.00    -0.031 C 
ATOM     28  C   UNL     1      -1.145  -2.244   9.816  0.00  0.00    -0.075 C 
ATOM     29  C   UNL     1      -2.189  -4.197  10.976  0.00  0.00    +0.005 C 
ATOM     30  C   UNL     1      -4.796  -1.386   7.769  0.00  0.00    +0.005 C 
ATOM     31  H   UNL     1      -0.826  -2.103   7.807  0.00  0.00    -0.081 HD
ENDBRANCH  20  23
ENDBRANCH  19  20
ENDBRANCH   3  19
TORSDOF 6
