REMARK  Name = ZINC14720630
REMARK  11 active torsions:
REMARK  status: ('A' for Active; 'I' for Inactive)
REMARK    1  A    between atoms: C_1  and  C_2
REMARK    2  A    between atoms: C_2  and  C_3
REMARK    3  A    between atoms: C_3  and  C_4
REMARK    4  A    between atoms: C_4  and  N_5
REMARK    5  A    between atoms: N_5  and  C_6
REMARK    6  A    between atoms: C_7  and  N_19
REMARK    7  A    between atoms: N_8  and  C_15
REMARK    8  A    between atoms: C_15  and  C_16
REMARK    9  A    between atoms: C_16  and  C_17
REMARK   10  A    between atoms: C_16  and  C_18
REMARK   11  A    between atoms: C_20  and  C_22
REMARK                            x       y       z     vdW  Elec       q    Type
REMARK                         _______ _______ _______ _____ _____    ______ ____
ROOT
ATOM      1  C   UNL     1       0.531  -1.726   1.350  0.00  0.00    +0.140 A 
ATOM      2  C   UNL     1       1.653  -0.929   1.254  0.00  0.00    +0.127 A 
ATOM      3  N   UNL     1       1.977  -0.370   0.039  0.00  0.00    -0.280 N 
ATOM      4  C   UNL     1       1.207  -0.595  -1.041  0.00  0.00    +0.331 A 
ATOM      5  O   UNL     1       1.508  -0.088  -2.104  0.00  0.00    -0.246 OA
ATOM      6  N   UNL     1       0.113  -1.373  -0.967  0.00  0.00    -0.273 N 
ATOM      7  H   UNL     1      -0.439  -1.530  -1.786  0.00  0.00    +0.173 HD
ATOM      8  C   UNL     1      -0.249  -1.944   0.199  0.00  0.00    +0.277 A 
ATOM      9  O   UNL     1      -1.246  -2.645   0.255  0.00  0.00    -0.266 OA
ENDROOT
BRANCH   1  10
ATOM     10  N   UNL     1       0.171  -2.313   2.581  0.00  0.00    -0.260 N 
ATOM     11  C   UNL     1      -0.095  -1.533   3.647  0.00  0.00    +0.252 C 
ATOM     12  O   UNL     1      -0.393  -2.039   4.712  0.00  0.00    -0.270 OA
BRANCH  11  13
ATOM     13  C   UNL     1      -0.026  -0.062   3.522  0.00  0.00    +0.057 A 
ATOM     14  C   UNL     1      -0.301   0.551   2.298  0.00  0.00    +0.014 A 
ATOM     15  C   UNL     1      -0.235   1.925   2.188  0.00  0.00    +0.002 A 
ATOM     16  C   UNL     1       0.103   2.696   3.286  0.00  0.00    +0.021 A 
ATOM     17  C   UNL     1       0.378   2.096   4.502  0.00  0.00    +0.060 A 
ATOM     18  C   UNL     1       0.310   0.721   4.629  0.00  0.00    +0.071 A 
ATOM     19 CL   UNL     1       0.648  -0.030   6.157  0.00  0.00    -0.081 Cl
ATOM     20 CL   UNL     1       0.801   3.073   5.874  0.00  0.00    -0.082 Cl
ENDBRANCH  11  13
BRANCH  10  21
ATOM     21  C   UNL     1       0.088  -3.771   2.701  0.00  0.00    +0.114 C 
BRANCH  21  22
ATOM     22  C   UNL     1       1.400  -4.311   3.274  0.00  0.00    +0.019 C 
BRANCH  22  24
ATOM     23  C   UNL     1       2.624  -6.374   3.972  0.00  0.00    +0.004 C 
ATOM     24  C   UNL     1       1.313  -5.833   3.400  0.00  0.00    -0.002 C 
ENDBRANCH  22  24
ENDBRANCH  21  22
ENDBRANCH  10  21
ENDBRANCH   1  10
BRANCH   2  25
ATOM     25  N   UNL     1       2.437  -0.695   2.358  0.00  0.00    -0.343 N 
ATOM     26  H   UNL     1       3.148  -0.037   2.317  0.00  0.00    +0.144 HD
ATOM     27  H   UNL     1       2.279  -1.188   3.178  0.00  0.00    +0.144 HD
ENDBRANCH   2  25
BRANCH   3  28
ATOM     28  C   UNL     1       3.165   0.479  -0.078  0.00  0.00    +0.131 C 
BRANCH  28  29
ATOM     29  C   UNL     1       4.376  -0.384  -0.439  0.00  0.00    +0.003 C 
ATOM     30  C   UNL     1       5.589   0.515  -0.683  0.00  0.00    +0.009 C 
ATOM     31  C   UNL     1       4.677  -1.346   0.712  0.00  0.00    +0.009 C 
ENDBRANCH  28  29
ENDBRANCH   3  28
TORSDOF 8
