REMARK  Name = ZINC26462962
REMARK  8 active torsions:
REMARK  status: ('A' for Active; 'I' for Inactive)
REMARK    1  A    between atoms: C_1  and  C_2
REMARK    2  A    between atoms: C_5  and  S_8
REMARK    3  A    between atoms: S_8  and  N_11
REMARK    4  A    between atoms: N_11  and  C_12
REMARK    5  A    between atoms: C_15  and  O_38
REMARK    6  A    between atoms: C_16  and  C_18
REMARK    7  A    between atoms: C_23  and  C_24
REMARK    8  A    between atoms: C_30  and  N_32
REMARK                            x       y       z     vdW  Elec       q    Type
REMARK                         _______ _______ _______ _____ _____    ______ ____
ROOT
ATOM      1  C   UNL     1      -0.043   1.464   0.764  0.00  0.00    +0.049 A 
ATOM      2  C   UNL     1      -0.495   2.770   0.903  0.00  0.00    +0.028 A 
ATOM      3  C   UNL     1       0.358   3.826   0.654  0.00  0.00    +0.047 A 
ATOM      4  C   UNL     1       1.669   3.584   0.272  0.00  0.00    +0.120 A 
ATOM      5  C   UNL     1       2.124   2.281   0.138  0.00  0.00    +0.001 A 
ATOM      6  C   UNL     1       1.271   1.223   0.386  0.00  0.00    +0.032 A 
ENDROOT
BRANCH   5   7
ATOM      7  C   UNL     1       3.549   2.019  -0.277  0.00  0.00    +0.044 C 
ATOM      8  C   UNL     1       4.207   0.975   0.661  0.00  0.00    +0.014 C 
ATOM      9  C   UNL     1       5.326   0.385  -0.233  0.00  0.00    +0.033 C 
ATOM     10  C   UNL     1       4.708   0.320  -1.618  0.00  0.00    -0.051 C 
ATOM     11  C   UNL     1       5.076  -0.485  -2.605  0.00  0.00    +0.009 C 
ATOM     12  C   UNL     1       3.594   1.344  -1.664  0.00  0.00    +0.091 C 
BRANCH  11  13
ATOM     13  C   UNL     1       6.172  -1.455  -2.398  0.00  0.00    -0.025 A 
ATOM     14  C   UNL     1       7.199  -1.170  -1.498  0.00  0.00    +0.008 A 
ATOM     15  C   UNL     1       8.216  -2.082  -1.305  0.00  0.00    +0.001 A 
ATOM     16  C   UNL     1       8.225  -3.272  -2.010  0.00  0.00    +0.000 A 
ATOM     17  C   UNL     1       7.212  -3.559  -2.908  0.00  0.00    +0.001 A 
ATOM     18  C   UNL     1       6.186  -2.658  -3.106  0.00  0.00    +0.008 A 
ENDBRANCH  11  13
BRANCH  12  19
ATOM     19  N   UNL     1       2.313   0.681  -1.941  0.00  0.00    -0.291 NA
ATOM     20  C   UNL     1       2.499  -0.473  -2.833  0.00  0.00    +0.113 C 
ATOM     21  C   UNL     1       1.152  -1.169  -3.047  0.00  0.00    +0.175 C 
ATOM     22  O   UNL     1       0.212  -0.226  -3.570  0.00  0.00    -0.377 OA
ATOM     23  C   UNL     1       0.006   0.910  -2.727  0.00  0.00    +0.175 C 
ATOM     24  C   UNL     1       1.341   1.627  -2.510  0.00  0.00    +0.113 C 
ENDBRANCH  12  19
ENDBRANCH   5   7
BRANCH   1  25
ATOM     25  N   UNL     1      -0.909   0.393   1.010  0.00  0.00    -0.216 N 
ATOM     26  H   UNL     1      -1.699   0.147   0.285  0.00  0.00    +0.174 HD
BRANCH  25  27
ATOM     27  S   UNL     1      -0.744  -0.505   2.391  0.00  0.00    +0.072 S 
ATOM     28  O   UNL     1      -1.804  -1.451   2.389  0.00  0.00    -0.150 OA
ATOM     29  O   UNL     1       0.622  -0.892   2.464  0.00  0.00    -0.150 OA
BRANCH  27  34
ATOM     30  C   UNL     1      -1.739   3.194   7.053  0.00  0.00    +0.044 C 
ATOM     31  C   UNL     1      -1.490   2.270   5.889  0.00  0.00    -0.050 A 
ATOM     32  C   UNL     1      -2.524   1.506   5.379  0.00  0.00    +0.005 A 
ATOM     33  C   UNL     1      -2.296   0.659   4.311  0.00  0.00    +0.029 A 
ATOM     34  C   UNL     1      -1.034   0.575   3.752  0.00  0.00    +0.109 A 
ATOM     35  C   UNL     1       0.001   1.334   4.266  0.00  0.00    +0.029 A 
ATOM     36  C   UNL     1      -0.229   2.185   5.331  0.00  0.00    +0.005 A 
ENDBRANCH  27  34
ENDBRANCH  25  27
ENDBRANCH   1  25
BRANCH   4  37
ATOM     37  O   UNL     1       2.510   4.625   0.027  0.00  0.00    -0.506 OA
ATOM     38  H   UNL     1       3.549   4.434  -0.276  0.00  0.00    +0.292 HD
ENDBRANCH   4  37
TORSDOF 7
