REMARK  Name = ZINC18613375
REMARK  7 active torsions:
REMARK  status: ('A' for Active; 'I' for Inactive)
REMARK    1  A    between atoms: C_1  and  C_2
REMARK    2  A    between atoms: C_2  and  C_4
REMARK    3  A    between atoms: C_2  and  S_17
REMARK    4  A    between atoms: S_17  and  C_18
REMARK    5  A    between atoms: C_19  and  C_33
REMARK    6  A    between atoms: C_20  and  C_29
REMARK    7  A    between atoms: C_22  and  C_24
REMARK                            x       y       z     vdW  Elec       q    Type
REMARK                         _______ _______ _______ _____ _____    ______ ____
ROOT
ATOM      1  S   UNL     1      -1.516  -0.899   0.011  0.00  0.00    -0.092 S 
ENDROOT
BRANCH   1   2
ATOM      2  C   UNL     1       0.002  -0.004   0.002  0.00  0.00    +0.116 A 
ATOM      3  C   UNL     1       1.225  -0.702  -0.013  0.00  0.00    +0.095 A 
ATOM      4  C   UNL     1       2.423   0.026  -0.021  0.00  0.00    +0.077 A 
ATOM      5  C   UNL     1       2.357   1.404  -0.013  0.00  0.00    +0.042 A 
ATOM      6  C   UNL     1       1.107   2.031   0.002  0.00  0.00    +0.079 A 
ATOM      7  N   UNL     1      -0.016   1.318   0.009  0.00  0.00    -0.239 NA
BRANCH   6   8
ATOM      8  C   UNL     1       1.033   3.503   0.011  0.00  0.00    +0.038 A 
ATOM      9  C   UNL     1      -0.074   4.313   0.025  0.00  0.00    +0.017 A 
ATOM     10  C   UNL     1       0.104   5.677   0.031  0.00  0.00    +0.008 A 
ATOM     11  C   UNL     1       1.367   6.180   0.022  0.00  0.00    +0.046 A 
ATOM     12  S   UNL     1       2.361   4.697   0.012  0.00  0.00    -0.095 S 
ENDBRANCH   6   8
BRANCH   4  13
ATOM     13  C   UNL     1       3.754  -0.680  -0.037  0.00  0.00    +0.419 C 
ATOM     14  F   UNL     1       4.785   0.266  -0.042  0.00  0.00    -0.166 F 
ATOM     15  F   UNL     1       3.867  -1.488   1.100  0.00  0.00    -0.166 F 
ATOM     16  F   UNL     1       3.846  -1.476  -1.184  0.00  0.00    -0.166 F 
ENDBRANCH   4  13
BRANCH   3  17
ATOM     17  C   UNL     1       1.244  -2.133  -0.021  0.00  0.00    +0.102 C 
ATOM     18  N   UNL     1       1.260  -3.269  -0.027  0.00  0.00    -0.191 NA
ENDBRANCH   3  17
ENDBRANCH   1   2
BRANCH   1  20
ATOM     19  C   UNL     1      -2.572   1.267  -1.275  0.00  0.00    +0.029 C 
ATOM     20  C   UNL     1      -2.692   0.476   0.029  0.00  0.00    +0.136 C 
BRANCH  20  21
ATOM     21  C   UNL     1      -4.093  -0.063   0.163  0.00  0.00    +0.233 C 
ATOM     22  O   UNL     1      -4.328  -1.218  -0.120  0.00  0.00    -0.274 OA
ATOM     23  N   UNL     1      -5.085   0.740   0.598  0.00  0.00    -0.260 N 
ATOM     24  C   UNL     1      -4.826   2.144   0.948  0.00  0.00    +0.209 C 
ATOM     25  C   UNL     1      -5.578   2.483   2.209  0.00  0.00    +0.235 C 
ATOM     26  O   UNL     1      -5.143   3.334   2.956  0.00  0.00    -0.274 OA
ATOM     27  N   UNL     1      -6.727   1.852   2.518  0.00  0.00    -0.283 N 
ATOM     28  C   UNL     1      -7.224   0.831   1.701  0.00  0.00    +0.055 A 
ATOM     29  C   UNL     1      -6.399   0.263   0.725  0.00  0.00    +0.058 A 
ATOM     30  C   UNL     1      -6.874  -0.753  -0.081  0.00  0.00    +0.025 A 
ATOM     31  C   UNL     1      -8.175  -1.200   0.071  0.00  0.00    +0.002 A 
ATOM     32  C   UNL     1      -8.997  -0.634   1.029  0.00  0.00    +0.002 A 
ATOM     33  C   UNL     1      -8.526   0.379   1.844  0.00  0.00    +0.025 A 
ATOM     34  H   UNL     1      -7.215   2.108   3.316  0.00  0.00    +0.155 HD
ENDBRANCH  20  21
ENDBRANCH   1  20
TORSDOF 6
