REMARK  Name = ZINC43543272
REMARK  6 active torsions:
REMARK  status: ('A' for Active; 'I' for Inactive)
REMARK    1  A    between atoms: C_1  and  C_2
REMARK    2  A    between atoms: C_2  and  C_3
REMARK    3  A    between atoms: C_3  and  C_5
REMARK    4  A    between atoms: C_3  and  S_7
REMARK    5  A    between atoms: S_7  and  C_10
REMARK    6  A    between atoms: C_14  and  C_17
REMARK                            x       y       z     vdW  Elec       q    Type
REMARK                         _______ _______ _______ _____ _____    ______ ____
ROOT
ATOM      1  C   UNL     1       0.606  -0.769  -4.077  0.00  0.00    +0.126 A 
ATOM      2  C   UNL     1      -0.018  -1.754  -4.820  0.00  0.00    +0.045 A 
ATOM      3  C   UNL     1       0.638  -2.347  -5.886  0.00  0.00    +0.021 A 
ATOM      4  C   UNL     1       1.920  -1.959  -6.215  0.00  0.00    +0.033 A 
ATOM      5  C   UNL     1       2.559  -0.964  -5.470  0.00  0.00    +0.101 A 
ATOM      6  C   UNL     1       1.888  -0.365  -4.397  0.00  0.00    +0.162 A 
ATOM      7  F   UNL     1       2.495   0.602  -3.674  0.00  0.00    -0.203 F 
ATOM      8 BR   UNL     1      -0.227  -3.693  -6.894  0.00  0.00    -0.050 Br
ENDROOT
BRANCH   1   9
ATOM      9  S   UNL     1      -0.239  -0.022  -2.723  0.00  0.00    +0.015 S 
ATOM     10  O   UNL     1      -1.514  -0.651  -2.700  0.00  0.00    -0.168 OA
ATOM     11  O   UNL     1      -0.124   1.375  -2.950  0.00  0.00    -0.168 OA
BRANCH   9  12
ATOM     12  C   UNL     1       0.718  -0.497  -1.257  0.00  0.00    +0.237 C 
BRANCH  12  14
ATOM     13  C   UNL     1      -0.019   1.526   0.010  0.00  0.00    +0.007 C 
ATOM     14  C   UNL     1       0.002  -0.004   0.002  0.00  0.00    +0.038 C 
ENDBRANCH  12  14
BRANCH  12  15
ATOM     15  C   UNL     1       0.844  -1.963  -1.207  0.00  0.00    +0.089 C 
ATOM     16  N   UNL     1       0.942  -3.094  -1.168  0.00  0.00    -0.195 NA
ENDBRANCH  12  15
ENDBRANCH   9  12
ENDBRANCH   1   9
BRANCH   5  17
ATOM     17  C   UNL     1       3.929  -0.545  -5.815  0.00  0.00    +0.389 C 
ATOM     18  O   UNL     1       4.510  -1.068  -6.755  0.00  0.00    -0.240 OA
ATOM     19  O   UNL     1       4.485   0.326  -5.160  0.00  0.00    -0.240 OA
ENDBRANCH   5  17
TORSDOF 5
