REMARK  Name = ZINC10166268
REMARK  7 active torsions:
REMARK  status: ('A' for Active; 'I' for Inactive)
REMARK    1  A    between atoms: C_1  and  C_2
REMARK    2  A    between atoms: C_3  and  C_15
REMARK    3  A    between atoms: N_5  and  C_7
REMARK    4  A    between atoms: C_15  and  O_17
REMARK    5  A    between atoms: O_17  and  C_18
REMARK    6  A    between atoms: C_18  and  C_20
REMARK    7  A    between atoms: C_18  and  C_21
REMARK                            x       y       z     vdW  Elec       q    Type
REMARK                         _______ _______ _______ _____ _____    ______ ____
ROOT
ATOM      1  C   UNL     1       3.347  -0.833  -1.424  0.00  0.00    +0.345 C 
ATOM      2  O   UNL     1       3.748  -1.373  -0.411  0.00  0.00    -0.245 OA
ENDROOT
BRANCH   1   5
ATOM      3  C   UNL     1       1.464  -2.915  -2.902  0.00  0.00    +0.068 C 
ATOM      4  C   UNL     1       2.776  -2.374  -3.408  0.00  0.00    +0.076 A 
ATOM      5  C   UNL     1       3.606  -1.446  -2.736  0.00  0.00    +0.118 A 
ATOM      6  C   UNL     1       4.702  -1.218  -3.549  0.00  0.00    +0.147 A 
ATOM      7  N   UNL     1       4.550  -1.976  -4.650  0.00  0.00    -0.220 N 
ATOM      8  N   UNL     1       3.346  -2.681  -4.540  0.00  0.00    -0.169 NA
ATOM      9 CL   UNL     1       6.031  -0.154  -3.208  0.00  0.00    -0.061 Cl
BRANCH   7  10
ATOM     10  C   UNL     1       5.443  -2.043  -5.728  0.00  0.00    +0.067 A 
ATOM     11  C   UNL     1       6.141  -0.910  -6.125  0.00  0.00    +0.030 A 
ATOM     12  C   UNL     1       7.024  -0.980  -7.184  0.00  0.00    +0.040 A 
ATOM     13  C   UNL     1       7.206  -2.176  -7.858  0.00  0.00    +0.124 A 
ATOM     14  C   UNL     1       6.507  -3.306  -7.467  0.00  0.00    +0.040 A 
ATOM     15  C   UNL     1       5.627  -3.242  -6.405  0.00  0.00    +0.030 A 
ATOM     16  F   UNL     1       8.066  -2.241  -8.898  0.00  0.00    -0.205 F 
ENDBRANCH   7  10
ENDBRANCH   1   5
BRANCH   1  17
ATOM     17  O   UNL     1       2.666   0.327  -1.344  0.00  0.00    -0.450 OA
BRANCH  17  18
ATOM     18  C   UNL     1       2.449   0.874  -0.017  0.00  0.00    +0.239 C 
ATOM     19  C   UNL     1       3.610   1.800   0.351  0.00  0.00    +0.060 C 
BRANCH  18  20
ATOM     20  C   UNL     1       1.160   1.655  -0.000  0.00  0.00    +0.151 A 
ATOM     21  N   UNL     1      -0.011   0.966   0.007  0.00  0.00    -0.307 N 
ATOM     22  H   UNL     1       0.002  -0.004   0.002  0.00  0.00    +0.170 HD
ATOM     23  C   UNL     1      -1.196   1.620   0.017  0.00  0.00    +0.259 A 
ATOM     24  O   UNL     1      -2.252   1.016   0.018  0.00  0.00    -0.267 OA
ATOM     25  C   UNL     1      -1.157   3.090   0.030  0.00  0.00    +0.065 A 
ATOM     26  C   UNL     1      -2.319   3.858   0.044  0.00  0.00    +0.015 A 
ATOM     27  C   UNL     1      -2.225   5.233   0.051  0.00  0.00    +0.001 A 
ATOM     28  C   UNL     1      -0.983   5.855   0.043  0.00  0.00    +0.002 A 
ATOM     29  C   UNL     1       0.177   5.115   0.028  0.00  0.00    +0.028 A 
ATOM     30  C   UNL     1       0.107   3.720   0.021  0.00  0.00    +0.078 A 
ATOM     31  N   UNL     1       1.225   2.952   0.007  0.00  0.00    -0.230 NA
ENDBRANCH  18  20
ENDBRANCH  17  18
ENDBRANCH   1  17
TORSDOF 5
