REMARK  Name = ZINC64058184
REMARK  9 active torsions:
REMARK  status: ('A' for Active; 'I' for Inactive)
REMARK    1  A    between atoms: C_1  and  C_2
REMARK    2  A    between atoms: C_2  and  C_3
REMARK    3  A    between atoms: C_3  and  C_4
REMARK    4  A    between atoms: C_6  and  C_10
REMARK    5  A    between atoms: C_10  and  C_12
REMARK    6  A    between atoms: C_10  and  S_13
REMARK    7  A    between atoms: S_13  and  C_14
REMARK    8  A    between atoms: C_18  and  C_20
REMARK    9  A    between atoms: C_21  and  C_22
REMARK                            x       y       z     vdW  Elec       q    Type
REMARK                         _______ _______ _______ _____ _____    ______ ____
ROOT
ATOM      1  C   UNL     1      -0.179  -4.955   2.862  0.00  0.00    +0.185 A 
ATOM      2  N   UNL     1      -1.058  -4.770   3.873  0.00  0.00    -0.253 N 
ATOM      3  H   UNL     1      -1.828  -4.180   3.871  0.00  0.00    +0.191 HD
ATOM      4  N   UNL     1      -0.638  -5.600   4.925  0.00  0.00    -0.152 NA
ATOM      5  C   UNL     1       0.443  -6.227   4.510  0.00  0.00    +0.175 A 
ATOM      6  N   UNL     1       0.715  -5.836   3.253  0.00  0.00    -0.202 NA
ENDROOT
BRANCH   5   7
ATOM      7  C   UNL     1       1.223  -7.202   5.293  0.00  0.00    +0.050 C 
ATOM      8  C   UNL     1       0.845  -7.516   6.542  0.00  0.00    +0.011 C 
BRANCH   8   9
ATOM      9  C   UNL     1       1.625  -8.490   7.325  0.00  0.00    -0.025 A 
ATOM     10  C   UNL     1       2.762  -9.085   6.772  0.00  0.00    +0.011 A 
ATOM     11  C   UNL     1       3.488  -9.996   7.510  0.00  0.00    +0.039 A 
ATOM     12  C   UNL     1       3.092 -10.322   8.797  0.00  0.00    +0.123 A 
ATOM     13  C   UNL     1       1.965  -9.736   9.351  0.00  0.00    +0.039 A 
ATOM     14  C   UNL     1       1.234  -8.819   8.626  0.00  0.00    +0.011 A 
ATOM     15  F   UNL     1       3.807 -11.216   9.515  0.00  0.00    -0.205 F 
ENDBRANCH   8   9
ENDBRANCH   5   7
BRANCH   1  16
ATOM     16  S   UNL     1      -0.227  -4.159   1.291  0.00  0.00    -0.079 S 
BRANCH  16  17
ATOM     17  C   UNL     1       1.204  -4.841   0.409  0.00  0.00    +0.103 C 
ATOM     18  C   UNL     1       0.997  -6.339   0.182  0.00  0.00    +0.024 C 
BRANCH  17  21
ATOM     19  C   UNL     1       0.739  -2.004  -1.265  0.00  0.00    +0.103 C 
ATOM     20  N   UNL     1       1.674  -2.717  -0.740  0.00  0.00    -0.346 N 
ATOM     21  C   UNL     1       1.355  -4.136  -0.940  0.00  0.00    +0.256 C 
ATOM     22  O   UNL     1       0.108  -4.146  -1.652  0.00  0.00    -0.247 OA
ATOM     23  N   UNL     1      -0.235  -2.780  -1.824  0.00  0.00    -0.252 N 
ATOM     24  H   UNL     1      -1.031  -2.450  -2.270  0.00  0.00    +0.195 HD
ATOM     25  H   UNL     1       2.460  -2.373  -0.288  0.00  0.00    +0.163 HD
BRANCH  19  26
ATOM     26  C   UNL     1       0.718  -0.497  -1.257  0.00  0.00    +0.073 C 
BRANCH  26  28
ATOM     27  C   UNL     1      -0.019   1.526   0.010  0.00  0.00    +0.004 C 
ATOM     28  C   UNL     1       0.002  -0.004   0.002  0.00  0.00    +0.004 C 
ENDBRANCH  26  28
ENDBRANCH  19  26
ENDBRANCH  17  21
ENDBRANCH  16  17
ENDBRANCH   1  16
TORSDOF 7
