REMARK  Name = ZINC38177109
REMARK  4 active torsions:
REMARK  status: ('A' for Active; 'I' for Inactive)
REMARK    1  A    between atoms: C_1  and  N_2
REMARK    2  A    between atoms: C_8  and  C_10
REMARK    3  A    between atoms: C_15  and  C_28
REMARK    4  A    between atoms: C_18  and  C_21
REMARK                            x       y       z     vdW  Elec       q    Type
REMARK                         _______ _______ _______ _____ _____    ______ ____
ROOT
ATOM      1  C   UNL     1       2.520  -4.099   1.139  0.00  0.00    +0.167 A 
ATOM      2  C   UNL     1       3.545  -5.068   1.225  0.00  0.00    +0.112 A 
ATOM      3  C   UNL     1       3.845  -5.228   2.529  0.00  0.00    +0.137 A 
ATOM      4  N   UNL     1       3.045  -4.392   3.256  0.00  0.00    -0.237 N 
ATOM      5  N   UNL     1       2.231  -3.696   2.365  0.00  0.00    -0.163 NA
ATOM      6  C   UNL     1       3.092  -4.289   4.717  0.00  0.00    +0.215 C 
ATOM      7  C   UNL     1       4.431  -4.849   5.212  0.00  0.00    +0.063 C 
ATOM      8  C   UNL     1       4.681  -6.228   4.591  0.00  0.00    +0.104 C 
ATOM      9  N   UNL     1       4.787  -6.072   3.127  0.00  0.00    -0.321 N 
ATOM     10 CL   UNL     1       4.283  -5.901  -0.107  0.00  0.00    -0.078 Cl
ATOM     11  H   UNL     1       5.470  -6.528   2.610  0.00  0.00    +0.148 HD
ENDROOT
BRANCH   1  19
ATOM     12  C   UNL     1      -3.294  -2.000  -0.066  0.00  0.00    +0.105 C 
ATOM     13  N   UNL     1      -1.827  -1.940  -0.021  0.00  0.00    -0.302 NA
ATOM     14  C   UNL     1      -1.305  -2.685   1.132  0.00  0.00    +0.103 C 
ATOM     15  C   UNL     1       0.205  -2.449   1.248  0.00  0.00    +0.123 C 
ATOM     16  N   UNL     1       0.830  -2.781  -0.042  0.00  0.00    -0.294 N 
ATOM     17  C   UNL     1       0.271  -2.177  -1.261  0.00  0.00    +0.123 C 
ATOM     18  C   UNL     1      -1.241  -2.424  -1.278  0.00  0.00    +0.103 C 
ATOM     19  C   UNL     1       1.886  -3.615  -0.104  0.00  0.00    +0.268 C 
ATOM     20  O   UNL     1       2.317  -3.970  -1.184  0.00  0.00    -0.268 OA
ENDBRANCH   1  19
BRANCH   8  21
ATOM     21  C   UNL     1       3.534  -7.148   4.924  0.00  0.00    -0.027 A 
ATOM     22  C   UNL     1       2.361  -7.080   4.197  0.00  0.00    +0.006 A 
ATOM     23  C   UNL     1       1.309  -7.924   4.502  0.00  0.00    +0.015 A 
ATOM     24  C   UNL     1       1.432  -8.837   5.534  0.00  0.00    +0.018 A 
ATOM     25  C   UNL     1       2.607  -8.904   6.261  0.00  0.00    +0.015 A 
ATOM     26  C   UNL     1       3.659  -8.064   5.952  0.00  0.00    +0.006 A 
ATOM     27 BR   UNL     1      -0.007  -9.991   5.952  0.00  0.00    -0.050 Br
ENDBRANCH   8  21
BRANCH   6  28
ATOM     28  C   UNL     1       2.964  -2.822   5.132  0.00  0.00    +0.412 C 
ATOM     29  F   UNL     1       1.746  -2.311   4.668  0.00  0.00    -0.168 F 
ATOM     30  F   UNL     1       3.009  -2.726   6.527  0.00  0.00    -0.168 F 
ATOM     31  F   UNL     1       4.018  -2.087   4.579  0.00  0.00    -0.168 F 
ENDBRANCH   6  28
TORSDOF 3
