REMARK  Name = ZINC36289756
REMARK  8 active torsions:
REMARK  status: ('A' for Active; 'I' for Inactive)
REMARK    1  A    between atoms: C_1  and  O_2
REMARK    2  A    between atoms: O_2  and  C_3
REMARK    3  A    between atoms: C_5  and  C_13
REMARK    4  A    between atoms: C_7  and  N_10
REMARK    5  A    between atoms: C_8  and  O_9
REMARK    6  A    between atoms: N_14  and  N_15
REMARK    7  A    between atoms: C_16  and  C_18
REMARK    8  A    between atoms: C_20  and  N_26
REMARK                            x       y       z     vdW  Elec       q    Type
REMARK                         _______ _______ _______ _____ _____    ______ ____
ROOT
ATOM      1  N   UNL     1       3.544   0.538  -6.244  0.00  0.00    -0.202 N 
ATOM      2  C   UNL     1       4.142  -0.065  -7.290  0.00  0.00    +0.283 C 
ATOM      3  O   UNL     1       4.184  -1.279  -7.350  0.00  0.00    -0.267 OA
ATOM      4  H   UNL     1       3.511   1.506  -6.196  0.00  0.00    +0.178 HD
ENDROOT
BRANCH   2   5
ATOM      5  C   UNL     1       4.748   0.750  -8.367  0.00  0.00    +0.149 A 
ATOM      6  C   UNL     1       5.359   0.120  -9.448  0.00  0.00    +0.094 A 
ATOM      7  C   UNL     1       5.925   0.903 -10.454  0.00  0.00    +0.067 A 
ATOM      8  C   UNL     1       5.854   2.290 -10.333  0.00  0.00    +0.100 A 
ATOM      9  C   UNL     1       5.229   2.842  -9.226  0.00  0.00    +0.150 A 
ATOM     10  N   UNL     1       4.699   2.076  -8.295  0.00  0.00    -0.228 NA
ATOM     11 CL   UNL     1       5.136   4.568  -9.069  0.00  0.00    -0.060 Cl
ATOM     12 CL   UNL     1       6.542   3.314 -11.555  0.00  0.00    -0.078 Cl
ATOM     13 CL   UNL     1       5.416  -1.613  -9.541  0.00  0.00    -0.079 Cl
BRANCH   7  14
ATOM     14  N   UNL     1       6.547   0.313 -11.553  0.00  0.00    -0.356 N 
ATOM     15  H   UNL     1       6.590  -0.653 -11.625  0.00  0.00    +0.142 HD
ATOM     16  H   UNL     1       6.936   0.869 -12.246  0.00  0.00    +0.142 HD
ENDBRANCH   7  14
ENDBRANCH   2   5
BRANCH   1  18
ATOM     17  C   UNL     1       2.395   0.347  -4.217  0.00  0.00    +0.138 C 
ATOM     18  N   UNL     1       2.971  -0.234  -5.225  0.00  0.00    -0.187 NA
BRANCH  17  21
ATOM     19  C   UNL     1       0.606  -0.608  -1.056  0.00  0.00    +0.164 A 
ATOM     20  C   UNL     1       1.171   0.159  -2.059  0.00  0.00    +0.059 A 
ATOM     21  C   UNL     1       1.791  -0.465  -3.145  0.00  0.00    +0.000 A 
ATOM     22  C   UNL     1       1.838  -1.860  -3.212  0.00  0.00    +0.046 A 
ATOM     23  C   UNL     1       1.272  -2.617  -2.208  0.00  0.00    +0.172 A 
ATOM     24  C   UNL     1       0.661  -1.998  -1.127  0.00  0.00    +0.189 A 
BRANCH  23  25
ATOM     25  N   UNL     1       1.322  -4.095  -2.281  0.00  0.00    +0.060 N 
ATOM     26  O   UNL     1       1.858  -4.636  -3.220  0.00  0.00    -0.126 OA
ATOM     27  O   UNL     1       0.827  -4.761  -1.401  0.00  0.00    -0.126 OA
ENDBRANCH  23  25
BRANCH  19  29
ATOM     28  C   UNL     1      -0.017   1.425   0.010  0.00  0.00    +0.277 C 
ATOM     29  O   UNL     1       0.002  -0.004   0.002  0.00  0.00    -0.491 OA
ENDBRANCH  19  29
BRANCH  24  30
ATOM     30  O   UNL     1       0.110  -2.749  -0.138  0.00  0.00    -0.502 OA
ATOM     31  H   UNL     1      -0.819  -2.975  -0.286  0.00  0.00    +0.292 HD
ENDBRANCH  24  30
ENDBRANCH  17  21
ENDBRANCH   1  18
TORSDOF 7
