REMARK  Name = ZINC12602966
REMARK  8 active torsions:
REMARK  status: ('A' for Active; 'I' for Inactive)
REMARK    1  A    between atoms: C_1  and  C_2
REMARK    2  A    between atoms: C_2  and  C_3
REMARK    3  A    between atoms: C_6  and  N_29
REMARK    4  A    between atoms: C_12  and  C_25
REMARK    5  A    between atoms: C_25  and  O_27
REMARK    6  A    between atoms: O_27  and  C_28
REMARK    7  A    between atoms: N_29  and  C_30
REMARK    8  A    between atoms: C_30  and  C_31
REMARK                            x       y       z     vdW  Elec       q    Type
REMARK                         _______ _______ _______ _____ _____    ______ ____
ROOT
ATOM      1  C   UNL     1      -1.668  -0.553  -0.169  0.00  0.00    +0.056 C 
ATOM      2  C   UNL     1      -1.859  -2.071  -0.107  0.00  0.00    +0.003 C 
ATOM      3  C   UNL     1      -3.338  -2.408  -0.311  0.00  0.00    -0.068 C 
ATOM      4  C   UNL     1      -3.812  -1.828  -1.647  0.00  0.00    +0.009 C 
ATOM      5  C   UNL     1      -3.568  -0.318  -1.648  0.00  0.00    +0.103 C 
ATOM      6  N   UNL     1      -2.132  -0.058  -1.470  0.00  0.00    -0.278 NA
ATOM      7  C   UNL     1      -1.808   1.360  -1.660  0.00  0.00    +0.171 C 
ATOM      8  C   UNL     1      -1.948   1.722  -3.145  0.00  0.00    +0.068 C 
ATOM      9  C   UNL     1      -3.272   1.194  -3.635  0.00  0.00    -0.016 A 
ATOM     10  C   UNL     1      -4.013   0.274  -2.963  0.00  0.00    +0.038 A 
ATOM     11  N   UNL     1      -5.160  -0.004  -3.654  0.00  0.00    -0.356 N 
ATOM     12  H   UNL     1      -5.842  -0.634  -3.373  0.00  0.00    +0.166 HD
ATOM     13  C   UNL     1      -5.202   0.740  -4.798  0.00  0.00    +0.047 A 
ATOM     14  C   UNL     1      -4.002   1.526  -4.838  0.00  0.00    +0.003 A 
ATOM     15  C   UNL     1      -3.743   2.404  -5.896  0.00  0.00    +0.010 A 
ATOM     16  C   UNL     1      -4.681   2.466  -6.896  0.00  0.00    +0.001 A 
ATOM     17  C   UNL     1      -5.835   1.700  -6.871  0.00  0.00    +0.002 A 
ATOM     18  C   UNL     1      -6.143   0.825  -5.822  0.00  0.00    +0.026 A 
ENDROOT
BRANCH   3  19
ATOM     19  N   UNL     1      -3.512  -3.867  -0.321  0.00  0.00    +0.384 N 
ATOM     20  H   UNL     1      -3.037  -4.257  -1.121  0.00  0.00    -0.085 HD
ATOM     21  H   UNL     1      -3.124  -4.258   0.525  0.00  0.00    -0.085 HD
BRANCH  19  22
ATOM     22  C   UNL     1      -4.943  -4.189  -0.396  0.00  0.00    -0.039 C 
BRANCH  22  23
ATOM     23  C   UNL     1      -5.122  -5.686  -0.406  0.00  0.00    -0.027 A 
ATOM     24  C   UNL     1      -5.283  -6.533   0.639  0.00  0.00    +0.009 A 
ATOM     25  C   UNL     1      -5.431  -7.885   0.390  0.00  0.00    +0.008 A 
ATOM     26  C   UNL     1      -5.410  -8.322  -0.893  0.00  0.00    +0.045 A 
ATOM     27  S   UNL     1      -5.182  -6.801  -1.799  0.00  0.00    -0.104 S 
ENDBRANCH  22  23
ENDBRANCH  19  22
ENDBRANCH   3  19
BRANCH   1  29
ATOM     28  C   UNL     1       0.612  -0.807  -1.159  0.00  0.00    +0.005 C 
ATOM     29  C   UNL     1      -0.185  -0.218   0.006  0.00  0.00    +0.015 C 
ENDBRANCH   1  29
BRANCH   7  30
ATOM     30  C   UNL     1      -2.753   2.205  -0.845  0.00  0.00    +0.325 C 
ATOM     31  O   UNL     1      -3.472   1.686  -0.024  0.00  0.00    -0.249 OA
BRANCH  30  32
ATOM     32  O   UNL     1      -2.797   3.533  -1.032  0.00  0.00    -0.467 OA
ATOM     33  C   UNL     1      -3.717   4.272  -0.225  0.00  0.00    +0.280 C 
ENDBRANCH  30  32
ENDBRANCH   7  30
TORSDOF 6
