REMARK  Name = ZINC64156581
REMARK  7 active torsions:
REMARK  status: ('A' for Active; 'I' for Inactive)
REMARK    1  A    between atoms: C_1  and  C_2
REMARK    2  A    between atoms: C_2  and  C_4
REMARK    3  A    between atoms: C_2  and  O_15
REMARK    4  A    between atoms: C_4  and  C_6
REMARK    5  A    between atoms: O_15  and  C_16
REMARK    6  A    between atoms: C_16  and  C_18
REMARK    7  A    between atoms: C_18  and  C_19
REMARK                            x       y       z     vdW  Elec       q    Type
REMARK                         _______ _______ _______ _____ _____    ______ ____
ROOT
ATOM      1  O   UNL     1      -1.339  -0.499   0.012  0.00  0.00    -0.453 OA
ENDROOT
BRANCH   1   3
ATOM      2  C   UNL     1      -0.019   1.526   0.010  0.00  0.00    +0.061 C 
ATOM      3  C   UNL     1       0.002  -0.004   0.002  0.00  0.00    +0.244 C 
BRANCH   3   4
ATOM      4  C   UNL     1       0.731  -0.503   1.223  0.00  0.00    +0.201 C 
ATOM      5  O   UNL     1       0.107  -0.976   2.151  0.00  0.00    -0.288 OA
BRANCH   4   6
ATOM      6  C   UNL     1       2.138  -0.421   1.287  0.00  0.00    +0.027 C 
ATOM      7  C   UNL     1       2.954  -0.836   2.324  0.00  0.00    +0.006 A 
ATOM      8  C   UNL     1       2.687  -1.436   3.578  0.00  0.00    +0.010 A 
ATOM      9  C   UNL     1       3.702  -1.743   4.416  0.00  0.00    +0.001 A 
ATOM     10  C   UNL     1       5.045  -1.490   4.098  0.00  0.00    +0.002 A 
ATOM     11  C   UNL     1       5.408  -0.921   2.928  0.00  0.00    +0.026 A 
ATOM     12  C   UNL     1       4.363  -0.555   1.956  0.00  0.00    +0.043 A 
ATOM     13  N   UNL     1       4.426  -0.006   0.777  0.00  0.00    -0.380 N 
ATOM     14  C   UNL     1       3.072   0.132   0.233  0.00  0.00    +0.152 C 
ATOM     15  H   UNL     1       5.242   0.266   0.328  0.00  0.00    +0.160 HD
ENDBRANCH   4   6
ENDBRANCH   3   4
ENDBRANCH   1   3
BRANCH   1  16
ATOM     16  C   UNL     1      -1.922  -0.703  -1.179  0.00  0.00    +0.312 C 
ATOM     17  O   UNL     1      -1.314  -0.470  -2.197  0.00  0.00    -0.250 OA
BRANCH  16  18
ATOM     18  C   UNL     1      -3.334  -1.224  -1.248  0.00  0.00    +0.155 C 
BRANCH  18  19
ATOM     19  C   UNL     1      -3.749  -1.364  -2.690  0.00  0.00    -0.032 A 
ATOM     20  C   UNL     1      -4.349  -0.300  -3.341  0.00  0.00    +0.053 A 
ATOM     21  C   UNL     1      -4.728  -0.432  -4.666  0.00  0.00    +0.164 A 
ATOM     22  C   UNL     1      -4.507  -1.627  -5.337  0.00  0.00    +0.180 A 
ATOM     23  C   UNL     1      -3.906  -2.689  -4.683  0.00  0.00    +0.086 A 
ATOM     24  C   UNL     1      -3.524  -2.552  -3.359  0.00  0.00    +0.028 A 
ATOM     25 CL   UNL     1      -3.629  -4.185  -5.520  0.00  0.00    -0.080 Cl
ATOM     26  O   UNL     1      -4.884  -1.746  -6.643  0.00  0.00    -0.487 OA
ATOM     27  C   UNL     1      -6.292  -1.746  -6.890  0.00  0.00    +0.232 C 
ATOM     28  C   UNL     1      -6.823  -0.325  -6.982  0.00  0.00    +0.082 C 
ATOM     29  C   UNL     1      -6.694   0.428  -5.668  0.00  0.00    +0.232 C 
ATOM     30  O   UNL     1      -5.319   0.609  -5.320  0.00  0.00    -0.488 OA
ENDBRANCH  18  19
ENDBRANCH  16  18
ENDBRANCH   1  16
TORSDOF 6
