REMARK  Name = ZINC36136597
REMARK  11 active torsions:
REMARK  status: ('A' for Active; 'I' for Inactive)
REMARK    1  A    between atoms: C_1  and  C_2
REMARK    2  A    between atoms: C_3  and  S_8
REMARK    3  A    between atoms: C_4  and  C_7
REMARK    4  A    between atoms: S_8  and  N_11
REMARK    5  A    between atoms: N_11  and  C_12
REMARK    6  A    between atoms: C_12  and  C_13
REMARK    7  A    between atoms: C_13  and  C_14
REMARK    8  A    between atoms: C_16  and  C_19
REMARK    9  A    between atoms: C_19  and  C_20
REMARK   10  A    between atoms: C_19  and  C_21
REMARK   11  A    between atoms: C_19  and  C_22
REMARK                            x       y       z     vdW  Elec       q    Type
REMARK                         _______ _______ _______ _____ _____    ______ ____
ROOT
ATOM      1  N   UNL     1       1.570  -0.091  -3.285  0.00  0.00    -0.189 NA
ATOM      2  H   UNL     1       1.915   0.789  -3.504  0.00  0.00    +0.148 HD
ENDROOT
BRANCH   1   3
ATOM      3  S   UNL     1      -0.008  -0.267  -2.813  0.00  0.00    +0.063 S 
ATOM      4  O   UNL     1      -0.547  -1.328  -3.589  0.00  0.00    -0.153 OA
ATOM      5  O   UNL     1      -0.577   1.035  -2.802  0.00  0.00    -0.153 OA
BRANCH   3   8
ATOM      6  C   UNL     1      -0.018   1.503   0.010  0.00  0.00    +0.071 C 
ATOM      7  C   UNL     1       0.002  -0.004   0.002  0.00  0.00    +0.107 A 
ATOM      8  C   UNL     1       0.008  -0.824  -1.141  0.00  0.00    +0.169 A 
ATOM      9  C   UNL     1       0.027  -2.108  -0.735  0.00  0.00    +0.161 A 
ATOM     10  O   UNL     1       0.034  -2.119   0.606  0.00  0.00    -0.358 OA
ATOM     11  N   UNL     1       0.023  -0.775   1.052  0.00  0.00    -0.081 NA
ATOM     12  C   UNL     1       0.039  -3.320  -1.631  0.00  0.00    +0.091 C 
ENDBRANCH   3   8
ENDBRANCH   1   3
BRANCH   1  13
ATOM     13  C   UNL     1       2.444  -1.263  -3.371  0.00  0.00    +0.114 C 
BRANCH  13  14
ATOM     14  C   UNL     1       3.700  -0.905  -4.169  0.00  0.00    +0.096 C 
BRANCH  14  15
ATOM     15  C   UNL     1       4.599  -2.111  -4.258  0.00  0.00    +0.173 A 
ATOM     16  N   UNL     1       5.557  -2.433  -3.382  0.00  0.00    -0.196 NA
ATOM     17  C   UNL     1       6.149  -3.535  -3.751  0.00  0.00    +0.233 A 
ATOM     18  O   UNL     1       5.581  -3.955  -4.888  0.00  0.00    -0.337 OA
ATOM     19  N   UNL     1       4.566  -3.012  -5.197  0.00  0.00    -0.061 NA
BRANCH  17  20
ATOM     20  C   UNL     1       7.279  -4.217  -3.023  0.00  0.00    +0.041 C 
ATOM     21  C   UNL     1       6.821  -4.598  -1.614  0.00  0.00    +0.020 C 
ATOM     22  C   UNL     1       7.687  -5.480  -3.785  0.00  0.00    +0.020 C 
ATOM     23  C   UNL     1       8.475  -3.267  -2.932  0.00  0.00    +0.020 C 
ENDBRANCH  17  20
ENDBRANCH  14  15
ENDBRANCH  13  14
ENDBRANCH   1  13
TORSDOF 6
