REMARK  Name = ZINC03647445
REMARK  5 active torsions:
REMARK  status: ('A' for Active; 'I' for Inactive)
REMARK    1  A    between atoms: C_1  and  C_2
REMARK    2  A    between atoms: C_14  and  C_17
REMARK    3  A    between atoms: C_19  and  O_25
REMARK    4  A    between atoms: C_20  and  O_24
REMARK    5  A    between atoms: O_25  and  C_26
REMARK                            x       y       z     vdW  Elec       q    Type
REMARK                         _______ _______ _______ _____ _____    ______ ____
ROOT
ATOM      1  C   UNL     1      -0.211   0.847   2.494  0.00  0.00    +0.008 C 
ATOM      2  C   UNL     1      -0.742   1.586   1.264  0.00  0.00    -0.009 C 
ATOM      3  C   UNL     1      -2.241   1.310   1.104  0.00  0.00    +0.008 C 
ATOM      4  C   UNL     1      -2.828   2.232   0.034  0.00  0.00    +0.037 C 
ATOM      5  C   UNL     1      -1.994   2.104  -1.236  0.00  0.00    -0.023 A 
ATOM      6  C   UNL     1      -0.747   1.587  -1.197  0.00  0.00    -0.004 A 
ATOM      7  S   UNL     1      -0.178   1.634  -2.877  0.00  0.00    -0.078 S 
ATOM      8  C   UNL     1      -1.563   2.325  -3.608  0.00  0.00    +0.080 A 
ATOM      9  C   UNL     1      -2.464   2.516  -2.550  0.00  0.00    +0.068 A 
ATOM     10  C   UNL     1      -3.783   3.106  -2.871  0.00  0.00    +0.248 C 
ATOM     11  O   UNL     1      -4.574   3.406  -1.995  0.00  0.00    -0.270 OA
ATOM     12  N   UNL     1      -4.073   3.298  -4.175  0.00  0.00    -0.289 N 
ATOM     13  C   UNL     1      -3.279   2.745  -5.266  0.00  0.00    +0.190 C 
ATOM     14  N   UNL     1      -1.852   2.668  -4.904  0.00  0.00    -0.316 N 
ATOM     15  C   UNL     1      -0.013   1.086   0.008  0.00  0.00    +0.046 C 
ATOM     16  H   UNL     1      -4.962   3.908  -4.395  0.00  0.00    +0.151 HD
ATOM     17  H   UNL     1      -1.080   2.880  -5.659  0.00  0.00    +0.149 HD
ENDROOT
BRANCH  13  18
ATOM     18  C   UNL     1      -3.780   1.361  -5.590  0.00  0.00    -0.005 A 
ATOM     19  C   UNL     1      -5.111   1.046  -5.390  0.00  0.00    +0.056 A 
ATOM     20  C   UNL     1      -5.574  -0.226  -5.687  0.00  0.00    +0.163 A 
ATOM     21  C   UNL     1      -4.696  -1.184  -6.186  0.00  0.00    +0.173 A 
ATOM     22  C   UNL     1      -3.363  -0.861  -6.384  0.00  0.00    +0.063 A 
ATOM     23  C   UNL     1      -2.909   0.412  -6.090  0.00  0.00    +0.026 A 
ATOM     24 BR   UNL     1      -2.167  -2.159  -7.062  0.00  0.00    -0.046 Br
BRANCH  21  25
ATOM     25  O   UNL     1      -5.146  -2.434  -6.478  0.00  0.00    -0.503 OA
ATOM     26  H   UNL     1      -4.451  -3.190  -6.872  0.00  0.00    +0.292 HD
ENDBRANCH  21  25
BRANCH  20  27
ATOM     27  O   UNL     1      -6.883  -0.538  -5.490  0.00  0.00    -0.491 OA
ATOM     28  C   UNL     1      -7.725   0.495  -4.975  0.00  0.00    +0.277 C 
ENDBRANCH  20  27
ENDBRANCH  13  18
TORSDOF 3
