REMARK  Name = ZINC20681380
REMARK  6 active torsions:
REMARK  status: ('A' for Active; 'I' for Inactive)
REMARK    1  A    between atoms: C_3  and  C_9
REMARK    2  A    between atoms: C_4  and  O_8
REMARK    3  A    between atoms: C_6  and  O_7
REMARK    4  A    between atoms: C_20  and  S_25
REMARK    5  A    between atoms: S_25  and  N_28
REMARK    6  A    between atoms: N_28  and  C_29
REMARK                            x       y       z     vdW  Elec       q    Type
REMARK                         _______ _______ _______ _____ _____    ______ ____
ROOT
ATOM      1  C   UNL     1      -1.321  -0.725   0.051  0.00  0.00    +0.108 C 
ATOM      2  C   UNL     1      -1.751  -1.087  -1.360  0.00  0.00    +0.029 C 
ATOM      3  C   UNL     1      -0.739  -1.847  -2.227  0.00  0.00    +0.033 C 
ATOM      4  C   UNL     1      -1.129  -1.385  -3.632  0.00  0.00    -0.030 C 
ATOM      5  C   UNL     1      -1.713  -0.194  -3.572  0.00  0.00    -0.023 C 
ATOM      6  C   UNL     1      -1.735   0.253  -2.155  0.00  0.00    +0.049 C 
ATOM      7  C   UNL     1      -2.831   1.100  -1.636  0.00  0.00    -0.018 A 
ATOM      8  C   UNL     1      -3.559   1.946  -2.445  0.00  0.00    +0.034 A 
ATOM      9  C   UNL     1      -4.566   2.727  -1.909  0.00  0.00    +0.106 A 
ATOM     10  C   UNL     1      -4.846   2.662  -0.556  0.00  0.00    +0.030 A 
ATOM     11  C   UNL     1      -4.127   1.815   0.260  0.00  0.00    +0.025 A 
ATOM     12  C   UNL     1      -3.117   1.020  -0.269  0.00  0.00    +0.031 A 
ATOM     13  N   UNL     1      -2.393   0.146   0.582  0.00  0.00    -0.336 N 
ATOM     14  H   UNL     1      -2.640   0.123   1.653  0.00  0.00    +0.147 HD
ENDROOT
BRANCH   1  17
ATOM     15  C   UNL     1       1.196   2.086  -0.047  0.00  0.00    +0.046 A 
ATOM     16  C   UNL     1      -0.003   1.401  -0.020  0.00  0.00    +0.012 A 
ATOM     17  C   UNL     1      -0.011   0.020   0.021  0.00  0.00    +0.015 A 
ATOM     18  C   UNL     1       1.186  -0.682   0.036  0.00  0.00    +0.125 A 
ATOM     19  C   UNL     1       2.390   0.003   0.009  0.00  0.00    +0.091 A 
ATOM     20  C   UNL     1       2.396   1.389  -0.033  0.00  0.00    +0.120 A 
BRANCH  20  21
ATOM     21  O   UNL     1       3.575   2.064  -0.059  0.00  0.00    -0.507 OA
ATOM     22  H   UNL     1       4.526   1.511  -0.047  0.00  0.00    +0.292 HD
ENDBRANCH  20  21
BRANCH  18  23
ATOM     23  O   UNL     1       1.177  -2.041   0.078  0.00  0.00    -0.506 OA
ATOM     24  H   UNL     1       2.126  -2.596   0.090  0.00  0.00    +0.292 HD
ENDBRANCH  18  23
ENDBRANCH   1  17
BRANCH   9  25
ATOM     25  S   UNL     1      -5.494   3.805  -2.950  0.00  0.00    +0.059 S 
ATOM     26  O   UNL     1      -5.400   3.277  -4.266  0.00  0.00    -0.153 OA
ATOM     27  O   UNL     1      -6.740   4.022  -2.303  0.00  0.00    -0.153 OA
BRANCH  25  28
ATOM     28  N   UNL     1      -4.709   5.263  -2.968  0.00  0.00    -0.187 NA
ATOM     29  H   UNL     1      -5.127   6.105  -2.397  0.00  0.00    +0.148 HD
BRANCH  28  30
ATOM     30  C   UNL     1      -3.370   5.367  -3.553  0.00  0.00    +0.077 C 
ATOM     31  C   UNL     1      -2.319   5.229  -2.449  0.00  0.00    +0.020 C 
ATOM     32  C   UNL     1      -0.920   5.338  -3.059  0.00  0.00    +0.002 C 
ATOM     33  C   UNL     1      -0.766   6.698  -3.743  0.00  0.00    +0.000 C 
ATOM     34  C   UNL     1      -1.817   6.836  -4.846  0.00  0.00    +0.002 C 
ATOM     35  C   UNL     1      -3.216   6.728  -4.236  0.00  0.00    +0.020 C 
ENDBRANCH  28  30
ENDBRANCH  25  28
ENDBRANCH   9  25
TORSDOF 6
