REMARK  Name = ZINC39836320
REMARK  8 active torsions:
REMARK  status: ('A' for Active; 'I' for Inactive)
REMARK    1  A    between atoms: C_1  and  C_2
REMARK    2  A    between atoms: C_4  and  O_9
REMARK    3  A    between atoms: O_9  and  C_10
REMARK    4  A    between atoms: C_10  and  C_11
REMARK    5  A    between atoms: N_13  and  C_14
REMARK    6  A    between atoms: C_15  and  C_25
REMARK    7  A    between atoms: C_20  and  C_24
REMARK    8  A    between atoms: N_27  and  C_28
REMARK                            x       y       z     vdW  Elec       q    Type
REMARK                         _______ _______ _______ _____ _____    ______ ____
ROOT
ATOM      1  C   UNL     1       0.066  -6.606  -5.178  0.00  0.00    +0.084 A 
ATOM      2  C   UNL     1       0.076  -7.940  -5.554  0.00  0.00    +0.069 A 
ATOM      3  C   UNL     1       0.074  -8.229  -6.977  0.00  0.00    -0.023 A 
ATOM      4  C   UNL     1       0.062  -7.132  -7.764  0.00  0.00    -0.004 A 
ATOM      5  S   UNL     1       0.046  -5.771  -6.635  0.00  0.00    -0.077 S 
ATOM      6  C   UNL     1       0.055  -7.098  -9.261  0.00  0.00    +0.046 C 
ATOM      7  C   UNL     1      -0.316  -8.498  -9.773  0.00  0.00    -0.009 C 
ATOM      8  C   UNL     1       0.532  -9.537  -9.034  0.00  0.00    +0.008 C 
ATOM      9  C   UNL     1       0.086  -9.630  -7.573  0.00  0.00    +0.037 C 
ATOM     10  C   UNL     1      -0.042  -8.584 -11.276  0.00  0.00    +0.008 C 
ENDROOT
BRANCH   1  13
ATOM     11  C   UNL     1       0.048  -4.746  -3.712  0.00  0.00    +0.255 C 
ATOM     12  O   UNL     1       0.033  -4.003  -4.671  0.00  0.00    -0.272 OA
ATOM     13  N   UNL     1       0.065  -6.082  -3.895  0.00  0.00    -0.277 N 
ATOM     14  H   UNL     1       0.077  -6.676  -3.128  0.00  0.00    +0.155 HD
BRANCH  11  15
ATOM     15  C   UNL     1       0.047  -4.176  -2.317  0.00  0.00    +0.324 C 
BRANCH  15  16
ATOM     16  O   UNL     1       0.028  -2.749  -2.386  0.00  0.00    -0.483 OA
BRANCH  16  20
ATOM     17  C   UNL     1      -0.018   1.503   0.010  0.00  0.00    +0.045 C 
ATOM     18  C   UNL     1       0.002  -0.004   0.002  0.00  0.00    -0.029 A 
ATOM     19  C   UNL     1       0.006  -0.688  -1.199  0.00  0.00    +0.050 A 
ATOM     20  C   UNL     1       0.025  -2.075  -1.206  0.00  0.00    +0.122 A 
ATOM     21  C   UNL     1       0.040  -2.773  -0.007  0.00  0.00    +0.047 A 
ATOM     22  C   UNL     1       0.036  -2.086   1.192  0.00  0.00    +0.024 A 
ATOM     23  C   UNL     1       0.023  -0.702   1.196  0.00  0.00    +0.044 A 
ATOM     24 CL   UNL     1       0.025   0.160   2.704  0.00  0.00    -0.083 Cl
ENDBRANCH  16  20
ENDBRANCH  15  16
ENDBRANCH  11  15
ENDBRANCH   1  13
BRANCH   2  25
ATOM     25  C   UNL     1       0.090  -9.014  -4.556  0.00  0.00    +0.247 C 
ATOM     26  O   UNL     1      -0.959  -9.470  -4.138  0.00  0.00    -0.270 OA
ATOM     27  N   UNL     1       1.263  -9.497  -4.101  0.00  0.00    -0.307 N 
ATOM     28  H   UNL     1       2.099  -9.134  -4.434  0.00  0.00    +0.149 HD
BRANCH  27  29
ATOM     29  C   UNL     1       1.276 -10.570  -3.104  0.00  0.00    +0.096 C 
ATOM     30  C   UNL     1       1.183  -9.969  -1.692  0.00  0.00    +0.046 C 
ATOM     31  C   UNL     1       1.517 -11.049  -0.635  0.00  0.00    +0.168 C 
ATOM     32  S   UNL     1       2.645 -12.176  -1.551  0.00  0.00    -0.029 S 
ATOM     33  O   UNL     1       2.038 -13.457  -1.651  0.00  0.00    -0.174 OA
ATOM     34  O   UNL     1       3.953 -12.063  -1.008  0.00  0.00    -0.174 OA
ATOM     35  C   UNL     1       2.610 -11.365  -3.205  0.00  0.00    +0.188 C 
ENDBRANCH  27  29
ENDBRANCH   2  25
TORSDOF 6
