REMARK  Name = ZINC39609350
REMARK  8 active torsions:
REMARK  status: ('A' for Active; 'I' for Inactive)
REMARK    1  A    between atoms: C_1  and  C_2
REMARK    2  A    between atoms: C_5  and  C_9
REMARK    3  A    between atoms: C_7  and  C_8
REMARK    4  A    between atoms: C_9  and  C_10
REMARK    5  A    between atoms: C_10  and  N_11
REMARK    6  A    between atoms: C_12  and  C_14
REMARK    7  A    between atoms: C_25  and  C_27
REMARK    8  A    between atoms: C_30  and  C_32
REMARK                            x       y       z     vdW  Elec       q    Type
REMARK                         _______ _______ _______ _____ _____    ______ ____
ROOT
ATOM      1  C   UNL     1       2.723  -8.397  -0.059  0.00  0.00    +0.100 C 
ATOM      2  C   UNL     1       2.193  -8.949   1.284  0.00  0.00    +0.121 C 
ATOM      3  N   UNL     1       3.034 -10.138   1.557  0.00  0.00    -0.294 N 
ATOM      4  C   UNL     1       4.395  -9.734   1.129  0.00  0.00    +0.115 C 
ATOM      5  C   UNL     1       4.168  -8.913  -0.156  0.00  0.00    -0.004 C 
ATOM      6  C   UNL     1       5.144  -7.743  -0.213  0.00  0.00    -0.010 C 
ATOM      7  C   UNL     1       6.570  -8.280  -0.369  0.00  0.00    -0.082 C 
ATOM      8  N   UNL     1       6.662  -9.081  -1.596  0.00  0.00    +0.379 N 
ATOM      9  C   UNL     1       5.788 -10.256  -1.493  0.00  0.00    -0.082 C 
ATOM     10  C   UNL     1       4.330  -9.802  -1.385  0.00  0.00    -0.010 C 
ATOM     11  C   UNL     1       2.649 -11.321   2.077  0.00  0.00    +0.282 C 
ATOM     12  O   UNL     1       3.466 -12.208   2.242  0.00  0.00    -0.267 OA
ATOM     13  H   UNL     1       6.377  -8.520  -2.384  0.00  0.00    -0.086 HD
ATOM     14  H   UNL     1       7.616  -9.383  -1.728  0.00  0.00    -0.086 HD
ENDROOT
BRANCH  11  15
ATOM     15  C   UNL     1       1.248 -11.539   2.442  0.00  0.00    +0.190 A 
ATOM     16  C   UNL     1       0.723 -12.691   2.985  0.00  0.00    +0.055 A 
ATOM     17  C   UNL     1      -0.644 -12.462   3.174  0.00  0.00    +0.050 A 
ATOM     18  C   UNL     1      -0.901 -11.192   2.744  0.00  0.00    +0.136 A 
ATOM     19  O   UNL     1       0.246 -10.643   2.311  0.00  0.00    -0.450 OA
BRANCH  18  20
ATOM     20  C   UNL     1      -2.221 -10.529   2.758  0.00  0.00    +0.017 A 
ATOM     21  C   UNL     1      -3.340 -11.207   3.247  0.00  0.00    +0.014 A 
ATOM     22  C   UNL     1      -4.570 -10.583   3.258  0.00  0.00    +0.039 A 
ATOM     23  C   UNL     1      -4.696  -9.285   2.786  0.00  0.00    +0.123 A 
ATOM     24  C   UNL     1      -3.588  -8.608   2.300  0.00  0.00    +0.039 A 
ATOM     25  C   UNL     1      -2.353  -9.220   2.289  0.00  0.00    +0.014 A 
ATOM     26  F   UNL     1      -5.903  -8.679   2.800  0.00  0.00    -0.205 F 
ENDBRANCH  18  20
ENDBRANCH  11  15
BRANCH   1  28
ATOM     27  N   UNL     1       2.556  -6.212  -1.206  0.00  0.00    -0.315 N 
ATOM     28  C   UNL     1       2.703  -6.890  -0.050  0.00  0.00    +0.218 C 
ATOM     29  O   UNL     1       2.819  -6.288   0.996  0.00  0.00    -0.275 OA
ATOM     30  H   UNL     1       2.463  -6.693  -2.042  0.00  0.00    +0.149 HD
BRANCH  27  31
ATOM     31  C   UNL     1       2.538  -4.747  -1.198  0.00  0.00    +0.109 C 
BRANCH  31  32
ATOM     32  C   UNL     1       2.360  -4.231  -2.627  0.00  0.00    +0.054 C 
BRANCH  32  37
ATOM     33  C   UNL     1       2.285   1.547  -2.599  0.00  0.00    +0.044 C 
ATOM     34  C   UNL     1       2.305   0.040  -2.606  0.00  0.00    -0.048 A 
ATOM     35  C   UNL     1       3.503  -0.635  -2.750  0.00  0.00    +0.004 A 
ATOM     36  C   UNL     1       3.521  -2.017  -2.756  0.00  0.00    +0.004 A 
ATOM     37  C   UNL     1       2.341  -2.724  -2.619  0.00  0.00    -0.046 A 
ATOM     38  C   UNL     1       1.143  -2.050  -2.474  0.00  0.00    +0.007 A 
ATOM     39  C   UNL     1       1.126  -0.667  -2.463  0.00  0.00    -0.047 A 
ATOM     40  C   UNL     1      -0.179   0.069  -2.300  0.00  0.00    +0.044 C 
ENDBRANCH  32  37
ENDBRANCH  31  32
ENDBRANCH  27  31
ENDBRANCH   1  28
TORSDOF 6
