REMARK  Name = ZINC25197125
REMARK  5 active torsions:
REMARK  status: ('A' for Active; 'I' for Inactive)
REMARK    1  A    between atoms: C_1  and  C_2
REMARK    2  A    between atoms: C_4  and  C_7
REMARK    3  A    between atoms: C_12  and  C_13
REMARK    4  A    between atoms: C_15  and  C_18
REMARK    5  A    between atoms: N_20  and  C_22
REMARK                            x       y       z     vdW  Elec       q    Type
REMARK                         _______ _______ _______ _____ _____    ______ ____
ROOT
ATOM      1  C   UNL     1       1.890  -2.995  -1.839  0.00  0.00    +0.055 C 
ATOM      2  C   UNL     1       1.360  -2.838  -3.079  0.00  0.00    +0.017 C 
ATOM      3  C   UNL     1       1.077  -1.538  -3.573  0.00  0.00    +0.188 C 
ATOM      4  O   UNL     1       1.310  -0.555  -2.888  0.00  0.00    -0.287 OA
ATOM      5  C   UNL     1       0.520  -1.390  -4.870  0.00  0.00    +0.017 C 
ATOM      6  C   UNL     1       0.243  -0.153  -5.355  0.00  0.00    +0.055 C 
ATOM      7  C   UNL     1       0.240  -2.612  -5.707  0.00  0.00    +0.123 C 
ATOM      8  N   UNL     1      -0.062  -3.748  -4.826  0.00  0.00    -0.297 NA
ATOM      9  C   UNL     1       1.076  -4.043  -3.939  0.00  0.00    +0.123 C 
ATOM     10  C   UNL     1      -0.440  -4.934  -5.607  0.00  0.00    +0.105 C 
ENDROOT
BRANCH   1  14
ATOM     11  C   UNL     1       4.159   1.295  -0.813  0.00  0.00    +0.086 C 
ATOM     12  C   UNL     1       3.357   0.030  -0.651  0.00  0.00    +0.103 A 
ATOM     13  O   UNL     1       3.103  -0.860  -1.621  0.00  0.00    -0.461 OA
ATOM     14  C   UNL     1       2.358  -1.868  -1.121  0.00  0.00    +0.128 A 
ATOM     15  C   UNL     1       2.132  -1.604   0.215  0.00  0.00    +0.049 A 
ATOM     16  C   UNL     1       2.782  -0.393   0.497  0.00  0.00    +0.045 A 
ENDBRANCH   1  14
BRANCH   6  17
ATOM     17  C   UNL     1       0.263   0.967  -4.490  0.00  0.00    +0.128 A 
ATOM     18  O   UNL     1      -0.228   1.012  -3.235  0.00  0.00    -0.461 OA
ATOM     19  C   UNL     1      -0.032   2.235  -2.722  0.00  0.00    +0.103 A 
ATOM     20  C   UNL     1       0.592   3.004  -3.642  0.00  0.00    +0.045 A 
ATOM     21  C   UNL     1       0.795   2.208  -4.779  0.00  0.00    +0.049 A 
ATOM     22  C   UNL     1      -0.441   2.681  -1.342  0.00  0.00    +0.086 C 
ENDBRANCH   6  17
TORSDOF 2
