REMARK  Name = ZINC02948311
REMARK  5 active torsions:
REMARK  status: ('A' for Active; 'I' for Inactive)
REMARK    1  A    between atoms: C_3  and  C_6
REMARK    2  A    between atoms: C_6  and  N_7
REMARK    3  A    between atoms: C_8  and  C_10
REMARK    4  A    between atoms: C_15  and  C_26
REMARK    5  A    between atoms: C_18  and  C_21
REMARK                            x       y       z     vdW  Elec       q    Type
REMARK                         _______ _______ _______ _____ _____    ______ ____
ROOT
ATOM      1  C   UNL     1       5.960   2.610   2.978  0.00  0.00    +0.149 A 
ATOM      2  C   UNL     1       7.237   3.072   3.369  0.00  0.00    +0.078 A 
ATOM      3  C   UNL     1       7.276   3.073   4.716  0.00  0.00    +0.119 A 
ATOM      4  N   UNL     1       6.069   2.627   5.176  0.00  0.00    -0.238 N 
ATOM      5  N   UNL     1       5.264   2.351   4.072  0.00  0.00    -0.164 NA
ATOM      6  C   UNL     1       5.742   2.489   6.598  0.00  0.00    +0.215 C 
ATOM      7  C   UNL     1       7.045   2.443   7.405  0.00  0.00    +0.063 C 
ATOM      8  C   UNL     1       7.953   3.608   6.996  0.00  0.00    +0.111 C 
ATOM      9  N   UNL     1       8.314   3.446   5.574  0.00  0.00    -0.322 N 
ATOM     10  H   UNL     1       9.218   3.590   5.254  0.00  0.00    +0.148 HD
ENDROOT
BRANCH   8  11
ATOM     11  C   UNL     1       9.200   3.599   7.843  0.00  0.00    +0.010 A 
ATOM     12  C   UNL     1       9.496   4.347   8.934  0.00  0.00    +0.013 A 
ATOM     13  C   UNL     1      10.716   4.166   9.559  0.00  0.00    +0.008 A 
ATOM     14  C   UNL     1      11.579   3.246   9.063  0.00  0.00    +0.045 A 
ATOM     15  S   UNL     1      10.666   2.595   7.674  0.00  0.00    -0.100 S 
ENDBRANCH   8  11
BRANCH   1  17
ATOM     16  N   UNL     1       4.234   2.004   1.353  0.00  0.00    -0.305 N 
ATOM     17  C   UNL     1       5.483   2.450   1.589  0.00  0.00    +0.265 C 
ATOM     18  O   UNL     1       6.218   2.722   0.660  0.00  0.00    -0.268 OA
ATOM     19  H   UNL     1       3.648   1.787   2.095  0.00  0.00    +0.149 HD
BRANCH  16  20
ATOM     20  C   UNL     1       3.761   1.845  -0.024  0.00  0.00    +0.147 C 
BRANCH  20  23
ATOM     21  C   UNL     1      -0.016   1.351   0.009  0.00  0.00    +0.008 A 
ATOM     22  C   UNL     1       1.183   2.038   0.002  0.00  0.00    +0.013 A 
ATOM     23  C   UNL     1       2.343   1.336  -0.013  0.00  0.00    +0.007 A 
ATOM     24  S   UNL     1       1.754  -0.349  -0.017  0.00  0.00    -0.100 S 
ATOM     25  C   UNL     1       0.002  -0.004   0.002  0.00  0.00    +0.045 A 
ENDBRANCH  20  23
ENDBRANCH  16  20
ENDBRANCH   1  17
BRANCH   6  26
ATOM     26  C   UNL     1       4.954   1.196   6.820  0.00  0.00    +0.412 C 
ATOM     27  F   UNL     1       5.726   0.103   6.411  0.00  0.00    -0.168 F 
ATOM     28  F   UNL     1       4.643   1.066   8.177  0.00  0.00    -0.168 F 
ATOM     29  F   UNL     1       3.772   1.237   6.072  0.00  0.00    -0.168 F 
ENDBRANCH   6  26
TORSDOF 5
