REMARK  Name = ZINC05048471
REMARK  4 active torsions:
REMARK  status: ('A' for Active; 'I' for Inactive)
REMARK    1  A    between atoms: C_4  and  C_7
REMARK    2  A    between atoms: C_10  and  C_31
REMARK    3  A    between atoms: C_12  and  C_25
REMARK    4  A    between atoms: C_17  and  C_19
REMARK                            x       y       z     vdW  Elec       q    Type
REMARK                         _______ _______ _______ _____ _____    ______ ____
ROOT
ATOM      1  C   UNL     1      -2.579  -1.646  -0.345  0.00  0.00    -0.031 C 
ATOM      2  C   UNL     1      -2.550  -0.109  -0.373  0.00  0.00    +0.036 C 
ATOM      3  C   UNL     1      -2.056   0.382   0.998  0.00  0.00    -0.031 C 
ATOM      4  C   UNL     1       0.280   0.230   0.317  0.00  0.00    -0.031 C 
ATOM      5  C   UNL     1      -0.098  -0.268  -1.088  0.00  0.00    +0.036 C 
ATOM      6  C   UNL     1      -1.485   0.290  -1.389  0.00  0.00    +0.134 C 
ATOM      7  O   UNL     1      -1.720   0.985  -2.349  0.00  0.00    -0.297 OA
ATOM      8  C   UNL     1      -0.243  -1.798  -1.026  0.00  0.00    -0.031 C 
ATOM      9  N   UNL     1      -0.737  -0.220   1.292  0.00  0.00    +0.389 N 
ATOM     10  H   UNL     1      -0.817  -1.242   1.246  0.00  0.00    -0.084 HD
ATOM     11  H   UNL     1      -0.444   0.059   2.235  0.00  0.00    -0.084 HD
ATOM     12  N   UNL     1      -1.238  -2.159   0.007  0.00  0.00    +0.389 N 
ATOM     13  H   UNL     1      -1.280  -3.181   0.089  0.00  0.00    -0.084 HD
ATOM     14  H   UNL     1      -0.949  -1.755   0.906  0.00  0.00    -0.084 HD
ENDROOT
BRANCH   1  18
ATOM     15  C   UNL     1      -5.380  -2.968   2.596  0.00  0.00    +0.000 A 
ATOM     16  C   UNL     1      -5.802  -2.169   1.550  0.00  0.00    +0.000 A 
ATOM     17  C   UNL     1      -4.895  -1.741   0.598  0.00  0.00    +0.002 A 
ATOM     18  C   UNL     1      -3.567  -2.112   0.692  0.00  0.00    -0.061 A 
ATOM     19  C   UNL     1      -3.147  -2.916   1.736  0.00  0.00    +0.002 A 
ATOM     20  C   UNL     1      -4.052  -3.340   2.690  0.00  0.00    +0.000 A 
ENDBRANCH   1  18
BRANCH   8  21
ATOM     21  C   UNL     1      -0.689  -2.315  -2.369  0.00  0.00    -0.061 A 
ATOM     22  C   UNL     1      -1.390  -3.504  -2.454  0.00  0.00    +0.002 A 
ATOM     23  C   UNL     1      -1.803  -3.977  -3.685  0.00  0.00    +0.000 A 
ATOM     24  C   UNL     1      -1.506  -3.266  -4.833  0.00  0.00    +0.000 A 
ATOM     25  C   UNL     1      -0.800  -2.080  -4.749  0.00  0.00    +0.000 A 
ATOM     26  C   UNL     1      -0.392  -1.605  -3.517  0.00  0.00    +0.002 A 
ENDBRANCH   8  21
BRANCH   4  27
ATOM     27  C   UNL     1       0.356   1.735   0.314  0.00  0.00    -0.061 A 
ATOM     28  C   UNL     1       0.649   2.410  -0.857  0.00  0.00    +0.002 A 
ATOM     29  C   UNL     1       0.714   3.791  -0.861  0.00  0.00    +0.000 A 
ATOM     30  C   UNL     1       0.496   4.496   0.308  0.00  0.00    +0.000 A 
ATOM     31  C   UNL     1       0.208   3.821   1.479  0.00  0.00    +0.000 A 
ATOM     32  C   UNL     1       0.139   2.441   1.482  0.00  0.00    +0.002 A 
ENDBRANCH   4  27
BRANCH   3  33
ATOM     33  C   UNL     1      -3.032  -0.040   2.065  0.00  0.00    -0.061 A 
ATOM     34  C   UNL     1      -4.349   0.377   2.001  0.00  0.00    +0.002 A 
ATOM     35  C   UNL     1      -5.246  -0.013   2.978  0.00  0.00    +0.000 A 
ATOM     36  C   UNL     1      -4.824  -0.812   4.024  0.00  0.00    +0.000 A 
ATOM     37  C   UNL     1      -3.506  -1.224   4.091  0.00  0.00    +0.000 A 
ATOM     38  C   UNL     1      -2.610  -0.838   3.112  0.00  0.00    +0.002 A 
ENDBRANCH   3  33
TORSDOF 4
