REMARK  Name = ZINC18195843
REMARK  3 active torsions:
REMARK  status: ('A' for Active; 'I' for Inactive)
REMARK    1  A    between atoms: C_4  and  C_24
REMARK    2  A    between atoms: C_5  and  C_7
REMARK    3  A    between atoms: C_14  and  O_15
REMARK                            x       y       z     vdW  Elec       q    Type
REMARK                         _______ _______ _______ _____ _____    ______ ____
ROOT
ATOM      1  C   UNL     1       2.451   3.937  -0.001  0.00  0.00    +0.093 C 
ATOM      2  C   UNL     1       3.231   3.590  -1.237  0.00  0.00    +0.067 A 
ATOM      3  C   UNL     1       4.345   2.793  -1.203  0.00  0.00    +0.126 A 
ATOM      4  N   UNL     1       4.804   2.674  -2.463  0.00  0.00    -0.260 N 
ATOM      5  H   UNL     1       5.605   2.150  -2.752  0.00  0.00    +0.190 HD
ATOM      6  N   UNL     1       3.956   3.419  -3.300  0.00  0.00    -0.134 NA
ATOM      7  C   UNL     1       3.016   3.965  -2.560  0.00  0.00    +0.237 A 
ATOM      8  N   UNL     1       4.820   2.265  -0.009  0.00  0.00    -0.303 N 
ATOM      9  C   UNL     1       4.351   2.785   1.171  0.00  0.00    +0.017 C 
ATOM     10  C   UNL     1       3.259   3.578   1.228  0.00  0.00    +0.024 C 
ATOM     11  C   UNL     1       2.821   4.116   2.451  0.00  0.00    +0.162 C 
ATOM     12  O   UNL     1       1.832   4.823   2.469  0.00  0.00    -0.292 OA
ATOM     13  C   UNL     1       3.546   3.836   3.738  0.00  0.00    +0.080 C 
ATOM     14  C   UNL     1       5.024   3.578   3.429  0.00  0.00    +0.014 C 
ATOM     15  C   UNL     1       5.112   2.426   2.426  0.00  0.00    +0.051 C 
ATOM     16  H   UNL     1       5.469   1.544  -0.010  0.00  0.00    +0.153 HD
ENDROOT
BRANCH   1  21
ATOM     17  C   UNL     1      -0.013   1.076   0.008  0.00  0.00    +0.000 A 
ATOM     18  C   UNL     1      -1.219   1.751   0.017  0.00  0.00    +0.001 A 
ATOM     19  C   UNL     1      -1.238   3.133   0.030  0.00  0.00    +0.012 A 
ATOM     20  C   UNL     1      -0.050   3.840   0.022  0.00  0.00    +0.059 A 
ATOM     21  C   UNL     1       1.156   3.166   0.008  0.00  0.00    -0.024 A 
ATOM     22  C   UNL     1       1.175   1.783   0.000  0.00  0.00    +0.005 A 
BRANCH  20  23
ATOM     23  C   UNL     1      -0.070   5.347   0.030  0.00  0.00    +0.418 C 
ATOM     24  F   UNL     1      -1.396   5.795   0.045  0.00  0.00    -0.166 F 
ATOM     25  F   UNL     1       0.593   5.816   1.169  0.00  0.00    -0.166 F 
ATOM     26  F   UNL     1       0.572   5.828  -1.116  0.00  0.00    -0.166 F 
ENDBRANCH  20  23
ENDBRANCH   1  21
BRANCH   7  27
ATOM     27  O   UNL     1       2.008   4.759  -3.010  0.00  0.00    -0.491 OA
ATOM     28  H   UNL     1       2.087   4.869  -4.001  0.00  0.00    +0.294 HD
ENDBRANCH   7  27
TORSDOF 3
