REMARK  Name = ZINC54625428
REMARK  12 active torsions:
REMARK  status: ('A' for Active; 'I' for Inactive)
REMARK    1  A    between atoms: C_1  and  C_2
REMARK    2  A    between atoms: C_3  and  C_14
REMARK    3  A    between atoms: C_4  and  C_13
REMARK    4  A    between atoms: C_9  and  S_11
REMARK    5  A    between atoms: S_11  and  C_12
REMARK    6  A    between atoms: C_14  and  C_15
REMARK    7  A    between atoms: N_17  and  C_18
REMARK    8  A    between atoms: C_18  and  C_19
REMARK    9  A    between atoms: C_19  and  C_21
REMARK   10  A    between atoms: C_19  and  C_22
REMARK   11  A    between atoms: C_22  and  N_23
REMARK   12  A    between atoms: C_27  and  C_28
REMARK                            x       y       z     vdW  Elec       q    Type
REMARK                         _______ _______ _______ _____ _____    ______ ____
ROOT
ATOM      1  C   UNL     1      -2.970   0.471   1.203  0.00  0.00    +0.217 C 
ATOM      2  O   UNL     1      -2.113   0.292   2.042  0.00  0.00    -0.275 OA
ATOM      3  N   UNL     1      -4.152   1.015   1.553  0.00  0.00    -0.315 N 
ATOM      4  H   UNL     1      -4.838   1.158   0.881  0.00  0.00    +0.149 HD
ENDROOT
BRANCH   1   5
ATOM      5  C   UNL     1      -2.712   0.086  -0.231  0.00  0.00    +0.134 C 
BRANCH   5   8
ATOM      6  C   UNL     1      -0.414   1.838  -0.587  0.00  0.00    +0.066 C 
ATOM      7  C   UNL     1      -0.221   0.345  -0.525  0.00  0.00    +0.047 A 
ATOM      8  C   UNL     1      -1.327  -0.494  -0.354  0.00  0.00    +0.004 A 
ATOM      9  C   UNL     1      -1.138  -1.839  -0.301  0.00  0.00    +0.049 A 
ATOM     10  N   UNL     1       0.122  -2.333  -0.414  0.00  0.00    -0.200 N 
ATOM     11  C   UNL     1       1.182  -1.486  -0.580  0.00  0.00    +0.254 A 
ATOM     12  N   UNL     1       0.986  -0.164  -0.637  0.00  0.00    -0.216 NA
ATOM     13  N   UNL     1       2.278  -2.233  -0.661  0.00  0.00    -0.183 NA
ATOM     14  C   UNL     1       1.953  -3.519  -0.553  0.00  0.00    +0.211 A 
ATOM     15  N   UNL     1       0.649  -3.631  -0.401  0.00  0.00    -0.137 NA
ATOM     16  C   UNL     1      -2.310  -2.769  -0.117  0.00  0.00    +0.066 C 
BRANCH  14  17
ATOM     17  S   UNL     1       3.090  -4.864  -0.606  0.00  0.00    -0.088 S 
ATOM     18  C   UNL     1       4.704  -4.066  -0.831  0.00  0.00    +0.093 C 
ENDBRANCH  14  17
ENDBRANCH   5   8
ENDBRANCH   1   5
BRANCH   3  19
ATOM     19  C   UNL     1      -4.403   1.390   2.947  0.00  0.00    +0.109 C 
BRANCH  19  20
ATOM     20  C   UNL     1      -5.809   1.979   3.072  0.00  0.00    +0.023 C 
ATOM     21  C   UNL     1      -6.845   0.900   2.751  0.00  0.00    +0.011 C 
BRANCH  20  22
ATOM     22  C   UNL     1      -6.025   2.484   4.500  0.00  0.00    +0.127 C 
BRANCH  22  23
ATOM     23  N   UNL     1      -7.323   3.158   4.588  0.00  0.00    -0.336 N 
ATOM     24  C   UNL     1      -8.482   2.626   5.086  0.00  0.00    +0.104 A 
ATOM     25  C   UNL     1      -9.426   3.581   4.980  0.00  0.00    +0.101 A 
ATOM     26  N   UNL     1      -8.859   4.666   4.432  0.00  0.00    -0.350 N 
ATOM     27  C   UNL     1      -7.598   4.422   4.199  0.00  0.00    +0.084 A 
ATOM     28  C   UNL     1      -6.613   5.388   3.594  0.00  0.00    +0.084 C 
ATOM     29  H   UNL     1      -9.313   5.502   4.242  0.00  0.00    +0.166 HD
ENDBRANCH  22  23
ENDBRANCH  20  22
ENDBRANCH  19  20
ENDBRANCH   3  19
TORSDOF 7
