REMARK  Name = ZINC31837747
REMARK  8 active torsions:
REMARK  status: ('A' for Active; 'I' for Inactive)
REMARK    1  A    between atoms: C_1  and  C_2
REMARK    2  A    between atoms: C_2  and  C_3
REMARK    3  A    between atoms: C_3  and  C_24
REMARK    4  A    between atoms: N_6  and  C_10
REMARK    5  A    between atoms: C_10  and  C_11
REMARK    6  A    between atoms: C_19  and  O_21
REMARK    7  A    between atoms: O_21  and  C_22
REMARK    8  A    between atoms: C_22  and  C_23
REMARK                            x       y       z     vdW  Elec       q    Type
REMARK                         _______ _______ _______ _____ _____    ______ ____
ROOT
ATOM      1  C   UNL     1       1.639   6.235   5.144  0.00  0.00    +0.138 C 
ATOM      2  C   UNL     1       1.705   5.177   4.060  0.00  0.00    +0.251 C 
ATOM      3  O   UNL     1       2.609   4.988   3.275  0.00  0.00    -0.272 OA
ATOM      4  N   UNL     1       0.547   4.492   4.149  0.00  0.00    -0.215 N 
ATOM      5  C   UNL     1      -0.229   4.961   5.133  0.00  0.00    +0.310 C 
ATOM      6  O   UNL     1      -1.320   4.502   5.409  0.00  0.00    -0.252 OA
ATOM      7  N   UNL     1       0.333   5.997   5.782  0.00  0.00    -0.281 N 
ATOM      8  H   UNL     1       0.009   6.627   6.623  0.00  0.00    +0.152 HD
ENDROOT
BRANCH   1   9
ATOM      9  C   UNL     1       1.692   7.617   4.545  0.00  0.00    -0.015 A 
ATOM     10  C   UNL     1       2.899   8.285   4.454  0.00  0.00    +0.009 A 
ATOM     11  C   UNL     1       2.950   9.550   3.900  0.00  0.00    +0.039 A 
ATOM     12  C   UNL     1       1.789  10.154   3.447  0.00  0.00    +0.123 A 
ATOM     13  C   UNL     1       0.580   9.486   3.544  0.00  0.00    +0.039 A 
ATOM     14  C   UNL     1       0.532   8.219   4.093  0.00  0.00    +0.009 A 
ATOM     15  F   UNL     1       1.836  11.393   2.911  0.00  0.00    -0.205 F 
ENDBRANCH   1   9
BRANCH   1  17
ATOM     16  C   UNL     1       2.728   4.612   6.700  0.00  0.00    +0.007 C 
ATOM     17  C   UNL     1       2.774   6.039   6.151  0.00  0.00    +0.037 C 
ENDBRANCH   1  17
BRANCH   4  18
ATOM     18  C   UNL     1       0.187   3.370   3.280  0.00  0.00    +0.213 C 
BRANCH  18  19
ATOM     19  C   UNL     1      -0.547   3.887   2.069  0.00  0.00    +0.234 C 
ATOM     20  O   UNL     1      -0.749   5.076   1.945  0.00  0.00    -0.274 OA
ATOM     21  N   UNL     1      -0.979   3.028   1.125  0.00  0.00    -0.297 N 
ATOM     22  C   UNL     1      -0.738   1.584   1.265  0.00  0.00    +0.127 C 
ATOM     23  C   UNL     1      -0.013   1.086   0.008  0.00  0.00    +0.130 C 
ATOM     24  N   UNL     1      -0.730   1.576  -1.177  0.00  0.00    -0.264 N 
ATOM     25  C   UNL     1      -0.968   3.020  -1.315  0.00  0.00    +0.130 C 
ATOM     26  C   UNL     1      -1.697   3.518  -0.060  0.00  0.00    +0.127 C 
ATOM     27  C   UNL     1      -1.161   0.717  -2.122  0.00  0.00    +0.403 C 
ATOM     28  O   UNL     1      -0.959  -0.475  -1.998  0.00  0.00    -0.226 OA
BRANCH  27  29
ATOM     29  O   UNL     1      -1.817   1.179  -3.203  0.00  0.00    -0.451 OA
BRANCH  29  30
ATOM     30  C   UNL     1      -2.253   0.196  -4.180  0.00  0.00    +0.230 C 
ATOM     31  C   UNL     1      -2.974   0.904  -5.328  0.00  0.00    +0.048 C 
ENDBRANCH  29  30
ENDBRANCH  27  29
ENDBRANCH  18  19
ENDBRANCH   4  18
TORSDOF 6
