REMARK  Name = ZINC64836281
REMARK  6 active torsions:
REMARK  status: ('A' for Active; 'I' for Inactive)
REMARK    1  A    between atoms: C_1  and  N_2
REMARK    2  A    between atoms: N_2  and  C_3
REMARK    3  A    between atoms: N_2  and  C_24
REMARK    4  A    between atoms: C_3  and  C_4
REMARK    5  A    between atoms: C_4  and  N_5
REMARK    6  A    between atoms: C_6  and  C_8
REMARK                            x       y       z     vdW  Elec       q    Type
REMARK                         _______ _______ _______ _____ _____    ______ ____
ROOT
ATOM      1  C   UNL     1       0.845  -0.852   6.061  0.00  0.00    +0.135 A 
ATOM      2  C   UNL     1       2.015  -1.524   5.922  0.00  0.00    +0.105 A 
ATOM      3  C   UNL     1       2.697  -1.992   7.076  0.00  0.00    +0.275 A 
ATOM      4  O   UNL     1       3.754  -2.600   6.973  0.00  0.00    -0.266 OA
ATOM      5  N   UNL     1       2.160  -1.752   8.277  0.00  0.00    -0.183 NA
ATOM      6  C   UNL     1       1.030  -1.101   8.387  0.00  0.00    +0.201 A 
ATOM      7  N   UNL     1       0.319  -0.617   7.326  0.00  0.00    -0.201 N 
ATOM      8  N   UNL     1      -0.860   0.058   7.630  0.00  0.00    -0.141 NA
ATOM      9  C   UNL     1      -1.255   0.218   8.866  0.00  0.00    +0.184 A 
ATOM     10  S   UNL     1       0.037  -0.608   9.780  0.00  0.00    -0.013 S 
ATOM     11  N   UNL     1      -2.386   0.855   9.343  0.00  0.00    -0.308 N 
ATOM     12  C   UNL     1      -3.348   1.466   8.415  0.00  0.00    +0.107 C 
ATOM     13  C   UNL     1      -4.744   0.914   8.717  0.00  0.00    +0.019 C 
ATOM     14  C   UNL     1      -5.068   1.137  10.196  0.00  0.00    +0.003 C 
ATOM     15  C   UNL     1      -4.054   0.386  11.061  0.00  0.00    +0.019 C 
ATOM     16  C   UNL     1      -2.653   0.927  10.786  0.00  0.00    +0.107 C 
ENDROOT
BRANCH   1  18
ATOM     17  N   UNL     1       0.637  -0.589   3.635  0.00  0.00    -0.312 N 
ATOM     18  C   UNL     1       0.130  -0.362   4.862  0.00  0.00    +0.263 C 
ATOM     19  O   UNL     1      -0.916   0.245   4.985  0.00  0.00    -0.269 OA
ATOM     20  H   UNL     1       1.472  -1.073   3.537  0.00  0.00    +0.149 HD
BRANCH  17  21
ATOM     21  C   UNL     1      -0.071  -0.103   2.448  0.00  0.00    +0.086 C 
BRANCH  21  22
ATOM     22  C   UNL     1       0.713  -0.491   1.192  0.00  0.00    -0.060 C 
BRANCH  22  24
ATOM     23  C   UNL     1      -0.018   1.465   0.010  0.00  0.00    -0.096 C 
ATOM     24  N   UNL     1       0.002  -0.004   0.002  0.00  0.00    +0.381 N 
ATOM     25  H   UNL     1      -0.945  -0.353   0.009  0.00  0.00    -0.082 HD
BRANCH  24  26
ATOM     26  C   UNL     1       0.690  -0.478  -1.207  0.00  0.00    -0.069 C 
ATOM     27  C   UNL     1      -0.050   0.029  -2.446  0.00  0.00    -0.015 C 
ATOM     28  C   UNL     1       0.666  -0.464  -3.705  0.00  0.00    -0.002 C 
ATOM     29  C   UNL     1       0.687  -1.994  -3.713  0.00  0.00    -0.000 C 
ATOM     30  C   UNL     1       1.427  -2.501  -2.474  0.00  0.00    -0.002 C 
ATOM     31  C   UNL     1       0.710  -2.008  -1.215  0.00  0.00    -0.015 C 
ENDBRANCH  24  26
ENDBRANCH  22  24
ENDBRANCH  21  22
ENDBRANCH  17  21
ENDBRANCH   1  18
TORSDOF 5
