REMARK  Name = ZINC12106293
REMARK  12 active torsions:
REMARK  status: ('A' for Active; 'I' for Inactive)
REMARK    1  A    between atoms: C_1  and  C_2
REMARK    2  A    between atoms: C_3  and  C_31
REMARK    3  A    between atoms: N_4  and  C_24
REMARK    4  A    between atoms: C_5  and  N_9
REMARK    5  A    between atoms: C_6  and  C_7
REMARK    6  A    between atoms: C_10  and  C_12
REMARK    7  A    between atoms: C_12  and  S_13
REMARK    8  A    between atoms: S_13  and  C_14
REMARK    9  A    between atoms: C_17  and  C_20
REMARK   10  A    between atoms: C_20  and  C_21
REMARK   11  A    between atoms: C_20  and  C_22
REMARK   12  A    between atoms: C_20  and  C_23
REMARK                            x       y       z     vdW  Elec       q    Type
REMARK                         _______ _______ _______ _____ _____    ______ ____
ROOT
ATOM      1  C   UNL     1       0.061  -0.019   0.966  0.00  0.00    +0.047 C 
ATOM      2  C   UNL     1      -0.694   1.079   1.669  0.00  0.00    -0.010 A 
ATOM      3  C   UNL     1      -0.204   2.267   2.058  0.00  0.00    +0.027 A 
ATOM      4  N   UNL     1      -1.199   2.992   2.662  0.00  0.00    -0.300 N 
ATOM      5  C   UNL     1      -2.356   2.278   2.673  0.00  0.00    +0.128 A 
ATOM      6  C   UNL     1      -2.111   1.059   2.056  0.00  0.00    +0.095 A 
ATOM      7  C   UNL     1       1.216   2.732   1.860  0.00  0.00    +0.064 C 
ENDROOT
BRANCH   4   8
ATOM      8  C   UNL     1      -1.045   4.282   3.191  0.00  0.00    +0.048 A 
ATOM      9  C   UNL     1      -0.256   4.482   4.315  0.00  0.00    +0.029 A 
ATOM     10  C   UNL     1      -0.102   5.754   4.832  0.00  0.00    +0.040 A 
ATOM     11  C   UNL     1      -0.742   6.827   4.235  0.00  0.00    +0.124 A 
ATOM     12  C   UNL     1      -1.534   6.628   3.117  0.00  0.00    +0.040 A 
ATOM     13  C   UNL     1      -1.687   5.359   2.594  0.00  0.00    +0.029 A 
ATOM     14  F   UNL     1      -0.594   8.069   4.745  0.00  0.00    -0.205 F 
ENDBRANCH   4   8
BRANCH   5  15
ATOM     15  N   UNL     1      -3.569   2.696   3.202  0.00  0.00    -0.270 N 
ATOM     16  C   UNL     1      -3.623   3.191   4.454  0.00  0.00    +0.229 C 
ATOM     17  O   UNL     1      -2.599   3.375   5.078  0.00  0.00    -0.275 OA
ATOM     18  H   UNL     1      -4.486   2.622   2.599  0.00  0.00    +0.156 HD
BRANCH  16  19
ATOM     19  C   UNL     1      -4.955   3.517   5.078  0.00  0.00    +0.173 C 
BRANCH  19  20
ATOM     20  S   UNL     1      -4.696   4.160   6.751  0.00  0.00    -0.077 S 
BRANCH  20  21
ATOM     21  C   UNL     1      -6.367   4.449   7.229  0.00  0.00    +0.185 A 
ATOM     22  N   UNL     1      -6.794   4.946   8.427  0.00  0.00    -0.205 NA
ATOM     23  H   UNL     1      -7.530   3.836   5.478  0.00  0.00    +0.191 HD
ATOM     24  C   UNL     1      -8.158   4.995   8.343  0.00  0.00    +0.157 A 
ATOM     25  N   UNL     1      -8.490   4.543   7.167  0.00  0.00    -0.156 NA
ATOM     26  N   UNL     1      -7.437   4.227   6.502  0.00  0.00    -0.254 N 
BRANCH  24  27
ATOM     27  C   UNL     1      -9.102   5.483   9.412  0.00  0.00    +0.024 C 
ATOM     28  C   UNL     1      -9.042   7.010   9.487  0.00  0.00    +0.019 C 
ATOM     29  C   UNL     1     -10.527   5.045   9.071  0.00  0.00    +0.019 C 
ATOM     30  C   UNL     1      -8.694   4.889  10.761  0.00  0.00    +0.019 C 
ENDBRANCH  24  27
ENDBRANCH  20  21
ENDBRANCH  19  20
ENDBRANCH  16  19
ENDBRANCH   5  15
BRANCH   6  31
ATOM     31  C   UNL     1      -3.047  -0.003   1.842  0.00  0.00    +0.103 C 
ATOM     32  N   UNL     1      -3.790  -0.845   1.673  0.00  0.00    -0.191 NA
ENDBRANCH   6  31
TORSDOF 7
