REMARK  Name = ZINC19775072
REMARK  4 active torsions:
REMARK  status: ('A' for Active; 'I' for Inactive)
REMARK    1  A    between atoms: C_4  and  N_8
REMARK    2  A    between atoms: C_9  and  C_11
REMARK    3  A    between atoms: C_11  and  N_12
REMARK    4  A    between atoms: C_16  and  C_19
REMARK                            x       y       z     vdW  Elec       q    Type
REMARK                         _______ _______ _______ _____ _____    ______ ____
ROOT
ATOM      1  N   UNL     1      -2.438   1.697   0.023  0.00  0.00    -0.285 N 
ATOM      2  C   UNL     1      -3.575   2.294   0.431  0.00  0.00    +0.201 C 
ATOM      3  O   UNL     1      -3.574   3.475   0.710  0.00  0.00    -0.278 OA
ATOM      4  H   UNL     1      -2.456   0.648  -0.309  0.00  0.00    +0.155 HD
ENDROOT
BRANCH   1   8
ATOM      5  C   UNL     1       1.145   3.827   0.020  0.00  0.00    +0.003 A 
ATOM      6  C   UNL     1       0.757   3.132   1.151  0.00  0.00    +0.022 A 
ATOM      7  C   UNL     1      -0.429   2.421   1.154  0.00  0.00    +0.064 A 
ATOM      8  C   UNL     1      -1.233   2.411   0.021  0.00  0.00    +0.070 A 
ATOM      9  C   UNL     1      -0.838   3.106  -1.114  0.00  0.00    +0.064 A 
ATOM     10  C   UNL     1       0.349   3.815  -1.110  0.00  0.00    +0.022 A 
ATOM     11 CL   UNL     1      -1.836   3.091  -2.534  0.00  0.00    -0.082 Cl
ATOM     12 CL   UNL     1      -0.915   1.548   2.573  0.00  0.00    -0.082 Cl
ENDBRANCH   1   8
BRANCH   2  13
ATOM     13  C   UNL     1      -4.849   1.496   0.540  0.00  0.00    +0.019 C 
BRANCH  13  14
ATOM     14  N   UNL     1      -5.936   2.369   1.002  0.00  0.00    +0.386 N 
ATOM     15  C   UNL     1      -6.251   3.393  -0.003  0.00  0.00    -0.078 C 
ATOM     16  C   UNL     1      -7.478   4.189   0.446  0.00  0.00    -0.018 C 
ATOM     17  C   UNL     1      -7.188   4.847   1.798  0.00  0.00    +0.011 C 
ATOM     18  C   UNL     1      -6.816   3.763   2.814  0.00  0.00    +0.086 C 
ATOM     19  C   UNL     1      -5.608   2.979   2.296  0.00  0.00    -0.063 C 
ATOM     20  H   UNL     1      -6.834   1.749   1.141  0.00  0.00    -0.081 HD
BRANCH  18  21
ATOM     21  C   UNL     1      -6.471   4.406   4.132  0.00  0.00    +0.357 C 
ATOM     22  O   UNL     1      -5.373   4.251   4.612  0.00  0.00    -0.246 OA
ATOM     23  O   UNL     1      -7.385   5.152   4.774  0.00  0.00    -0.246 OA
ENDBRANCH  18  21
ENDBRANCH  13  14
ENDBRANCH   2  13
TORSDOF 4
