REMARK  Name = ZINC12572669
REMARK  12 active torsions:
REMARK  status: ('A' for Active; 'I' for Inactive)
REMARK    1  A    between atoms: C_1  and  C_2
REMARK    2  A    between atoms: C_2  and  C_3
REMARK    3  A    between atoms: C_6  and  O_9
REMARK    4  A    between atoms: O_9  and  C_10
REMARK    5  A    between atoms: C_10  and  C_11
REMARK    6  A    between atoms: N_13  and  N_14
REMARK    7  A    between atoms: N_14  and  C_15
REMARK    8  A    between atoms: C_15  and  N_17
REMARK    9  A    between atoms: C_18  and  C_20
REMARK   10  A    between atoms: C_20  and  O_21
REMARK   11  A    between atoms: O_21  and  C_22
REMARK   12  A    between atoms: C_25  and  N_28
REMARK                            x       y       z     vdW  Elec       q    Type
REMARK                         _______ _______ _______ _____ _____    ______ ____
ROOT
ATOM      1  C   UNL     1       4.130   8.653   0.007  0.00  0.00    +0.153 C 
ATOM      2  S   UNL     1       3.886  10.348   0.018  0.00  0.00    -0.017 S 
ENDROOT
BRANCH   1   3
ATOM      3  N   UNL     1       5.381   8.153  -0.007  0.00  0.00    -0.264 N 
ATOM      4  C   UNL     1       6.440   8.986  -0.012  0.00  0.00    +0.256 C 
ATOM      5  O   UNL     1       6.267  10.186  -0.005  0.00  0.00    -0.272 OA
ATOM      6  H   UNL     1       5.519   7.193  -0.013  0.00  0.00    +0.157 HD
BRANCH   4   7
ATOM      7  C   UNL     1       7.839   8.427  -0.028  0.00  0.00    +0.324 C 
BRANCH   7   8
ATOM      8  O   UNL     1       8.782   9.501  -0.032  0.00  0.00    -0.483 OA
BRANCH   8   9
ATOM      9  C   UNL     1      10.099   9.165  -0.046  0.00  0.00    +0.121 A 
ATOM     10  C   UNL     1      10.476   7.830  -0.050  0.00  0.00    +0.048 A 
ATOM     11  C   UNL     1      11.815   7.492  -0.069  0.00  0.00    +0.036 A 
ATOM     12  C   UNL     1      12.780   8.483  -0.073  0.00  0.00    +0.126 A 
ATOM     13  C   UNL     1      12.406   9.815  -0.064  0.00  0.00    +0.036 A 
ATOM     14  C   UNL     1      11.068  10.158  -0.050  0.00  0.00    +0.048 A 
BRANCH  12  15
ATOM     15  N   UNL     1      14.214   8.118  -0.088  0.00  0.00    +0.056 N 
ATOM     16  O   UNL     1      15.064   8.991  -0.092  0.00  0.00    -0.126 OA
ATOM     17  O   UNL     1      14.544   6.946  -0.097  0.00  0.00    -0.126 OA
ENDBRANCH  12  15
ENDBRANCH   8   9
ENDBRANCH   7   8
ENDBRANCH   4   7
ENDBRANCH   1   3
BRANCH   1  18
ATOM     18  N   UNL     1       3.070   7.820   0.013  0.00  0.00    -0.245 N 
ATOM     19  H   UNL     1       2.170   8.180   0.024  0.00  0.00    +0.172 HD
BRANCH  18  22
ATOM     20  C   UNL     1       2.211   5.600   0.010  0.00  0.00    +0.267 C 
ATOM     21  O   UNL     1       1.085   6.051   0.023  0.00  0.00    -0.271 OA
ATOM     22  N   UNL     1       3.270   6.433   0.004  0.00  0.00    -0.232 N 
ATOM     23  H   UNL     1       4.171   6.073  -0.006  0.00  0.00    +0.173 HD
BRANCH  20  24
ATOM     24  C   UNL     1       2.426   4.108   0.001  0.00  0.00    +0.326 C 
BRANCH  24  25
ATOM     25  O   UNL     1       1.160   3.445   0.009  0.00  0.00    -0.483 OA
BRANCH  25  29
ATOM     26  C   UNL     1       1.208  -0.680  -0.013  0.00  0.00    -0.047 A 
ATOM     27  C   UNL     1       0.002  -0.004   0.002  0.00  0.00    +0.007 A 
ATOM     28  C   UNL     1      -0.017   1.377   0.010  0.00  0.00    +0.046 A 
ATOM     29  C   UNL     1       1.176   2.086   0.002  0.00  0.00    +0.121 A 
ATOM     30  C   UNL     1       2.385   1.405  -0.013  0.00  0.00    +0.046 A 
ATOM     31  C   UNL     1       2.398   0.024  -0.021  0.00  0.00    +0.007 A 
BRANCH  26  33
ATOM     32  C   UNL     1       1.217  -2.690  -1.466  0.00  0.00    +0.009 C 
ATOM     33  C   UNL     1       1.226  -2.187  -0.021  0.00  0.00    +0.032 C 
ENDBRANCH  26  33
ENDBRANCH  25  29
ENDBRANCH  24  25
ENDBRANCH  20  24
ENDBRANCH  18  22
ENDBRANCH   1  18
TORSDOF 11
