REMARK  Name = ZINC67293055
REMARK  5 active torsions:
REMARK  status: ('A' for Active; 'I' for Inactive)
REMARK    1  A    between atoms: C_1  and  C_2
REMARK    2  A    between atoms: C_4  and  N_9
REMARK    3  A    between atoms: C_11  and  C_21
REMARK    4  A    between atoms: N_23  and  C_24
REMARK    5  A    between atoms: C_24  and  C_25
REMARK                            x       y       z     vdW  Elec       q    Type
REMARK                         _______ _______ _______ _____ _____    ______ ____
ROOT
ATOM      1  N   UNL     1       0.031  -2.758  -2.395  0.00  0.00    -0.325 N 
ATOM      2  C   UNL     1       0.849  -3.773  -2.566  0.00  0.00    +0.212 A 
ATOM      3  C   UNL     1       0.799  -4.592  -3.794  0.00  0.00    +0.097 A 
ATOM      4  C   UNL     1       1.971  -5.231  -4.176  0.00  0.00    +0.030 A 
ATOM      5  C   UNL     1       3.151  -5.037  -3.329  0.00  0.00    +0.020 A 
ATOM      6  C   UNL     1       4.422  -5.416  -3.775  0.00  0.00    +0.031 A 
ATOM      7  C   UNL     1       5.516  -5.219  -2.960  0.00  0.00    +0.042 A 
ATOM      8  C   UNL     1       5.362  -4.647  -1.704  0.00  0.00    +0.023 A 
ATOM      9  C   UNL     1       4.113  -4.269  -1.252  0.00  0.00    +0.048 A 
ATOM     10  C   UNL     1       2.999  -4.460  -2.054  0.00  0.00    +0.138 A 
ATOM     11  O   UNL     1       1.770  -4.097  -1.622  0.00  0.00    -0.439 OA
ATOM     12 CL   UNL     1       7.095  -5.689  -3.506  0.00  0.00    -0.084 Cl
ATOM     13  H   UNL     1      -0.560  -2.485  -3.114  0.00  0.00    +0.169 HD
ENDROOT
BRANCH   1  17
ATOM     14  C   UNL     1      -0.036   1.488   0.040  0.00  0.00    +0.047 C 
ATOM     15  C   UNL     1      -0.020  -0.018   0.019  0.00  0.00    -0.013 A 
ATOM     16  C   UNL     1      -0.002  -0.690  -1.186  0.00  0.00    +0.031 A 
ATOM     17  C   UNL     1       0.014  -2.086  -1.204  0.00  0.00    +0.042 A 
ATOM     18  C   UNL     1       0.012  -2.795   0.001  0.00  0.00    +0.028 A 
ATOM     19  C   UNL     1      -0.006  -2.112   1.199  0.00  0.00    +0.040 A 
ATOM     20  C   UNL     1      -0.016  -0.726   1.210  0.00  0.00    +0.126 A 
ATOM     21  F   UNL     1      -0.028  -0.063   2.387  0.00  0.00    -0.205 F 
ENDBRANCH   1  17
BRANCH   3  22
ATOM     22  C   UNL     1      -0.440  -4.726  -4.579  0.00  0.00    +0.249 C 
ATOM     23  O   UNL     1      -1.427  -4.086  -4.270  0.00  0.00    -0.270 OA
ATOM     24  N   UNL     1      -0.480  -5.557  -5.639  0.00  0.00    -0.309 N 
ATOM     25  H   UNL     1       0.282  -6.123  -5.841  0.00  0.00    +0.149 HD
BRANCH  24  26
ATOM     26  C   UNL     1      -1.674  -5.607  -6.486  0.00  0.00    +0.136 C 
BRANCH  26  27
ATOM     27  C   UNL     1      -1.460  -6.624  -7.609  0.00  0.00    +0.135 C 
ATOM     28  C   UNL     1      -2.699  -6.667  -8.539  0.00  0.00    +0.035 C 
ATOM     29  C   UNL     1      -2.062  -7.188  -9.856  0.00  0.00    +0.031 C 
ATOM     30  C   UNL     1      -0.658  -6.546  -9.816  0.00  0.00    +0.160 C 
ATOM     31  O   UNL     1      -0.371  -6.214  -8.452  0.00  0.00    -0.375 OA
ENDBRANCH  26  27
ENDBRANCH  24  26
ENDBRANCH   3  22
TORSDOF 4
