REMARK  Name = ZINC39388460
REMARK  12 active torsions:
REMARK  status: ('A' for Active; 'I' for Inactive)
REMARK    1  A    between atoms: C_1  and  N_2
REMARK    2  A    between atoms: N_2  and  C_3
REMARK    3  A    between atoms: N_2  and  C_4
REMARK    4  A    between atoms: C_4  and  C_5
REMARK    5  A    between atoms: C_5  and  N_6
REMARK    6  A    between atoms: C_10  and  C_13
REMARK    7  A    between atoms: C_10  and  C_28
REMARK    8  A    between atoms: C_13  and  C_14
REMARK    9  A    between atoms: N_16  and  C_17
REMARK   10  A    between atoms: N_16  and  C_24
REMARK   11  A    between atoms: C_17  and  C_18
REMARK   12  A    between atoms: C_24  and  C_25
REMARK                            x       y       z     vdW  Elec       q    Type
REMARK                         _______ _______ _______ _____ _____    ______ ____
ROOT
ATOM      1  N   UNL     1       0.637  -0.589   3.635  0.00  0.00    -0.243 N 
ATOM      2  C   UNL     1       0.422  -1.800   4.162  0.00  0.00    +0.223 C 
ATOM      3  O   UNL     1      -0.361  -2.622   3.737  0.00  0.00    -0.275 OA
ATOM      4  C   UNL     1       1.312  -1.982   5.372  0.00  0.00    +0.117 C 
ATOM      5  C   UNL     1       2.087  -0.650   5.454  0.00  0.00    +0.091 C 
ATOM      6  C   UNL     1       1.557   0.141   4.278  0.00  0.00    +0.233 C 
ATOM      7  O   UNL     1       1.909   1.259   3.969  0.00  0.00    -0.274 OA
ENDROOT
BRANCH   5   8
ATOM      8  C   UNL     1       1.790   0.057   6.752  0.00  0.00    +0.004 A 
ATOM      9  C   UNL     1       2.818   0.355   7.627  0.00  0.00    +0.007 A 
ATOM     10  C   UNL     1       2.546   1.004   8.817  0.00  0.00    +0.000 A 
ATOM     11  C   UNL     1       1.247   1.355   9.133  0.00  0.00    +0.003 A 
ATOM     12  C   UNL     1       0.218   1.058   8.260  0.00  0.00    +0.038 A 
ATOM     13  C   UNL     1       0.490   0.413   7.065  0.00  0.00    +0.128 A 
ATOM     14  F   UNL     1      -0.515   0.126   6.208  0.00  0.00    -0.205 F 
ENDBRANCH   5   8
BRANCH   1  15
ATOM     15  C   UNL     1      -0.071  -0.103   2.448  0.00  0.00    +0.098 C 
BRANCH  15  16
ATOM     16  C   UNL     1       0.713  -0.491   1.192  0.00  0.00    -0.060 C 
BRANCH  16  18
ATOM     17  C   UNL     1      -0.018   1.465   0.010  0.00  0.00    -0.097 C 
ATOM     18  N   UNL     1       0.002  -0.004   0.002  0.00  0.00    +0.377 N 
ATOM     19  C   UNL     1       0.690  -0.478  -1.207  0.00  0.00    -0.097 C 
ATOM     20  H   UNL     1      -0.945  -0.353   0.009  0.00  0.00    -0.083 HD
ENDBRANCH  16  18
ENDBRANCH  15  16
ENDBRANCH   1  15
BRANCH   5  21
ATOM     21  C   UNL     1       3.590  -0.892   5.302  0.00  0.00    +0.117 C 
BRANCH  21  22
ATOM     22  C   UNL     1       4.321   0.423   5.386  0.00  0.00    +0.217 C 
ATOM     23  O   UNL     1       3.701   1.452   5.551  0.00  0.00    -0.276 OA
ATOM     24  N   UNL     1       5.664   0.456   5.277  0.00  0.00    -0.299 N 
BRANCH  24  25
ATOM     25  C   UNL     1       6.375   1.734   5.359  0.00  0.00    +0.139 C 
BRANCH  25  26
ATOM     26  C   UNL     1       6.741   2.022   6.816  0.00  0.00    +0.136 C 
ATOM     27  C   UNL     1       7.383   3.422   6.928  0.00  0.00    +0.035 C 
ATOM     28  C   UNL     1       8.508   3.186   7.971  0.00  0.00    +0.031 C 
ATOM     29  C   UNL     1       8.926   1.734   7.630  0.00  0.00    +0.160 C 
ATOM     30  O   UNL     1       7.704   1.065   7.273  0.00  0.00    -0.375 OA
ENDBRANCH  25  26
ENDBRANCH  24  25
BRANCH  24  31
ATOM     31  C   UNL     1       6.413  -0.787   5.078  0.00  0.00    +0.111 C 
BRANCH  31  32
ATOM     32  C   UNL     1       6.554  -1.063   3.579  0.00  0.00    +0.006 C 
ATOM     33  C   UNL     1       5.887  -2.324   3.027  0.00  0.00    +0.005 C 
ATOM     34  C   UNL     1       7.410  -2.259   3.159  0.00  0.00    +0.005 C 
ENDBRANCH  31  32
ENDBRANCH  24  31
ENDBRANCH  21  22
ENDBRANCH   5  21
TORSDOF 10
