REMARK  Name = ZINC11739926
REMARK  6 active torsions:
REMARK  status: ('A' for Active; 'I' for Inactive)
REMARK    1  A    between atoms: C_1  and  C_2
REMARK    2  A    between atoms: N_4  and  C_26
REMARK    3  A    between atoms: C_7  and  C_9
REMARK    4  A    between atoms: C_9  and  C_11
REMARK    5  A    between atoms: C_14  and  S_17
REMARK    6  A    between atoms: S_17  and  N_20
REMARK                            x       y       z     vdW  Elec       q    Type
REMARK                         _______ _______ _______ _____ _____    ______ ____
ROOT
ATOM      1  C   UNL     1      -3.091   1.670  -0.230  0.00  0.00    +0.200 C 
ATOM      2  O   UNL     1      -2.758   1.202   0.843  0.00  0.00    -0.286 OA
ENDROOT
BRANCH   1   9
ATOM      3  C   UNL     1      -1.639  -0.675  -1.734  0.00  0.00    +0.066 C 
ATOM      4  C   UNL     1      -1.454   0.800  -1.978  0.00  0.00    +0.046 A 
ATOM      5  N   UNL     1      -0.633   1.349  -2.892  0.00  0.00    -0.294 N 
ATOM      6  N   UNL     1      -0.720   2.743  -2.836  0.00  0.00    -0.219 N 
ATOM      7  C   UNL     1      -1.605   3.081  -1.875  0.00  0.00    +0.283 A 
ATOM      8  O   UNL     1      -1.932   4.207  -1.549  0.00  0.00    -0.265 OA
ATOM      9  C   UNL     1      -2.104   1.819  -1.304  0.00  0.00    +0.109 A 
ATOM     10  H   UNL     1      -0.065   0.851  -3.500  0.00  0.00    +0.187 HD
BRANCH   6  11
ATOM     11  C   UNL     1      -0.007   3.639  -3.640  0.00  0.00    +0.067 A 
ATOM     12  C   UNL     1      -0.180   5.007  -3.479  0.00  0.00    +0.028 A 
ATOM     13  C   UNL     1       0.525   5.889  -4.275  0.00  0.00    +0.002 A 
ATOM     14  C   UNL     1       1.402   5.410  -5.231  0.00  0.00    +0.000 A 
ATOM     15  C   UNL     1       1.576   4.048  -5.394  0.00  0.00    +0.002 A 
ATOM     16  C   UNL     1       0.879   3.161  -4.596  0.00  0.00    +0.028 A 
ENDBRANCH   6  11
ENDBRANCH   1   9
BRANCH   1  17
ATOM     17  C   UNL     1      -4.492   2.090  -0.450  0.00  0.00    +0.023 A 
ATOM     18  C   UNL     1      -4.899   2.541  -1.707  0.00  0.00    +0.013 A 
ATOM     19  C   UNL     1      -6.208   2.931  -1.906  0.00  0.00    +0.029 A 
ATOM     20  C   UNL     1      -7.115   2.875  -0.863  0.00  0.00    +0.106 A 
ATOM     21  C   UNL     1      -6.718   2.429   0.385  0.00  0.00    +0.029 A 
ATOM     22  C   UNL     1      -5.415   2.030   0.596  0.00  0.00    +0.013 A 
BRANCH  20  23
ATOM     23  S   UNL     1      -8.784   3.376  -1.125  0.00  0.00    +0.061 S 
ATOM     24  O   UNL     1      -9.302   3.746   0.146  0.00  0.00    -0.153 OA
ATOM     25  O   UNL     1      -8.772   4.267  -2.232  0.00  0.00    -0.153 OA
BRANCH  23  26
ATOM     26  N   UNL     1      -9.628   2.035  -1.607  0.00  0.00    -0.177 NA
ATOM     27  C   UNL     1      -9.735   1.690  -3.031  0.00  0.00    +0.109 C 
ATOM     28  C   UNL     1      -9.271   0.243  -3.224  0.00  0.00    +0.017 C 
ATOM     29  C   UNL     1     -10.069  -0.673  -2.294  0.00  0.00    +0.003 C 
ATOM     30  C   UNL     1      -9.813  -0.274  -0.839  0.00  0.00    +0.017 C 
ATOM     31  C   UNL     1     -10.278   1.164  -0.619  0.00  0.00    +0.109 C 
ENDBRANCH  23  26
ENDBRANCH  20  23
ENDBRANCH   1  17
TORSDOF 5
