REMARK  Name = ZINC33373527
REMARK  5 active torsions:
REMARK  status: ('A' for Active; 'I' for Inactive)
REMARK    1  A    between atoms: C_1  and  C_2
REMARK    2  A    between atoms: C_2  and  N_3
REMARK    3  A    between atoms: C_17  and  S_18
REMARK    4  A    between atoms: S_18  and  C_19
REMARK    5  A    between atoms: C_19  and  C_20
REMARK                            x       y       z     vdW  Elec       q    Type
REMARK                         _______ _______ _______ _____ _____    ______ ____
ROOT
ATOM      1  N   UNL     1      -2.547   1.323   0.035  0.00  0.00    -0.308 N 
ATOM      2  C   UNL     1      -1.224   1.754   0.017  0.00  0.00    +0.069 A 
ATOM      3  C   UNL     1      -0.013   1.076   0.008  0.00  0.00    +0.028 A 
ATOM      4  C   UNL     1       1.173   1.784   0.000  0.00  0.00    +0.002 A 
ATOM      5  C   UNL     1       1.160   3.167   0.008  0.00  0.00    +0.002 A 
ATOM      6  C   UNL     1      -0.040   3.852   0.022  0.00  0.00    +0.028 A 
ATOM      7  C   UNL     1      -1.236   3.149   0.030  0.00  0.00    +0.076 A 
ATOM      8  N   UNL     1      -2.571   3.558   0.045  0.00  0.00    -0.244 N 
ATOM      9  C   UNL     1      -3.365   2.438   0.047  0.00  0.00    +0.237 A 
ATOM     10  N   UNL     1      -4.620   2.806   0.061  0.00  0.00    -0.124 NA
ATOM     11  N   UNL     1      -4.682   4.200   0.068  0.00  0.00    -0.169 N 
ATOM     12  C   UNL     1      -3.396   4.667   0.058  0.00  0.00    +0.261 A 
ATOM     13  N   UNL     1      -3.461   5.977   0.064  0.00  0.00    -0.107 NA
ATOM     14  N   UNL     1      -4.691   6.354   0.077  0.00  0.00    -0.119 NA
ATOM     15  C   UNL     1      -5.481   5.305   0.080  0.00  0.00    +0.214 A 
ENDROOT
BRANCH   1  17
ATOM     16  C   UNL     1      -3.167  -0.550  -1.412  0.00  0.00    +0.027 C 
ATOM     17  C   UNL     1      -2.997  -0.071   0.032  0.00  0.00    +0.122 C 
ENDBRANCH   1  17
BRANCH  15  18
ATOM     18  S   UNL     1      -7.242   5.323   0.096  0.00  0.00    -0.073 S 
BRANCH  18  19
ATOM     19  C   UNL     1      -7.664   7.087   0.107  0.00  0.00    +0.202 C 
BRANCH  19  20
ATOM     20  C   UNL     1      -9.162   7.245   0.121  0.00  0.00    +0.366 C 
ATOM     21  O   UNL     1      -9.873   6.268   0.123  0.00  0.00    -0.245 OA
ATOM     22  O   UNL     1      -9.707   8.472   0.132  0.00  0.00    -0.245 OA
ENDBRANCH  19  20
ENDBRANCH  18  19
ENDBRANCH  15  18
TORSDOF 4
