REMARK  Name = ZINC63869467
REMARK  6 active torsions:
REMARK  status: ('A' for Active; 'I' for Inactive)
REMARK    1  A    between atoms: C_7  and  C_10
REMARK    2  A    between atoms: C_10  and  C_11
REMARK    3  A    between atoms: N_15  and  C_19
REMARK    4  A    between atoms: C_19  and  C_20
REMARK    5  A    between atoms: N_22  and  C_23
REMARK    6  A    between atoms: C_24  and  C_33
REMARK                            x       y       z     vdW  Elec       q    Type
REMARK                         _______ _______ _______ _____ _____    ______ ____
ROOT
ATOM      1  C   UNL     1       0.457  -3.653  -1.462  0.00  0.00    +0.165 C 
ATOM      2  C   UNL     1      -0.432  -4.881  -1.485  0.00  0.00    +0.244 C 
ATOM      3  O   UNL     1      -0.201  -5.962  -0.985  0.00  0.00    -0.273 OA
ATOM      4  N   UNL     1      -1.531  -4.523  -2.176  0.00  0.00    -0.216 N 
ATOM      5  C   UNL     1      -1.462  -3.252  -2.589  0.00  0.00    +0.310 C 
ATOM      6  O   UNL     1      -2.335  -2.702  -3.231  0.00  0.00    -0.252 OA
ATOM      7  N   UNL     1      -0.315  -2.649  -2.214  0.00  0.00    -0.287 N 
ATOM      8  H   UNL     1      -0.050  -1.735  -2.401  0.00  0.00    +0.151 HD
ENDROOT
BRANCH   1   9
ATOM      9  C   UNL     1       0.691  -3.186  -0.024  0.00  0.00    +0.065 C 
BRANCH   9  16
ATOM     10  C   UNL     1      -0.016   1.348   0.009  0.00  0.00    +0.001 A 
ATOM     11  C   UNL     1       1.166   2.101   0.002  0.00  0.00    +0.002 A 
ATOM     12  C   UNL     1       2.391   1.535  -0.013  0.00  0.00    +0.026 A 
ATOM     13  C   UNL     1       2.529   0.120  -0.022  0.00  0.00    +0.043 A 
ATOM     14  N   UNL     1       3.587  -0.654  -0.037  0.00  0.00    -0.380 N 
ATOM     15  C   UNL     1       3.143  -2.053  -0.041  0.00  0.00    +0.144 C 
ATOM     16  C   UNL     1       1.631  -2.008  -0.025  0.00  0.00    -0.039 C 
ATOM     17  C   UNL     1       1.295  -0.698  -0.014  0.00  0.00    -0.001 A 
ATOM     18  C   UNL     1       0.002  -0.004   0.002  0.00  0.00    +0.010 A 
ATOM     19  H   UNL     1       4.509  -0.353  -0.045  0.00  0.00    +0.160 HD
ENDBRANCH   9  16
ENDBRANCH   1   9
BRANCH   4  20
ATOM     20  C   UNL     1      -2.663  -5.415  -2.444  0.00  0.00    +0.214 C 
BRANCH  20  21
ATOM     21  C   UNL     1      -3.670  -5.296  -1.330  0.00  0.00    +0.236 C 
ATOM     22  O   UNL     1      -3.464  -4.541  -0.403  0.00  0.00    -0.274 OA
ATOM     23  N   UNL     1      -4.801  -6.029  -1.363  0.00  0.00    -0.278 N 
ATOM     24  H   UNL     1      -4.966  -6.633  -2.104  0.00  0.00    +0.155 HD
BRANCH  23  25
ATOM     25  C   UNL     1      -5.729  -5.920  -0.336  0.00  0.00    +0.090 A 
ATOM     26  C   UNL     1      -6.930  -6.592  -0.201  0.00  0.00    +0.084 A 
ATOM     27  C   UNL     1      -7.733  -6.299   0.978  0.00  0.00    -0.018 A 
ATOM     28  C   UNL     1      -7.183  -5.381   1.800  0.00  0.00    -0.004 A 
ATOM     29  S   UNL     1      -5.648  -4.948   1.030  0.00  0.00    -0.077 S 
ATOM     30  C   UNL     1      -7.747  -4.841   3.077  0.00  0.00    +0.043 C 
ATOM     31  C   UNL     1      -8.211  -6.010   3.956  0.00  0.00    +0.005 C 
ATOM     32  C   UNL     1      -9.663  -6.330   3.615  0.00  0.00    +0.001 C 
ATOM     33  C   UNL     1      -9.929  -6.065   2.135  0.00  0.00    +0.005 C 
ATOM     34  C   UNL     1      -9.066  -6.975   1.267  0.00  0.00    +0.037 C 
BRANCH  26  35
ATOM     35  C   UNL     1      -7.368  -7.538  -1.182  0.00  0.00    +0.102 C 
ATOM     36  N   UNL     1      -7.715  -8.289  -1.961  0.00  0.00    -0.191 NA
ENDBRANCH  26  35
ENDBRANCH  23  25
ENDBRANCH  20  21
ENDBRANCH   4  20
TORSDOF 6
