REMARK  Name = ZINC41514749
REMARK  7 active torsions:
REMARK  status: ('A' for Active; 'I' for Inactive)
REMARK    1  A    between atoms: C_1  and  N_2
REMARK    2  A    between atoms: N_2  and  C_3
REMARK    3  A    between atoms: N_2  and  C_10
REMARK    4  A    between atoms: C_3  and  C_4
REMARK    5  A    between atoms: C_10  and  C_11
REMARK    6  A    between atoms: C_12  and  O_34
REMARK    7  A    between atoms: C_21  and  C_22
REMARK                            x       y       z     vdW  Elec       q    Type
REMARK                         _______ _______ _______ _____ _____    ______ ____
ROOT
ATOM      1  C   UNL     1       2.137  -0.060  -1.158  0.00  0.00    +0.020 A 
ATOM      2  C   UNL     1       2.526   1.159  -1.689  0.00  0.00    +0.122 A 
ATOM      3  C   UNL     1       3.861   1.554  -1.649  0.00  0.00    +0.046 A 
ATOM      4  C   UNL     1       4.804   0.743  -1.084  0.00  0.00    +0.016 A 
ATOM      5  C   UNL     1       4.428  -0.488  -0.544  0.00  0.00    +0.026 A 
ATOM      6  C   UNL     1       3.082  -0.891  -0.576  0.00  0.00    +0.144 A 
ATOM      7  O   UNL     1       2.720  -2.081  -0.049  0.00  0.00    -0.422 OA
ATOM      8  C   UNL     1       3.612  -2.907   0.521  0.00  0.00    +0.338 A 
ATOM      9  O   UNL     1       3.228  -3.968   0.980  0.00  0.00    -0.245 OA
ATOM     10  C   UNL     1       4.975  -2.583   0.601  0.00  0.00    +0.101 A 
ATOM     11  C   UNL     1       5.423  -1.384   0.071  0.00  0.00    +0.006 A 
ENDROOT
BRANCH  11  12
ATOM     12  C   UNL     1       6.848  -1.008   0.136  0.00  0.00    +0.068 A 
ATOM     13  C   UNL     1       7.826  -1.779  -0.473  0.00  0.00    +0.027 A 
ATOM     14  C   UNL     1       9.179  -1.371  -0.340  0.00  0.00    +0.019 A 
ATOM     15  C   UNL     1      10.186  -1.990  -1.094  0.00  0.00    +0.026 A 
ATOM     16  C   UNL     1      11.477  -1.557  -0.986  0.00  0.00    +0.019 A 
ATOM     17  C   UNL     1      11.803  -0.513  -0.129  0.00  0.00    +0.019 A 
ATOM     18  C   UNL     1      10.830   0.096   0.636  0.00  0.00    +0.048 A 
ATOM     19  C   UNL     1       9.513  -0.332   0.548  0.00  0.00    +0.139 A 
ATOM     20  O   UNL     1       8.556   0.231   1.326  0.00  0.00    -0.422 OA
ATOM     21  C   UNL     1       7.288   0.207   0.848  0.00  0.00    +0.345 A 
ATOM     22  O   UNL     1       6.537   1.152   1.002  0.00  0.00    -0.245 OA
ATOM     23 BR   UNL     1      12.833  -2.386  -2.010  0.00  0.00    -0.050 Br
ENDBRANCH  11  12
BRANCH   2  24
ATOM     24  O   UNL     1       1.599   1.975  -2.254  0.00  0.00    -0.506 OA
ATOM     25  H   UNL     1       1.193   2.596  -1.635  0.00  0.00    +0.292 HD
ENDBRANCH   2  24
BRANCH   1  26
ATOM     26  C   UNL     1       0.690  -0.478  -1.207  0.00  0.00    -0.035 C 
BRANCH  26  28
ATOM     27  C   UNL     1      -0.018   1.465   0.010  0.00  0.00    -0.095 C 
ATOM     28  N   UNL     1       0.002  -0.004   0.002  0.00  0.00    +0.383 N 
ATOM     29  H   UNL     1       0.490  -0.338   0.820  0.00  0.00    -0.081 HD
BRANCH  28  30
ATOM     30  C   UNL     1      -1.376  -0.512   0.012  0.00  0.00    -0.043 C 
BRANCH  30  31
ATOM     31  C   UNL     1      -2.043  -0.130   1.309  0.00  0.00    -0.064 A 
ATOM     32  C   UNL     1      -1.964  -0.973   2.402  0.00  0.00    +0.002 A 
ATOM     33  C   UNL     1      -2.575  -0.622   3.591  0.00  0.00    +0.000 A 
ATOM     34  C   UNL     1      -3.266   0.572   3.687  0.00  0.00    +0.000 A 
ATOM     35  C   UNL     1      -3.344   1.415   2.594  0.00  0.00    +0.000 A 
ATOM     36  C   UNL     1      -2.729   1.066   1.406  0.00  0.00    +0.002 A 
ENDBRANCH  30  31
ENDBRANCH  28  30
ENDBRANCH  26  28
ENDBRANCH   1  26
TORSDOF 6
