REMARK  Name = ZINC03240499
REMARK  5 active torsions:
REMARK  status: ('A' for Active; 'I' for Inactive)
REMARK    1  A    between atoms: C_2  and  C_9
REMARK    2  A    between atoms: C_9  and  O_11
REMARK    3  A    between atoms: O_11  and  C_12
REMARK    4  A    between atoms: C_12  and  C_13
REMARK    5  A    between atoms: N_15  and  C_16
REMARK                            x       y       z     vdW  Elec       q    Type
REMARK                         _______ _______ _______ _____ _____    ______ ____
ROOT
ATOM      1  C   UNL     1      -0.014   1.208   0.002  0.00  0.00    +0.255 C 
ATOM      2  O   UNL     1       0.003  -0.004  -0.001  0.00  0.00    -0.272 OA
ATOM      3  N   UNL     1       1.143   1.898   0.001  0.00  0.00    -0.281 N 
ATOM      4  H   UNL     1       1.131   2.866  -0.062  0.00  0.00    +0.155 HD
ENDROOT
BRANCH   3   5
ATOM      5  C   UNL     1       2.364   1.218   0.092  0.00  0.00    +0.053 A 
ATOM      6  C   UNL     1       2.513  -0.025  -0.508  0.00  0.00    +0.046 A 
ATOM      7  C   UNL     1       3.719  -0.694  -0.417  0.00  0.00    +0.061 A 
ATOM      8  C   UNL     1       4.779  -0.125   0.270  0.00  0.00    +0.061 A 
ATOM      9  C   UNL     1       4.632   1.113   0.869  0.00  0.00    +0.043 A 
ATOM     10  C   UNL     1       3.430   1.789   0.776  0.00  0.00    +0.064 A 
ATOM     11 CL   UNL     1       3.249   3.347   1.521  0.00  0.00    -0.082 Cl
ATOM     12 CL   UNL     1       6.292  -0.968   0.382  0.00  0.00    -0.082 Cl
ATOM     13 CL   UNL     1       3.907  -2.249  -1.167  0.00  0.00    -0.082 Cl
ENDBRANCH   3   5
BRANCH   1  14
ATOM     14  C   UNL     1      -1.330   1.944   0.001  0.00  0.00    +0.328 C 
BRANCH  14  15
ATOM     15  O   UNL     1      -2.420   0.985  -0.004  0.00  0.00    -0.452 OA
BRANCH  15  16
ATOM     16  C   UNL     1      -3.672   1.482  -0.006  0.00  0.00    +0.341 C 
ATOM     17  O   UNL     1      -3.848   2.684  -0.004  0.00  0.00    -0.245 OA
BRANCH  16  19
ATOM     18  C   UNL     1      -6.137   1.071  -0.008  0.00  0.00    +0.039 A 
ATOM     19  C   UNL     1      -4.830   0.566  -0.012  0.00  0.00    +0.079 A 
ATOM     20  C   UNL     1      -4.641  -0.817  -0.015  0.00  0.00    +0.127 A 
ATOM     21  N   UNL     1      -5.673  -1.634  -0.019  0.00  0.00    -0.241 NA
ATOM     22  C   UNL     1      -6.916  -1.188  -0.021  0.00  0.00    +0.147 A 
ATOM     23  C   UNL     1      -7.188   0.171  -0.019  0.00  0.00    +0.078 A 
ATOM     24 CL   UNL     1      -8.829   0.738  -0.022  0.00  0.00    -0.080 Cl
ATOM     25 CL   UNL     1      -8.230  -2.323  -0.028  0.00  0.00    -0.060 Cl
ENDBRANCH  16  19
ENDBRANCH  15  16
ENDBRANCH  14  15
ENDBRANCH   1  14
TORSDOF 5
