REMARK  Name = ZINC36530940
REMARK  9 active torsions:
REMARK  status: ('A' for Active; 'I' for Inactive)
REMARK    1  A    between atoms: C_1  and  N_2
REMARK    2  A    between atoms: N_2  and  C_3
REMARK    3  A    between atoms: C_3  and  C_5
REMARK    4  A    between atoms: C_3  and  C_12
REMARK    5  A    between atoms: C_9  and  O_11
REMARK    6  A    between atoms: N_14  and  C_15
REMARK    7  A    between atoms: C_21  and  C_23
REMARK    8  A    between atoms: C_24  and  O_30
REMARK    9  A    between atoms: C_28  and  O_29
REMARK                            x       y       z     vdW  Elec       q    Type
REMARK                         _______ _______ _______ _____ _____    ______ ____
ROOT
ATOM      1  C   UNL     1       0.135  -0.742   1.261  0.00  0.00    +0.192 C 
ENDROOT
BRANCH   1   2
ATOM      2  C   UNL     1       1.368  -0.274   1.989  0.00  0.00    -0.015 A 
ATOM      3  C   UNL     1       2.425  -1.144   2.186  0.00  0.00    +0.006 A 
ATOM      4  C   UNL     1       3.558  -0.718   2.854  0.00  0.00    +0.004 A 
ATOM      5  C   UNL     1       3.637   0.578   3.327  0.00  0.00    +0.045 A 
ATOM      6  C   UNL     1       2.578   1.452   3.131  0.00  0.00    +0.117 A 
ATOM      7  C   UNL     1       1.444   1.024   2.455  0.00  0.00    +0.051 A 
BRANCH   6   8
ATOM      8  O   UNL     1       2.653   2.727   3.595  0.00  0.00    -0.507 OA
ATOM      9  H   UNL     1       3.030   3.354   2.963  0.00  0.00    +0.292 HD
ENDBRANCH   6   8
ENDBRANCH   1   2
BRANCH   1  11
ATOM     10  C   UNL     1      -0.506   1.585   0.478  0.00  0.00    +0.133 C 
ATOM     11  N   UNL     1      -0.174   0.191   0.174  0.00  0.00    -0.285 N 
ATOM     12  C   UNL     1      -0.151  -0.233  -1.105  0.00  0.00    +0.254 C 
ATOM     13  O   UNL     1       0.125  -1.390  -1.357  0.00  0.00    -0.270 OA
BRANCH  12  14
ATOM     14  C   UNL     1      -0.461   0.705  -2.197  0.00  0.00    +0.119 A 
ATOM     15  C   UNL     1       0.563   1.447  -2.803  0.00  0.00    +0.133 A 
ATOM     16  C   UNL     1       0.261   2.326  -3.830  0.00  0.00    +0.046 A 
ATOM     17  C   UNL     1      -1.046   2.473  -4.258  0.00  0.00    +0.007 A 
ATOM     18  C   UNL     1      -2.063   1.747  -3.668  0.00  0.00    +0.046 A 
ATOM     19  C   UNL     1      -1.782   0.858  -2.643  0.00  0.00    +0.133 A 
BRANCH  19  20
ATOM     20  O   UNL     1      -2.781   0.142  -2.069  0.00  0.00    -0.506 OA
ATOM     21  H   UNL     1      -3.196   0.580  -1.313  0.00  0.00    +0.292 HD
ENDBRANCH  19  20
BRANCH  15  22
ATOM     22  O   UNL     1       1.846   1.305  -2.384  0.00  0.00    -0.506 OA
ATOM     23  H   UNL     1       2.338   0.616  -2.852  0.00  0.00    +0.292 HD
ENDBRANCH  15  22
ENDBRANCH  12  14
ENDBRANCH   1  11
BRANCH   1  24
ATOM     24  C   UNL     1      -1.026  -0.796   2.221  0.00  0.00    +0.238 C 
ATOM     25  O   UNL     1      -2.013  -0.121   2.018  0.00  0.00    -0.273 OA
ATOM     26  N   UNL     1      -0.966  -1.594   3.305  0.00  0.00    -0.311 N 
ATOM     27  H   UNL     1      -0.177  -2.133   3.468  0.00  0.00    +0.149 HD
BRANCH  26  28
ATOM     28  C   UNL     1      -2.094  -1.646   4.239  0.00  0.00    +0.073 C 
ATOM     29  C   UNL     1      -1.971  -0.506   5.252  0.00  0.00    +0.022 C 
ATOM     30  C   UNL     1      -3.149  -0.561   6.227  0.00  0.00    +0.002 C 
ATOM     31  C   UNL     1      -3.140  -1.902   6.964  0.00  0.00    +0.000 C 
ATOM     32  C   UNL     1      -3.263  -3.042   5.950  0.00  0.00    +0.002 C 
ATOM     33  C   UNL     1      -2.084  -2.987   4.976  0.00  0.00    +0.022 C 
ENDBRANCH  26  28
ENDBRANCH   1  24
TORSDOF 8
