REMARK  Name = ZINC38508895
REMARK  12 active torsions:
REMARK  status: ('A' for Active; 'I' for Inactive)
REMARK    1  A    between atoms: C_1  and  C_2
REMARK    2  A    between atoms: N_11  and  C_12
REMARK    3  A    between atoms: C_12  and  C_13
REMARK    4  A    between atoms: C_13  and  C_14
REMARK    5  A    between atoms: C_14  and  N_15
REMARK    6  A    between atoms: N_15  and  C_16
REMARK    7  A    between atoms: N_15  and  C_17
REMARK    8  A    between atoms: C_18  and  C_20
REMARK    9  A    between atoms: C_22  and  C_28
REMARK   10  A    between atoms: N_23  and  C_25
REMARK   11  A    between atoms: C_25  and  C_26
REMARK   12  A    between atoms: C_25  and  C_27
REMARK                            x       y       z     vdW  Elec       q    Type
REMARK                         _______ _______ _______ _____ _____    ______ ____
ROOT
ATOM      1  C   UNL     1       0.009   1.494  -0.058  0.00  0.00    +0.044 C 
ATOM      2  C   UNL     1       0.028  -0.013  -0.054  0.00  0.00    -0.049 A 
ATOM      3  C   UNL     1       0.045  -0.717  -1.250  0.00  0.00    +0.005 A 
ATOM      4  C   UNL     1       0.062  -2.087  -1.274  0.00  0.00    +0.029 A 
ATOM      5  C   UNL     1       0.064  -2.831  -0.071  0.00  0.00    +0.080 A 
ATOM      6  C   UNL     1       0.047  -2.080   1.127  0.00  0.00    +0.041 A 
ATOM      7  C   UNL     1       0.035  -0.708   1.141  0.00  0.00    +0.020 A 
ATOM      8  S   UNL     1       0.055  -3.351   2.369  0.00  0.00    -0.052 S 
ATOM      9  C   UNL     1       0.080  -4.751   1.259  0.00  0.00    +0.168 A 
ATOM     10  N   UNL     1       0.080  -4.173   0.080  0.00  0.00    -0.224 NA
ATOM     11  N   UNL     1       0.095  -6.101   1.564  0.00  0.00    -0.245 N 
ATOM     12  C   UNL     1       0.092  -6.501   2.851  0.00  0.00    +0.272 C 
ATOM     13  O   UNL     1      -0.008  -5.680   3.743  0.00  0.00    -0.268 OA
ENDROOT
BRANCH  12  14
ATOM     14  C   UNL     1       0.212  -7.936   3.179  0.00  0.00    +0.148 A 
ATOM     15  C   UNL     1       0.122  -8.516   4.466  0.00  0.00    +0.057 A 
ATOM     16  C   UNL     1       0.291  -9.845   4.277  0.00  0.00    +0.037 A 
ATOM     17  N   UNL     1       0.471 -10.041   2.953  0.00  0.00    -0.265 N 
ATOM     18  N   UNL     1       0.417  -8.921   2.326  0.00  0.00    -0.166 NA
ATOM     19  C   UNL     1       0.282 -10.909   5.344  0.00  0.00    +0.065 C 
BRANCH  17  20
ATOM     20  C   UNL     1       0.692 -11.344   2.320  0.00  0.00    +0.101 C 
ATOM     21  C   UNL     1      -0.423 -11.615   1.308  0.00  0.00    +0.032 C 
ATOM     22  C   UNL     1       2.043 -11.341   1.603  0.00  0.00    +0.032 C 
ENDBRANCH  17  20
ENDBRANCH  12  14
BRANCH  11  23
ATOM     23  C   UNL     1       0.114  -7.095   0.488  0.00  0.00    +0.114 C 
BRANCH  23  24
ATOM     24  C   UNL     1       1.553  -7.307   0.015  0.00  0.00    +0.001 C 
BRANCH  24  25
ATOM     25  C   UNL     1       1.573  -8.345  -1.109  0.00  0.00    -0.078 C 
BRANCH  25  26
ATOM     26  N   UNL     1       2.955  -8.548  -1.563  0.00  0.00    +0.376 N 
ATOM     27  C   UNL     1       3.747  -9.138  -0.475  0.00  0.00    -0.097 C 
ATOM     28  C   UNL     1       2.962  -9.453  -2.720  0.00  0.00    -0.097 C 
ATOM     29  H   UNL     1       3.356  -7.661  -1.828  0.00  0.00    -0.083 HD
ENDBRANCH  25  26
ENDBRANCH  24  25
ENDBRANCH  23  24
ENDBRANCH  11  23
TORSDOF 6
