REMARK  Name = ZINC34856017
REMARK  9 active torsions:
REMARK  status: ('A' for Active; 'I' for Inactive)
REMARK    1  A    between atoms: C_1  and  C_2
REMARK    2  A    between atoms: C_2  and  C_3
REMARK    3  A    between atoms: C_3  and  C_4
REMARK    4  A    between atoms: C_4  and  N_5
REMARK    5  A    between atoms: C_13  and  C_15
REMARK    6  A    between atoms: C_20  and  S_22
REMARK    7  A    between atoms: S_22  and  C_23
REMARK    8  A    between atoms: C_23  and  C_24
REMARK    9  A    between atoms: C_29  and  C_32
REMARK                            x       y       z     vdW  Elec       q    Type
REMARK                         _______ _______ _______ _____ _____    ______ ____
ROOT
ATOM      1  N   UNL     1       1.473  -2.526   2.419  0.00  0.00    -0.299 N 
ATOM      2  C   UNL     1       1.615  -3.850   2.625  0.00  0.00    +0.303 C 
ATOM      3  O   UNL     1       1.077  -4.643   1.876  0.00  0.00    -0.253 OA
ATOM      4  N   UNL     1       2.352  -4.296   3.661  0.00  0.00    -0.280 N 
ATOM      5  C   UNL     1       2.910  -3.354   4.642  0.00  0.00    +0.128 C 
ATOM      6  C   UNL     1       4.426  -3.572   4.723  0.00  0.00    +0.125 C 
ATOM      7  N   UNL     1       4.686  -5.008   4.893  0.00  0.00    -0.312 N 
ATOM      8  C   UNL     1       4.128  -5.950   3.912  0.00  0.00    +0.128 C 
ATOM      9  C   UNL     1       2.607  -5.733   3.835  0.00  0.00    +0.092 C 
ATOM     10  C   UNL     1       1.948  -6.219   5.127  0.00  0.00    +0.030 C 
ATOM     11  C   UNL     1       5.444  -5.467   5.958  0.00  0.00    +0.127 A 
ATOM     12  C   UNL     1       5.797  -4.605   6.998  0.00  0.00    +0.083 A 
ATOM     13  C   UNL     1       6.554  -5.106   8.041  0.00  0.00    +0.135 A 
ATOM     14  N   UNL     1       6.919  -6.381   8.024  0.00  0.00    -0.210 NA
ATOM     15  C   UNL     1       6.569  -7.175   7.023  0.00  0.00    +0.192 A 
ATOM     16  N   UNL     1       5.840  -6.734   6.008  0.00  0.00    -0.207 NA
ATOM     17 CL   UNL     1       7.022  -4.077   9.359  0.00  0.00    -0.062 Cl
ATOM     18  H   UNL     1       1.840  -1.893   3.057  0.00  0.00    +0.150 HD
ENDROOT
BRANCH   1  19
ATOM     19  C   UNL     1       0.766  -2.040   1.231  0.00  0.00    +0.106 C 
BRANCH  19  20
ATOM     20  C   UNL     1       0.747  -0.510   1.238  0.00  0.00    +0.018 C 
BRANCH  20  22
ATOM     21  C   UNL     1      -0.011   1.526   0.005  0.00  0.00    +0.004 C 
ATOM     22  C   UNL     1       0.008  -0.004  -0.002  0.00  0.00    -0.002 C 
ENDBRANCH  20  22
ENDBRANCH  19  20
ENDBRANCH   1  19
BRANCH  15  23
ATOM     23  S   UNL     1       7.079  -8.862   7.046  0.00  0.00    -0.077 S 
BRANCH  23  24
ATOM     24  C   UNL     1       8.024  -9.014   8.587  0.00  0.00    +0.173 C 
BRANCH  24  25
ATOM     25  C   UNL     1       8.524 -10.427   8.732  0.00  0.00    +0.226 C 
ATOM     26  O   UNL     1       8.269 -11.252   7.880  0.00  0.00    -0.275 OA
ATOM     27  N   UNL     1       9.256 -10.776   9.809  0.00  0.00    -0.301 N 
ATOM     28  C   UNL     1       9.568  -9.790  10.853  0.00  0.00    +0.108 C 
ATOM     29  C   UNL     1      11.084  -9.768  11.072  0.00  0.00    +0.022 C 
ATOM     30  C   UNL     1      11.573 -11.185  11.379  0.00  0.00    -0.011 C 
ATOM     31  C   UNL     1      11.270 -12.100  10.190  0.00  0.00    +0.022 C 
ATOM     32  C   UNL     1       9.752 -12.150   9.964  0.00  0.00    +0.108 C 
ATOM     33  C   UNL     1      13.081 -11.161  11.633  0.00  0.00    +0.007 C 
ENDBRANCH  24  25
ENDBRANCH  23  24
ENDBRANCH  15  23
TORSDOF 6
