REMARK  Name = ZINC35991804
REMARK  12 active torsions:
REMARK  status: ('A' for Active; 'I' for Inactive)
REMARK    1  A    between atoms: C_1  and  C_2
REMARK    2  A    between atoms: C_2  and  O_3
REMARK    3  A    between atoms: O_3  and  C_4
REMARK    4  A    between atoms: C_4  and  C_6
REMARK    5  A    between atoms: C_7  and  C_25
REMARK    6  A    between atoms: N_8  and  C_22
REMARK    7  A    between atoms: C_12  and  C_14
REMARK    8  A    between atoms: C_22  and  C_23
REMARK    9  A    between atoms: C_25  and  N_26
REMARK   10  A    between atoms: C_32  and  C_34
REMARK   11  A    between atoms: C_34  and  C_35
REMARK   12  A    between atoms: C_34  and  C_36
REMARK                            x       y       z     vdW  Elec       q    Type
REMARK                         _______ _______ _______ _____ _____    ______ ____
ROOT
ATOM      1  C   UNL     1      -1.860  -1.729   0.532  0.00  0.00    +0.080 C 
ATOM      2  C   UNL     1      -2.067  -2.988   0.090  0.00  0.00    +0.041 C 
ATOM      3  N   UNL     1      -3.308  -3.403  -0.300  0.00  0.00    -0.254 N 
ATOM      4  C   UNL     1      -4.394  -2.620  -0.278  0.00  0.00    +0.307 C 
ATOM      5  O   UNL     1      -5.457  -3.080  -0.645  0.00  0.00    -0.252 OA
ATOM      6  N   UNL     1      -4.345  -1.339   0.138  0.00  0.00    -0.288 N 
ATOM      7  C   UNL     1      -3.052  -0.796   0.586  0.00  0.00    +0.144 C 
ATOM      8  H   UNL     1      -5.144  -0.789   0.146  0.00  0.00    +0.151 HD
ENDROOT
BRANCH   7   9
ATOM      9  C   UNL     1      -2.739   0.407  -0.265  0.00  0.00    -0.021 A 
ATOM     10  C   UNL     1      -2.882   0.338  -1.639  0.00  0.00    +0.007 A 
ATOM     11  C   UNL     1      -2.595   1.441  -2.421  0.00  0.00    +0.022 A 
ATOM     12  C   UNL     1      -2.165   2.615  -1.830  0.00  0.00    +0.059 A 
ATOM     13  C   UNL     1      -2.022   2.685  -0.454  0.00  0.00    +0.060 A 
ATOM     14  C   UNL     1      -2.315   1.582   0.328  0.00  0.00    +0.027 A 
ATOM     15 CL   UNL     1      -1.482   4.158   0.289  0.00  0.00    -0.082 Cl
ATOM     16 CL   UNL     1      -1.804   4.000  -2.812  0.00  0.00    -0.082 Cl
ENDBRANCH   7   9
BRANCH   1  17
ATOM     17  C   UNL     1      -0.575  -1.298   0.936  0.00  0.00    +0.339 C 
ATOM     18  O   UNL     1      -0.291  -1.257   2.119  0.00  0.00    -0.245 OA
BRANCH  17  19
ATOM     19  O   UNL     1       0.337  -0.932   0.011  0.00  0.00    -0.462 OA
BRANCH  19  21
ATOM     20  C   UNL     1       2.506  -0.135  -0.696  0.00  0.00    +0.048 C 
ATOM     21  C   UNL     1       1.614  -0.507   0.490  0.00  0.00    +0.229 C 
ENDBRANCH  19  21
ENDBRANCH  17  19
ENDBRANCH   1  17
BRANCH   3  22
ATOM     22  C   UNL     1      -3.460  -4.783  -0.769  0.00  0.00    +0.141 C 
BRANCH  22  23
ATOM     23  C   UNL     1      -3.788  -5.677   0.399  0.00  0.00    -0.015 C 
ATOM     24  C   UNL     1      -4.859  -6.431   0.366  0.00  0.00    +0.005 C 
ENDBRANCH  22  23
ENDBRANCH   3  22
BRANCH   2  25
ATOM     25  C   UNL     1      -0.909  -3.951   0.025  0.00  0.00    +0.136 C 
BRANCH  25  26
ATOM     26  N   UNL     1      -1.124  -5.041   0.986  0.00  0.00    -0.294 NA
ATOM     27  C   UNL     1      -1.093  -4.539   2.367  0.00  0.00    +0.104 C 
ATOM     28  C   UNL     1      -1.499  -5.664   3.325  0.00  0.00    +0.123 C 
ATOM     29  N   UNL     1      -0.639  -6.829   3.068  0.00  0.00    -0.299 N 
ATOM     30  C   UNL     1      -0.511  -7.307   1.683  0.00  0.00    +0.123 C 
ATOM     31  C   UNL     1      -0.144  -6.117   0.789  0.00  0.00    +0.104 C 
ATOM     32  C   UNL     1       0.013  -7.443   4.075  0.00  0.00    +0.218 C 
ATOM     33  O   UNL     1      -0.185  -7.103   5.222  0.00  0.00    -0.275 OA
BRANCH  32  34
ATOM     34  C   UNL     1       0.990  -8.551   3.775  0.00  0.00    +0.069 C 
ATOM     35  C   UNL     1       1.912  -8.757   4.978  0.00  0.00    +0.017 C 
ATOM     36  C   UNL     1       0.223  -9.844   3.494  0.00  0.00    +0.017 C 
ENDBRANCH  32  34
ENDBRANCH  25  26
ENDBRANCH   2  25
TORSDOF 9
