REMARK  Name = ZINC67483568
REMARK  8 active torsions:
REMARK  status: ('A' for Active; 'I' for Inactive)
REMARK    1  A    between atoms: C_1  and  C_2
REMARK    2  A    between atoms: C_2  and  N_3
REMARK    3  A    between atoms: C_7  and  C_9
REMARK    4  A    between atoms: C_9  and  N_10
REMARK    5  A    between atoms: C_12  and  C_17
REMARK    6  A    between atoms: N_27  and  C_28
REMARK    7  A    between atoms: C_28  and  C_29
REMARK    8  A    between atoms: C_28  and  C_30
REMARK                            x       y       z     vdW  Elec       q    Type
REMARK                         _______ _______ _______ _____ _____    ______ ____
ROOT
ATOM      1  N   UNL     1      -1.599  -1.738   2.549  0.00  0.00    -0.302 N 
ATOM      2  C   UNL     1      -0.506  -2.267   3.374  0.00  0.00    +0.121 C 
ATOM      3  C   UNL     1       0.012  -1.064   4.193  0.00  0.00    +0.101 C 
ATOM      4  C   UNL     1      -1.236  -0.151   4.236  0.00  0.00    +0.110 C 
ATOM      5  C   UNL     1      -2.028  -0.550   3.010  0.00  0.00    +0.216 C 
ATOM      6  O   UNL     1      -2.921   0.104   2.517  0.00  0.00    -0.276 OA
ENDROOT
BRANCH   3   7
ATOM      7  C   UNL     1       0.417  -1.490   5.581  0.00  0.00    +0.221 C 
ATOM      8  O   UNL     1       0.311  -2.652   5.913  0.00  0.00    -0.275 OA
ATOM      9  N   UNL     1       0.897  -0.581   6.452  0.00  0.00    -0.298 N 
ATOM     10  C   UNL     1       1.025   0.831   6.065  0.00  0.00    +0.127 C 
ATOM     11  C   UNL     1       0.259   1.689   7.080  0.00  0.00    +0.128 C 
ATOM     12  N   UNL     1       0.663   1.286   8.435  0.00  0.00    -0.283 N 
ATOM     13  C   UNL     1       0.535  -0.125   8.822  0.00  0.00    +0.128 C 
ATOM     14  C   UNL     1       1.295  -0.982   7.809  0.00  0.00    +0.127 C 
ATOM     15  C   UNL     1       1.143   2.196   9.306  0.00  0.00    +0.302 C 
ATOM     16  O   UNL     1       1.334   3.341   8.946  0.00  0.00    -0.253 OA
ATOM     17  N   UNL     1       1.411   1.836  10.577  0.00  0.00    -0.297 N 
ATOM     18  H   UNL     1       1.328   0.907  10.845  0.00  0.00    +0.150 HD
BRANCH  17  19
ATOM     19  C   UNL     1       1.828   2.846  11.552  0.00  0.00    +0.068 C 
ATOM     20  C   UNL     1       1.476   2.369  12.963  0.00  0.00    +0.027 C 
ATOM     21  C   UNL     1       3.339   3.061  11.449  0.00  0.00    +0.027 C 
ENDBRANCH  17  19
ENDBRANCH   3   7
BRANCH   1  22
ATOM     22  C   UNL     1      -2.147  -2.414   1.371  0.00  0.00    +0.092 C 
BRANCH  22  27
ATOM     23  N   UNL     1      -1.392  -0.506   0.015  0.00  0.00    +0.382 N 
ATOM     24  C   UNL     1      -2.072  -0.138  -1.245  0.00  0.00    -0.078 C 
ATOM     25  C   UNL     1      -1.911  -1.378  -2.159  0.00  0.00    -0.020 C 
ATOM     26  C   UNL     1      -2.054  -2.539  -1.140  0.00  0.00    -0.016 C 
ATOM     27  C   UNL     1      -1.373  -1.976   0.126  0.00  0.00    -0.051 C 
ATOM     28  H   UNL     1      -1.894  -0.113   0.797  0.00  0.00    -0.081 HD
BRANCH  23  30
ATOM     29  C   UNL     1      -0.040   1.536   0.012  0.00  0.00    -0.017 C 
ATOM     30  C   UNL     1      -0.015   0.006   0.002  0.00  0.00    -0.082 C 
ENDBRANCH  23  30
ENDBRANCH  22  27
ENDBRANCH   1  22
TORSDOF 5
