REMARK  Name = ZINC21231096
REMARK  8 active torsions:
REMARK  status: ('A' for Active; 'I' for Inactive)
REMARK    1  A    between atoms: C_1  and  C_2
REMARK    2  A    between atoms: C_2  and  C_3
REMARK    3  A    between atoms: C_2  and  C_4
REMARK    4  A    between atoms: C_4  and  C_6
REMARK    5  A    between atoms: C_4  and  S_12
REMARK    6  A    between atoms: S_12  and  C_13
REMARK    7  A    between atoms: C_17  and  C_20
REMARK    8  A    between atoms: N_25  and  C_26
REMARK                            x       y       z     vdW  Elec       q    Type
REMARK                         _______ _______ _______ _____ _____    ______ ____
ROOT
ATOM      1  C   UNL     1       3.592   3.488  -0.407  0.00  0.00    +0.178 A 
ATOM      2  N   UNL     1       4.688   4.181  -0.641  0.00  0.00    -0.215 NA
ATOM      3  C   UNL     1       5.864   3.577  -0.759  0.00  0.00    +0.116 A 
ATOM      4  C   UNL     1       6.004   2.181  -0.638  0.00  0.00    +0.076 A 
ATOM      5  C   UNL     1       7.360   1.685  -0.795  0.00  0.00    -0.023 A 
ATOM      6  C   UNL     1       8.352   2.555  -1.037  0.00  0.00    +0.052 A 
ATOM      7  S   UNL     1       7.521   4.132  -1.071  0.00  0.00    -0.077 S 
ATOM      8  C   UNL     1       4.799   1.456  -0.379  0.00  0.00    +0.268 A 
ATOM      9  O   UNL     1       4.823   0.243  -0.258  0.00  0.00    -0.267 OA
ATOM     10  N   UNL     1       3.639   2.129  -0.270  0.00  0.00    -0.255 N 
ENDROOT
BRANCH  10  11
ATOM     11  C   UNL     1       2.455   1.423  -0.016  0.00  0.00    +0.052 A 
ATOM     12  C   UNL     1       1.679   0.964  -1.072  0.00  0.00    +0.026 A 
ATOM     13  C   UNL     1       0.514   0.267  -0.819  0.00  0.00    +0.002 A 
ATOM     14  C   UNL     1       0.119   0.027   0.484  0.00  0.00    +0.000 A 
ATOM     15  C   UNL     1       0.889   0.484   1.538  0.00  0.00    +0.002 A 
ATOM     16  C   UNL     1       2.056   1.180   1.291  0.00  0.00    +0.026 A 
ENDBRANCH  10  11
BRANCH   5  17
ATOM     17  C   UNL     1       7.649   0.210  -0.689  0.00  0.00    +0.020 C 
ATOM     18  C   UNL     1       9.117  -0.223  -0.663  0.00  0.00    +0.009 C 
ATOM     19  C   UNL     1       8.265  -0.479  -1.908  0.00  0.00    +0.009 C 
ENDBRANCH   5  17
BRANCH   1  20
ATOM     20  S   UNL     1       2.049   4.324  -0.263  0.00  0.00    -0.074 S 
BRANCH  20  21
ATOM     21  C   UNL     1       2.591   6.032  -0.518  0.00  0.00    +0.143 C 
BRANCH  21  22
ATOM     22  C   UNL     1       3.431   6.473   0.653  0.00  0.00    +0.234 C 
ATOM     23  O   UNL     1       3.355   5.883   1.709  0.00  0.00    -0.274 OA
ATOM     24  N   UNL     1       4.268   7.522   0.526  0.00  0.00    -0.239 N 
ATOM     25  C   UNL     1       5.019   7.916   1.573  0.00  0.00    +0.303 C 
ATOM     26  O   UNL     1       4.942   7.324   2.632  0.00  0.00    -0.253 OA
ATOM     27  N   UNL     1       5.855   8.965   1.446  0.00  0.00    -0.313 N 
ATOM     28  H   UNL     1       4.337   8.057  -0.433  0.00  0.00    +0.159 HD
ATOM     29  H   UNL     1       6.468   9.286   2.301  0.00  0.00    +0.146 HD
ATOM     30  H   UNL     1       5.925   9.500   0.487  0.00  0.00    +0.146 HD
ENDBRANCH  21  22
BRANCH  21  32
ATOM     31  C   UNL     1       0.586   6.581  -1.904  0.00  0.00    +0.009 C 
ATOM     32  C   UNL     1       1.368   6.943  -0.640  0.00  0.00    +0.005 C 
ATOM     33  C   UNL     1       0.471   6.759   0.586  0.00  0.00    +0.009 C 
ENDBRANCH  21  32
ENDBRANCH  20  21
ENDBRANCH   1  20
TORSDOF 6
