REMARK  Name = ZINC10079972
REMARK  13 active torsions:
REMARK  status: ('A' for Active; 'I' for Inactive)
REMARK    1  A    between atoms: C_1  and  C_2
REMARK    2  A    between atoms: C_2  and  O_3
REMARK    3  A    between atoms: O_3  and  C_4
REMARK    4  A    between atoms: C_7  and  C_10
REMARK    5  A    between atoms: C_10  and  C_12
REMARK    6  A    between atoms: C_10  and  N_57
REMARK    7  A    between atoms: C_12  and  N_13
REMARK    8  A    between atoms: C_14  and  C_16
REMARK    9  A    between atoms: N_18  and  C_19
REMARK   10  A    between atoms: C_21  and  C_26
REMARK   11  A    between atoms: C_24  and  C_25
REMARK   12  A    between atoms: C_27  and  N_57
REMARK   13  A    between atoms: C_28  and  N_57
REMARK                            x       y       z     vdW  Elec       q    Type
REMARK                         _______ _______ _______ _____ _____    ______ ____
ROOT
ATOM      1  N   UNL     1      -2.034   0.897   0.032  0.00  0.00    -0.309 N 
ATOM      2  C   UNL     1      -0.852   1.542  -0.031  0.00  0.00    +0.299 C 
ATOM      3  O   UNL     1      -0.824   2.754  -0.079  0.00  0.00    -0.265 OA
ATOM      4  H   UNL     1      -2.056  -0.072   0.071  0.00  0.00    +0.149 HD
ENDROOT
BRANCH   2   5
ATOM      5  C   UNL     1       0.423   0.764  -0.041  0.00  0.00    +0.303 C 
ATOM      6  O   UNL     1       0.395  -0.449   0.007  0.00  0.00    -0.265 OA
ATOM      7  N   UNL     1       1.605   1.408  -0.110  0.00  0.00    -0.278 N 
ATOM      8  H   UNL     1       1.626   2.370  -0.234  0.00  0.00    +0.155 HD
BRANCH   7   9
ATOM      9  C   UNL     1       2.799   0.691  -0.003  0.00  0.00    +0.037 A 
ATOM     10  C   UNL     1       2.821  -0.529   0.662  0.00  0.00    +0.027 A 
ATOM     11  C   UNL     1       4.002  -1.238   0.762  0.00  0.00    -0.049 A 
ATOM     12  C   UNL     1       5.164  -0.730   0.210  0.00  0.00    +0.004 A 
ATOM     13  C   UNL     1       5.147   0.486  -0.449  0.00  0.00    +0.005 A 
ATOM     14  C   UNL     1       3.968   1.198  -0.556  0.00  0.00    -0.029 A 
ATOM     15  C   UNL     1       3.950   2.523  -1.274  0.00  0.00    +0.045 C 
ATOM     16  C   UNL     1       4.026  -2.563   1.478  0.00  0.00    +0.044 C 
ENDBRANCH   7   9
ENDBRANCH   2   5
BRANCH   1  17
ATOM     17  C   UNL     1      -3.285   1.659   0.043  0.00  0.00    +0.094 C 
BRANCH  17  18
ATOM     18  C   UNL     1      -4.463   0.704   0.238  0.00  0.00    -0.021 C 
BRANCH  18  22
ATOM     19  C   UNL     1      -8.109   2.933   0.304  0.00  0.00    +0.121 A 
ATOM     20  C   UNL     1      -7.473   2.605   1.492  0.00  0.00    +0.046 A 
ATOM     21  C   UNL     1      -6.295   1.884   1.468  0.00  0.00    +0.005 A 
ATOM     22  C   UNL     1      -5.749   1.490   0.261  0.00  0.00    -0.059 A 
ATOM     23  C   UNL     1      -6.377   1.820  -0.925  0.00  0.00    +0.005 A 
ATOM     24  C   UNL     1      -7.559   2.535  -0.906  0.00  0.00    +0.046 A 
BRANCH  19  25
ATOM     25  O   UNL     1      -9.268   3.642   0.325  0.00  0.00    -0.492 OA
BRANCH  25  27
ATOM     26  C   UNL     1     -11.153   4.742  -0.714  0.00  0.00    +0.048 C 
ATOM     27  C   UNL     1      -9.866   3.944  -0.937  0.00  0.00    +0.225 C 
ENDBRANCH  25  27
ENDBRANCH  19  25
ENDBRANCH  18  22
BRANCH  18  30
ATOM     28  C   UNL     1      -3.873   0.296  -2.075  0.00  0.00    -0.096 C 
ATOM     29  C   UNL     1      -3.863  -1.528  -0.483  0.00  0.00    -0.096 C 
ATOM     30  N   UNL     1      -4.527  -0.267  -0.875  0.00  0.00    +0.382 N 
ATOM     31  H   UNL     1      -5.511  -0.462  -1.092  0.00  0.00    -0.082 HD
ENDBRANCH  18  30
ENDBRANCH  17  18
ENDBRANCH   1  17
TORSDOF 8
