REMARK  Name = ZINC40463203
REMARK  8 active torsions:
REMARK  status: ('A' for Active; 'I' for Inactive)
REMARK    1  A    between atoms: C_1  and  C_2
REMARK    2  A    between atoms: C_2  and  C_3
REMARK    3  A    between atoms: C_9  and  N_11
REMARK    4  A    between atoms: C_12  and  C_14
REMARK    5  A    between atoms: C_14  and  C_16
REMARK    6  A    between atoms: C_14  and  N_24
REMARK    7  A    between atoms: C_16  and  C_17
REMARK    8  A    between atoms: C_20  and  O_23
REMARK                            x       y       z     vdW  Elec       q    Type
REMARK                         _______ _______ _______ _____ _____    ______ ____
ROOT
ATOM      1  C   UNL     1      -2.567  -4.083   1.004  0.00  0.00    +0.017 C 
ENDROOT
BRANCH   1   3
ATOM      2  N   UNL     1      -0.750  -2.444   1.369  0.00  0.00    -0.314 N 
ATOM      3  C   UNL     1      -1.121  -3.664   0.932  0.00  0.00    +0.199 C 
ATOM      4  O   UNL     1      -0.291  -4.425   0.481  0.00  0.00    -0.278 OA
ATOM      5  H   UNL     1      -1.414  -1.836   1.729  0.00  0.00    +0.149 HD
BRANCH   2  11
ATOM      6  C   UNL     1       0.742  -0.511   1.242  0.00  0.00    +0.009 C 
ATOM      7  C   UNL     1       2.210  -0.086   1.169  0.00  0.00    +0.005 C 
ATOM      8  C   UNL     1       2.950  -0.593   2.408  0.00  0.00    +0.000 C 
ATOM      9  C   UNL     1       2.863  -2.119   2.465  0.00  0.00    +0.002 C 
ATOM     10  C   UNL     1       1.395  -2.544   2.538  0.00  0.00    +0.022 C 
ATOM     11  C   UNL     1       0.655  -2.037   1.299  0.00  0.00    +0.076 C 
BRANCH   6  13
ATOM     12  C   UNL     1      -0.019   1.526   0.010  0.00  0.00    +0.004 C 
ATOM     13  C   UNL     1       0.002  -0.004   0.002  0.00  0.00    +0.002 C 
ENDBRANCH   6  13
ENDBRANCH   2  11
ENDBRANCH   1   3
BRANCH   1  14
ATOM     14  N   UNL     1      -2.802  -5.194   0.072  0.00  0.00    +0.386 N 
ATOM     15  H   UNL     1      -2.213  -5.974   0.322  0.00  0.00    -0.089 HD
ATOM     16  H   UNL     1      -3.770  -5.474   0.120  0.00  0.00    -0.089 HD
ATOM     17  H   UNL     1      -2.584  -4.896  -0.868  0.00  0.00    -0.089 HD
ENDBRANCH   1  14
BRANCH   1  18
ATOM     18  C   UNL     1      -2.897  -4.534   2.428  0.00  0.00    +0.028 C 
BRANCH  18  19
ATOM     19  C   UNL     1      -4.370  -4.836   2.531  0.00  0.00    -0.048 A 
ATOM     20  C   UNL     1      -5.256  -3.836   2.884  0.00  0.00    +0.007 A 
ATOM     21  C   UNL     1      -6.607  -4.110   2.979  0.00  0.00    +0.045 A 
ATOM     22  C   UNL     1      -7.074  -5.390   2.720  0.00  0.00    +0.117 A 
ATOM     23  C   UNL     1      -6.182  -6.392   2.366  0.00  0.00    +0.045 A 
ATOM     24  C   UNL     1      -4.833  -6.112   2.267  0.00  0.00    +0.007 A 
BRANCH  22  25
ATOM     25  O   UNL     1      -8.402  -5.662   2.813  0.00  0.00    -0.507 OA
ATOM     26  H   UNL     1      -8.889  -5.531   1.989  0.00  0.00    +0.292 HD
ENDBRANCH  22  25
ENDBRANCH  18  19
ENDBRANCH   1  18
TORSDOF 7
