REMARK  Name = ZINC11817852
REMARK  8 active torsions:
REMARK  status: ('A' for Active; 'I' for Inactive)
REMARK    1  A    between atoms: C_4  and  C_7
REMARK    2  A    between atoms: C_9  and  C_12
REMARK    3  A    between atoms: C_12  and  C_13
REMARK    4  A    between atoms: C_13  and  O_32
REMARK    5  A    between atoms: C_18  and  C_19
REMARK    6  A    between atoms: C_18  and  N_63
REMARK    7  A    between atoms: C_19  and  C_20
REMARK    8  A    between atoms: C_19  and  C_26
REMARK                            x       y       z     vdW  Elec       q    Type
REMARK                         _______ _______ _______ _____ _____    ______ ____
ROOT
ATOM      1  C   UNL     1      -4.937  -3.759   2.513  0.00  0.00    +0.070 C 
ATOM      2  C   UNL     1      -3.428  -3.908   2.721  0.00  0.00    +0.016 C 
ATOM      3  C   UNL     1      -3.166  -4.512   4.103  0.00  0.00    -0.076 C 
ATOM      4  C   UNL     1      -5.280  -5.695   4.051  0.00  0.00    -0.076 C 
ATOM      5  C   UNL     1      -5.605  -5.128   2.667  0.00  0.00    +0.016 C 
ATOM      6  N   UNL     1      -3.814  -5.838   4.179  0.00  0.00    +0.380 N 
ATOM      7  H   UNL     1      -3.468  -6.423   3.409  0.00  0.00    -0.082 HD
ENDROOT
BRANCH   1   8
ATOM      8  O   UNL     1      -5.467  -2.857   3.486  0.00  0.00    -0.388 OA
ATOM      9  H   UNL     1      -5.087  -1.969   3.446  0.00  0.00    +0.210 HD
ENDBRANCH   1   8
BRANCH   1  10
ATOM     10  C   UNL     1      -5.208  -3.214   1.109  0.00  0.00    +0.111 C 
BRANCH  10  13
ATOM     11  C   UNL     1      -2.960  -0.394   0.452  0.00  0.00    +0.114 A 
ATOM     12  C   UNL     1      -3.194  -1.797   0.424  0.00  0.00    +0.076 A 
ATOM     13  C   UNL     1      -4.448  -1.928   0.914  0.00  0.00    +0.141 A 
ATOM     14  O   UNL     1      -4.885  -0.690   1.188  0.00  0.00    -0.359 OA
ATOM     15  N   UNL     1      -4.053   0.148   0.928  0.00  0.00    -0.078 NA
BRANCH  11  19
ATOM     16  C   UNL     1       0.571   1.633  -0.776  0.00  0.00    +0.000 A 
ATOM     17  C   UNL     1      -0.505   2.355  -0.292  0.00  0.00    +0.001 A 
ATOM     18  C   UNL     1      -1.653   1.703   0.107  0.00  0.00    +0.010 A 
ATOM     19  C   UNL     1      -1.728   0.314   0.023  0.00  0.00    +0.004 A 
ATOM     20  C   UNL     1      -0.640  -0.408  -0.464  0.00  0.00    +0.010 A 
ATOM     21  C   UNL     1       0.503   0.255  -0.861  0.00  0.00    +0.001 A 
ENDBRANCH  11  19
ENDBRANCH  10  13
ENDBRANCH   1  10
BRANCH   6  22
ATOM     22  C   UNL     1      -3.481  -6.490   5.463  0.00  0.00    -0.066 C 
BRANCH  22  23
ATOM     23  C   UNL     1      -1.960  -6.519   5.627  0.00  0.00    +0.032 C 
BRANCH  23  24
ATOM     24  C   UNL     1      -1.609  -7.160   6.945  0.00  0.00    -0.042 A 
ATOM     25  C   UNL     1      -0.758  -6.514   7.822  0.00  0.00    +0.004 A 
ATOM     26  C   UNL     1      -0.440  -7.100   9.033  0.00  0.00    +0.000 A 
ATOM     27  C   UNL     1      -0.965  -8.335   9.363  0.00  0.00    +0.000 A 
ATOM     28  C   UNL     1      -1.812  -8.983   8.483  0.00  0.00    +0.000 A 
ATOM     29  C   UNL     1      -2.134  -8.395   7.274  0.00  0.00    +0.004 A 
ENDBRANCH  23  24
BRANCH  23  30
ATOM     30  C   UNL     1      -1.349  -7.315   4.503  0.00  0.00    -0.042 A 
ATOM     31  C   UNL     1      -1.808  -8.589   4.228  0.00  0.00    +0.004 A 
ATOM     32  C   UNL     1      -1.251  -9.318   3.194  0.00  0.00    +0.000 A 
ATOM     33  C   UNL     1      -0.226  -8.775   2.441  0.00  0.00    +0.000 A 
ATOM     34  C   UNL     1       0.237  -7.503   2.719  0.00  0.00    +0.000 A 
ATOM     35  C   UNL     1      -0.324  -6.773   3.750  0.00  0.00    +0.004 A 
ENDBRANCH  23  30
ENDBRANCH  22  23
ENDBRANCH   6  22
TORSDOF 8
