REMARK  Name = ZINC63383882
REMARK  9 active torsions:
REMARK  status: ('A' for Active; 'I' for Inactive)
REMARK    1  A    between atoms: C_1  and  C_2
REMARK    2  A    between atoms: C_2  and  C_4
REMARK    3  A    between atoms: C_2  and  N_12
REMARK    4  A    between atoms: N_6  and  C_7
REMARK    5  A    between atoms: C_7  and  C_8
REMARK    6  A    between atoms: C_8  and  C_9
REMARK    7  A    between atoms: C_9  and  C_10
REMARK    8  A    between atoms: C_9  and  C_11
REMARK    9  A    between atoms: C_13  and  C_15
REMARK                            x       y       z     vdW  Elec       q    Type
REMARK                         _______ _______ _______ _____ _____    ______ ____
ROOT
ATOM      1  C   UNL     1       0.780  -1.133   3.576  0.00  0.00    +0.167 C 
ATOM      2  C   UNL     1       1.340  -2.543   3.308  0.00  0.00    +0.065 C 
ATOM      3  C   UNL     1       0.660  -3.479   4.275  0.00  0.00    -0.034 C 
ATOM      4  C   UNL     1       1.174  -4.373   5.117  0.00  0.00    -0.001 A 
ATOM      5  C   UNL     1       2.556  -4.829   5.334  0.00  0.00    +0.010 A 
ATOM      6  C   UNL     1       2.733  -5.762   6.306  0.00  0.00    +0.001 A 
ATOM      7  C   UNL     1       1.685  -6.282   7.074  0.00  0.00    +0.002 A 
ATOM      8  C   UNL     1       0.384  -5.925   6.936  0.00  0.00    +0.026 A 
ATOM      9  C   UNL     1       0.071  -4.953   5.941  0.00  0.00    +0.043 A 
ATOM     10  N   UNL     1      -1.074  -4.450   5.588  0.00  0.00    -0.375 N 
ATOM     11  C   UNL     1      -0.849  -3.536   4.467  0.00  0.00    +0.131 C 
ATOM     12  C   UNL     1      -1.321  -2.117   4.779  0.00  0.00    +0.134 C 
ATOM     13  N   UNL     1      -0.150  -1.218   4.709  0.00  0.00    -0.276 N 
ATOM     14  C   UNL     1      -0.080  -0.515   5.856  0.00  0.00    +0.248 C 
ATOM     15  O   UNL     1       0.694   0.398   6.067  0.00  0.00    -0.270 OA
ATOM     16  C   UNL     1      -1.073  -1.012   6.810  0.00  0.00    +0.042 A 
ATOM     17  C   UNL     1      -1.868  -2.011   6.164  0.00  0.00    -0.013 A 
ATOM     18  C   UNL     1      -2.895  -2.672   6.801  0.00  0.00    +0.006 A 
ATOM     19  C   UNL     1      -3.152  -2.317   8.122  0.00  0.00    +0.000 A 
ATOM     20  C   UNL     1      -2.417  -1.345   8.770  0.00  0.00    +0.001 A 
ATOM     21  C   UNL     1      -1.324  -0.651   8.137  0.00  0.00    +0.013 A 
ATOM     22  H   UNL     1      -1.931  -4.646   5.997  0.00  0.00    +0.160 HD
ENDROOT
BRANCH   1  24
ATOM     23  N   UNL     1       0.711  -0.489   1.189  0.00  0.00    -0.303 N 
ATOM     24  C   UNL     1       0.051  -0.633   2.355  0.00  0.00    +0.234 C 
ATOM     25  O   UNL     1      -1.129  -0.361   2.423  0.00  0.00    -0.274 OA
ATOM     26  H   UNL     1       1.654  -0.707   1.135  0.00  0.00    +0.149 HD
BRANCH  23  28
ATOM     27  C   UNL     1      -0.019   1.526   0.010  0.00  0.00    +0.038 C 
ATOM     28  C   UNL     1       0.002  -0.004   0.002  0.00  0.00    +0.156 C 
BRANCH  28  29
ATOM     29  C   UNL     1       0.707  -0.490  -1.238  0.00  0.00    +0.233 C 
ATOM     30  O   UNL     1       1.704  -1.174  -1.140  0.00  0.00    -0.274 OA
ATOM     31  N   UNL     1       0.231  -0.164  -2.456  0.00  0.00    -0.314 N 
ATOM     32  H   UNL     1      -0.566   0.383  -2.534  0.00  0.00    +0.149 HD
BRANCH  31  33
ATOM     33  C   UNL     1       0.917  -0.637  -3.661  0.00  0.00    +0.104 C 
BRANCH  33  34
ATOM     34  C   UNL     1       0.177  -0.130  -4.901  0.00  0.00    +0.022 C 
BRANCH  34  35
ATOM     35  C   UNL     1       0.893  -0.623  -6.159  0.00  0.00    -0.016 C 
ATOM     36  C   UNL     1       0.085  -0.223  -7.396  0.00  0.00    +0.007 C 
ATOM     37  C   UNL     1       2.285   0.006  -6.234  0.00  0.00    +0.007 C 
ENDBRANCH  34  35
ENDBRANCH  33  34
ENDBRANCH  31  33
ENDBRANCH  28  29
ENDBRANCH  23  28
ENDBRANCH   1  24
TORSDOF 6
