REMARK  Name = ZINC33725754
REMARK  7 active torsions:
REMARK  status: ('A' for Active; 'I' for Inactive)
REMARK    1  A    between atoms: C_4  and  C_7
REMARK    2  A    between atoms: C_7  and  C_8
REMARK    3  A    between atoms: C_8  and  C_9
REMARK    4  A    between atoms: C_9  and  N_10
REMARK    5  A    between atoms: C_14  and  C_25
REMARK    6  A    between atoms: N_18  and  C_19
REMARK    7  A    between atoms: N_27  and  C_28
REMARK                            x       y       z     vdW  Elec       q    Type
REMARK                         _______ _______ _______ _____ _____    ______ ____
ROOT
ATOM      1  N   UNL     1       5.933  -1.964   2.762  0.00  0.00    -0.251 N 
ATOM      2  C   UNL     1       6.693  -1.045   3.337  0.00  0.00    +0.223 C 
ATOM      3  O   UNL     1       7.062  -0.142   2.617  0.00  0.00    -0.275 OA
ATOM      4  C   UNL     1       7.154  -0.973   4.752  0.00  0.00    +0.120 C 
ATOM      5  C   UNL     1       7.266  -2.353   5.402  0.00  0.00    +0.149 C 
ATOM      6  S   UNL     1       5.688  -3.227   5.138  0.00  0.00    -0.077 S 
ATOM      7  C   UNL     1       5.528  -3.135   3.376  0.00  0.00    +0.164 C 
ATOM      8  N   UNL     1       5.047  -4.140   2.683  0.00  0.00    -0.226 NA
ENDROOT
BRANCH   8   9
ATOM      9  C   UNL     1       4.654  -5.287   3.321  0.00  0.00    +0.067 A 
ATOM     10  C   UNL     1       5.458  -5.846   4.316  0.00  0.00    +0.028 A 
ATOM     11  C   UNL     1       5.056  -7.001   4.954  0.00  0.00    +0.002 A 
ATOM     12  C   UNL     1       3.860  -7.605   4.610  0.00  0.00    +0.000 A 
ATOM     13  C   UNL     1       3.058  -7.056   3.625  0.00  0.00    +0.002 A 
ATOM     14  C   UNL     1       3.445  -5.898   2.982  0.00  0.00    +0.028 A 
ENDBRANCH   8   9
BRANCH   5  15
ATOM     15  C   UNL     1       7.526  -2.202   6.879  0.00  0.00    +0.231 C 
ATOM     16  O   UNL     1       7.023  -1.284   7.492  0.00  0.00    -0.274 OA
ATOM     17  N   UNL     1       8.316  -3.087   7.518  0.00  0.00    -0.284 N 
ATOM     18  H   UNL     1       8.664  -3.858   7.044  0.00  0.00    +0.155 HD
BRANCH  17  19
ATOM     19  C   UNL     1       8.635  -2.892   8.867  0.00  0.00    +0.036 A 
ATOM     20  C   UNL     1       9.889  -3.250   9.343  0.00  0.00    +0.043 A 
ATOM     21  C   UNL     1      10.202  -3.057  10.675  0.00  0.00    +0.044 A 
ATOM     22  C   UNL     1       9.267  -2.507  11.534  0.00  0.00    +0.040 A 
ATOM     23  C   UNL     1       8.016  -2.150  11.062  0.00  0.00    +0.044 A 
ATOM     24  C   UNL     1       7.700  -2.336   9.730  0.00  0.00    +0.043 A 
ATOM     25 CL   UNL     1       6.845  -1.462  12.143  0.00  0.00    -0.083 Cl
ATOM     26 CL   UNL     1      11.770  -3.505  11.272  0.00  0.00    -0.083 Cl
ENDBRANCH  17  19
ENDBRANCH   5  15
BRANCH   1  27
ATOM     27  C   UNL     1       5.488  -1.723   1.387  0.00  0.00    +0.116 C 
BRANCH  27  28
ATOM     28  C   UNL     1       4.156  -0.970   1.407  0.00  0.00    +0.024 C 
BRANCH  28  29
ATOM     29  C   UNL     1       3.691  -0.718  -0.029  0.00  0.00    +0.036 C 
BRANCH  29  33
ATOM     30  C   UNL     1      -0.027   1.385   0.025  0.00  0.00    +0.000 A 
ATOM     31  C   UNL     1       1.164   2.087   0.010  0.00  0.00    +0.000 A 
ATOM     32  C   UNL     1       2.367   1.406  -0.008  0.00  0.00    +0.003 A 
ATOM     33  C   UNL     1       2.380   0.024  -0.009  0.00  0.00    -0.047 A 
ATOM     34  C   UNL     1       1.189  -0.678   0.007  0.00  0.00    +0.003 A 
ATOM     35  C   UNL     1      -0.015   0.003   0.023  0.00  0.00    +0.000 A 
ENDBRANCH  29  33
ENDBRANCH  28  29
ENDBRANCH  27  28
ENDBRANCH   1  27
TORSDOF 7
