REMARK  Name = ZINC08769254
REMARK  9 active torsions:
REMARK  status: ('A' for Active; 'I' for Inactive)
REMARK    1  A    between atoms: C_1  and  C_2
REMARK    2  A    between atoms: C_4  and  C_45
REMARK    3  A    between atoms: C_6  and  N_8
REMARK    4  A    between atoms: C_9  and  C_11
REMARK    5  A    between atoms: C_11  and  N_12
REMARK    6  A    between atoms: N_17  and  C_33
REMARK    7  A    between atoms: C_18  and  C_32
REMARK    8  A    between atoms: C_33  and  C_34
REMARK    9  A    between atoms: C_34  and  C_35
REMARK                            x       y       z     vdW  Elec       q    Type
REMARK                         _______ _______ _______ _____ _____    ______ ____
ROOT
ATOM      1  N   UNL     1       2.178   4.646  -0.021  0.00  0.00    -0.265 N 
ATOM      2  C   UNL     1       1.103   3.793  -0.081  0.00  0.00    +0.079 A 
ATOM      3  C   UNL     1       0.944   2.427  -0.158  0.00  0.00    +0.098 A 
ATOM      4  C   UNL     1      -0.352   1.899  -0.204  0.00  0.00    +0.254 A 
ATOM      5  O   UNL     1      -0.502   0.690  -0.272  0.00  0.00    -0.268 OA
ATOM      6  N   UNL     1      -1.434   2.694  -0.180  0.00  0.00    -0.311 N 
ATOM      7  C   UNL     1      -1.336   4.037  -0.100  0.00  0.00    +0.033 A 
ATOM      8  C   UNL     1      -0.103   4.635  -0.051  0.00  0.00    +0.085 A 
ATOM      9  C   UNL     1       0.385   6.018   0.032  0.00  0.00    +0.283 A 
ATOM     10  O   UNL     1      -0.300   7.022   0.078  0.00  0.00    -0.265 OA
ATOM     11  N   UNL     1       1.732   5.969   0.046  0.00  0.00    -0.191 N 
ATOM     12  C   UNL     1       2.559   7.076   0.118  0.00  0.00    +0.196 A 
ATOM     13  N   UNL     1       3.871   7.123   0.143  0.00  0.00    -0.221 NA
ATOM     14  C   UNL     1       4.554   8.286   0.210  0.00  0.00    +0.081 A 
ATOM     15  C   UNL     1       5.956   8.476   0.239  0.00  0.00    +0.029 A 
ATOM     16  C   UNL     1       6.491   9.735   0.315  0.00  0.00    +0.002 A 
ATOM     17  C   UNL     1       5.685  10.863   0.365  0.00  0.00    +0.001 A 
ATOM     18  C   UNL     1       4.310  10.716   0.338  0.00  0.00    +0.017 A 
ATOM     19  C   UNL     1       3.765   9.458   0.263  0.00  0.00    +0.041 A 
ATOM     20  S   UNL     1       2.114   8.805   0.205  0.00  0.00    -0.048 S 
ATOM     21  C   UNL     1      -2.583   4.883  -0.070  0.00  0.00    +0.064 C 
ENDROOT
BRANCH   1  22
ATOM     22  C   UNL     1       3.583   4.231  -0.025  0.00  0.00    +0.238 C 
BRANCH  22  24
ATOM     23  N   UNL     1       5.357   3.804  -1.695  0.00  0.00    -0.284 N 
ATOM     24  C   UNL     1       4.083   4.166  -1.445  0.00  0.00    +0.239 C 
ATOM     25  O   UNL     1       3.339   4.440  -2.363  0.00  0.00    -0.273 OA
ATOM     26  H   UNL     1       5.973   3.659  -0.960  0.00  0.00    +0.155 HD
BRANCH  23  32
ATOM     27  C   UNL     1       8.944   4.117  -5.043  0.00  0.00    +0.044 C 
ATOM     28  C   UNL     1       7.524   3.781  -4.665  0.00  0.00    -0.048 A 
ATOM     29  C   UNL     1       6.649   3.307  -5.625  0.00  0.00    +0.006 A 
ATOM     30  C   UNL     1       5.345   2.998  -5.283  0.00  0.00    -0.048 A 
ATOM     31  C   UNL     1       4.914   3.161  -3.981  0.00  0.00    +0.026 A 
ATOM     32  C   UNL     1       5.791   3.637  -3.015  0.00  0.00    +0.034 A 
ATOM     33  C   UNL     1       7.098   3.952  -3.363  0.00  0.00    +0.026 A 
ATOM     34  C   UNL     1       4.394   2.482  -6.331  0.00  0.00    +0.044 C 
ENDBRANCH  23  32
ENDBRANCH  22  24
ENDBRANCH   1  22
BRANCH   6  35
ATOM     35  C   UNL     1      -2.764   2.083  -0.236  0.00  0.00    +0.130 C 
BRANCH  35  36
ATOM     36  C   UNL     1      -3.253   1.793   1.184  0.00  0.00    +0.059 C 
BRANCH  36  37
ATOM     37  C   UNL     1      -4.621   1.164   1.126  0.00  0.00    -0.021 A 
ATOM     38  C   UNL     1      -5.798   1.802   1.234  0.00  0.00    +0.087 A 
ATOM     39  N   UNL     1      -6.826   0.904   1.133  0.00  0.00    -0.360 N 
ATOM     40  H   UNL     1      -7.768   1.128   1.181  0.00  0.00    +0.165 HD
ATOM     41  C   UNL     1      -6.323  -0.365   0.953  0.00  0.00    +0.047 A 
ATOM     42  C   UNL     1      -4.920  -0.257   0.935  0.00  0.00    +0.003 A 
ATOM     43  C   UNL     1      -4.136  -1.399   0.761  0.00  0.00    +0.010 A 
ATOM     44  C   UNL     1      -4.735  -2.616   0.605  0.00  0.00    +0.001 A 
ATOM     45  C   UNL     1      -6.119  -2.728   0.618  0.00  0.00    +0.002 A 
ATOM     46  C   UNL     1      -6.912  -1.615   0.796  0.00  0.00    +0.026 A 
ENDBRANCH  36  37
ENDBRANCH  35  36
ENDBRANCH   6  35
TORSDOF 6
