REMARK  Name = ZINC35314495
REMARK  4 active torsions:
REMARK  status: ('A' for Active; 'I' for Inactive)
REMARK    1  A    between atoms: C_3  and  C_6
REMARK    2  A    between atoms: C_9  and  C_27
REMARK    3  A    between atoms: C_15  and  C_17
REMARK    4  A    between atoms: N_19  and  C_20
REMARK                            x       y       z     vdW  Elec       q    Type
REMARK                         _______ _______ _______ _____ _____    ______ ____
ROOT
ATOM      1  C   UNL     1       3.565   0.618  -0.038  0.00  0.00    +0.149 C 
ATOM      2  C   UNL     1       4.084   0.367   1.379  0.00  0.00    +0.065 C 
ATOM      3  C   UNL     1       3.606  -1.008   1.871  0.00  0.00    +0.202 C 
ATOM      4  N   UNL     1       3.984  -1.989   0.849  0.00  0.00    -0.226 N 
ATOM      5  C   UNL     1       4.185  -1.647  -0.483  0.00  0.00    +0.114 C 
ATOM      6  N   UNL     1       4.019  -0.441  -0.947  0.00  0.00    -0.362 N 
ATOM      7  C   UNL     1       4.586  -2.871  -1.174  0.00  0.00    +0.072 C 
ATOM      8  C   UNL     1       4.587  -3.869  -0.255  0.00  0.00    +0.110 C 
ATOM      9  N   UNL     1       4.212  -3.355   0.976  0.00  0.00    -0.258 N 
ATOM     10  H   UNL     1       4.123  -3.866   1.795  0.00  0.00    +0.170 HD
ATOM     11  H   UNL     1       4.193  -0.246  -1.881  0.00  0.00    +0.162 HD
ENDROOT
BRANCH   1  14
ATOM     12  C   UNL     1      -0.055   1.311   0.012  0.00  0.00    +0.041 A 
ATOM     13  C   UNL     1       1.290   1.748  -0.004  0.00  0.00    +0.047 A 
ATOM     14  C   UNL     1       2.058   0.643  -0.017  0.00  0.00    +0.127 A 
ATOM     15  O   UNL     1       1.254  -0.433  -0.010  0.00  0.00    -0.466 OA
ATOM     16  C   UNL     1      -0.028  -0.034   0.008  0.00  0.00    +0.195 A 
ENDBRANCH   1  14
BRANCH   8  17
ATOM     17  C   UNL     1       4.932  -5.281  -0.525  0.00  0.00    +0.264 C 
ATOM     18  O   UNL     1       4.900  -6.097   0.375  0.00  0.00    -0.268 OA
ATOM     19  N   UNL     1       5.283  -5.663  -1.769  0.00  0.00    -0.280 N 
ATOM     20  H   UNL     1       5.245  -5.027  -2.501  0.00  0.00    +0.155 HD
BRANCH  19  21
ATOM     21  C   UNL     1       5.703  -6.976  -2.005  0.00  0.00    +0.034 A 
ATOM     22  C   UNL     1       6.695  -7.231  -2.943  0.00  0.00    +0.026 A 
ATOM     23  C   UNL     1       7.108  -8.529  -3.175  0.00  0.00    +0.040 A 
ATOM     24  C   UNL     1       6.534  -9.575  -2.472  0.00  0.00    +0.124 A 
ATOM     25  C   UNL     1       5.545  -9.323  -1.536  0.00  0.00    +0.040 A 
ATOM     26  C   UNL     1       5.133  -8.026  -1.297  0.00  0.00    +0.026 A 
ATOM     27  F   UNL     1       6.939 -10.843  -2.700  0.00  0.00    -0.205 F 
ENDBRANCH  19  21
ENDBRANCH   8  17
BRANCH   3  28
ATOM     28  C   UNL     1       4.282  -1.350   3.200  0.00  0.00    +0.410 C 
ATOM     29  F   UNL     1       3.954  -0.379   4.153  0.00  0.00    -0.169 F 
ATOM     30  F   UNL     1       3.840  -2.603   3.639  0.00  0.00    -0.169 F 
ATOM     31  F   UNL     1       5.669  -1.380   3.023  0.00  0.00    -0.169 F 
ENDBRANCH   3  28
TORSDOF 4
