REMARK  Name = ZINC64871174
REMARK  6 active torsions:
REMARK  status: ('A' for Active; 'I' for Inactive)
REMARK    1  A    between atoms: C_1  and  C_2
REMARK    2  A    between atoms: C_2  and  C_3
REMARK    3  A    between atoms: C_6  and  C_9
REMARK    4  A    between atoms: C_12  and  C_16
REMARK    5  A    between atoms: N_26  and  C_29
REMARK    6  A    between atoms: C_29  and  C_30
REMARK                            x       y       z     vdW  Elec       q    Type
REMARK                         _______ _______ _______ _____ _____    ______ ____
ROOT
ATOM      1  C   UNL     1      -8.225  -0.217  -1.491  0.00  0.00    -0.000 A 
ATOM      2  C   UNL     1      -7.496   0.806  -2.079  0.00  0.00    +0.008 A 
ATOM      3  C   UNL     1      -8.122   1.742  -2.874  0.00  0.00    +0.016 A 
ATOM      4  C   UNL     1      -9.496   1.653  -3.085  0.00  0.00    +0.063 A 
ATOM      5  C   UNL     1     -10.234   0.616  -2.488  0.00  0.00    +0.056 A 
ATOM      6  C   UNL     1      -9.586  -0.319  -1.696  0.00  0.00    +0.034 A 
ATOM      7  N   UNL     1     -11.601   0.553  -2.716  0.00  0.00    -0.307 N 
ATOM      8  H   UNL     1     -12.124  -0.157  -2.311  0.00  0.00    +0.170 HD
ATOM      9  C   UNL     1     -12.210   1.467  -3.493  0.00  0.00    +0.330 A 
ATOM     10  O   UNL     1     -13.409   1.376  -3.667  0.00  0.00    -0.246 OA
ATOM     11  N   UNL     1     -11.549   2.474  -4.083  0.00  0.00    -0.256 N 
ATOM     12  C   UNL     1     -10.216   2.626  -3.926  0.00  0.00    +0.265 A 
ATOM     13  O   UNL     1      -9.625   3.542  -4.466  0.00  0.00    -0.267 OA
ENDROOT
BRANCH   1  16
ATOM     14  C   UNL     1      -7.014  -3.504  -0.419  0.00  0.00    +0.180 C 
ATOM     15  N   UNL     1      -8.102  -2.584  -0.827  0.00  0.00    -0.265 NA
ATOM     16  C   UNL     1      -7.523  -1.231  -0.624  0.00  0.00    +0.242 C 
ATOM     17  O   UNL     1      -6.146  -1.392  -1.036  0.00  0.00    -0.274 OA
ATOM     18  N   UNL     1      -5.761  -2.731  -0.550  0.00  0.00    -0.177 NA
ATOM     19  H   UNL     1      -8.355  -2.728  -1.793  0.00  0.00    +0.127 HD
ATOM     20  H   UNL     1      -5.279  -2.671   0.335  0.00  0.00    +0.156 HD
BRANCH  14  24
ATOM     21  C   UNL     1      -6.921  -6.911  -2.995  0.00  0.00    -0.048 A 
ATOM     22  C   UNL     1      -5.751  -6.441  -2.428  0.00  0.00    +0.004 A 
ATOM     23  C   UNL     1      -5.781  -5.339  -1.594  0.00  0.00    +0.007 A 
ATOM     24  C   UNL     1      -6.981  -4.705  -1.329  0.00  0.00    -0.014 A 
ATOM     25  C   UNL     1      -8.151  -5.175  -1.897  0.00  0.00    +0.007 A 
ATOM     26  C   UNL     1      -8.120  -6.274  -2.734  0.00  0.00    +0.004 A 
BRANCH  21  28
ATOM     27  C   UNL     1      -6.666  -7.655  -5.347  0.00  0.00    +0.009 C 
ATOM     28  C   UNL     1      -6.888  -8.113  -3.904  0.00  0.00    +0.032 C 
ENDBRANCH  21  28
ENDBRANCH  14  24
ENDBRANCH   1  16
BRANCH  11  29
ATOM     29  C   UNL     1     -12.287   3.428  -4.915  0.00  0.00    +0.165 C 
BRANCH  29  30
ATOM     30  C   UNL     1     -12.768   4.572  -4.060  0.00  0.00    -0.027 A 
ATOM     31  C   UNL     1     -14.002   4.502  -3.441  0.00  0.00    +0.007 A 
ATOM     32  C   UNL     1     -14.444   5.551  -2.657  0.00  0.00    +0.020 A 
ATOM     33  C   UNL     1     -13.650   6.672  -2.492  0.00  0.00    +0.041 A 
ATOM     34  C   UNL     1     -12.415   6.742  -3.112  0.00  0.00    +0.020 A 
ATOM     35  C   UNL     1     -11.973   5.690  -3.891  0.00  0.00    +0.007 A 
ATOM     36 CL   UNL     1     -14.205   7.991  -1.508  0.00  0.00    -0.084 Cl
ENDBRANCH  29  30
ENDBRANCH  11  29
TORSDOF 5
