REMARK  Name = ZINC59119352
REMARK  12 active torsions:
REMARK  status: ('A' for Active; 'I' for Inactive)
REMARK    1  A    between atoms: C_1  and  C_2
REMARK    2  A    between atoms: C_2  and  N_3
REMARK    3  A    between atoms: N_3  and  C_4
REMARK    4  A    between atoms: N_3  and  C_6
REMARK    5  A    between atoms: C_4  and  C_5
REMARK    6  A    between atoms: C_6  and  C_7
REMARK    7  A    between atoms: C_10  and  C_13
REMARK    8  A    between atoms: C_13  and  N_14
REMARK    9  A    between atoms: N_17  and  C_18
REMARK   10  A    between atoms: C_18  and  C_19
REMARK   11  A    between atoms: C_19  and  C_21
REMARK   12  A    between atoms: C_19  and  O_28
REMARK                            x       y       z     vdW  Elec       q    Type
REMARK                         _______ _______ _______ _____ _____    ______ ____
ROOT
ATOM      1  N   UNL     1       4.574  -1.474  -4.403  0.00  0.00    -0.295 N 
ATOM      2  C   UNL     1       5.299  -1.432  -5.538  0.00  0.00    +0.300 C 
ATOM      3  O   UNL     1       5.774  -2.454  -5.995  0.00  0.00    -0.253 OA
ATOM      4  N   UNL     1       5.497  -0.258  -6.168  0.00  0.00    -0.297 N 
ATOM      5  H   UNL     1       4.195  -0.659  -4.039  0.00  0.00    +0.151 HD
ATOM      6  H   UNL     1       5.118   0.558  -5.804  0.00  0.00    +0.150 HD
ENDROOT
BRANCH   1   7
ATOM      7  C   UNL     1       4.359  -2.751  -3.718  0.00  0.00    +0.141 C 
BRANCH   7  11
ATOM      8  C   UNL     1       1.990  -2.112  -0.221  0.00  0.00    -0.064 A 
ATOM      9  C   UNL     1       1.378  -2.391  -1.429  0.00  0.00    +0.002 A 
ATOM     10  C   UNL     1       2.145  -2.598  -2.561  0.00  0.00    +0.005 A 
ATOM     11  C   UNL     1       3.523  -2.525  -2.485  0.00  0.00    -0.030 A 
ATOM     12  C   UNL     1       4.135  -2.246  -1.277  0.00  0.00    +0.005 A 
ATOM     13  C   UNL     1       3.369  -2.035  -0.146  0.00  0.00    +0.002 A 
BRANCH   8  14
ATOM     14  C   UNL     1       1.155  -1.887   1.013  0.00  0.00    -0.043 C 
BRANCH  14  15
ATOM     15  N   UNL     1       0.823  -0.461   1.126  0.00  0.00    +0.382 N 
ATOM     16  H   UNL     1       1.672   0.084   1.110  0.00  0.00    -0.081 HD
BRANCH  15  18
ATOM     17  C   UNL     1      -0.266   1.445   0.039  0.00  0.00    -0.017 C 
ATOM     18  C   UNL     1      -0.034  -0.067  -0.001  0.00  0.00    -0.082 C 
ENDBRANCH  15  18
BRANCH  15  19
ATOM     19  C   UNL     1       0.111  -0.222   2.389  0.00  0.00    -0.082 C 
ATOM     20  C   UNL     1       1.053  -0.495   3.563  0.00  0.00    -0.017 C 
ENDBRANCH  15  19
ENDBRANCH  14  15
ENDBRANCH   8  14
ENDBRANCH   7  11
ENDBRANCH   1   7
BRANCH   4  21
ATOM     21  C   UNL     1       6.285  -0.212  -7.403  0.00  0.00    +0.142 C 
BRANCH  21  22
ATOM     22  C   UNL     1       6.357   1.230  -7.909  0.00  0.00    +0.164 C 
BRANCH  22  23
ATOM     23  C   UNL     1       7.061   1.260  -9.241  0.00  0.00    +0.018 A 
ATOM     24  C   UNL     1       8.418   1.516  -9.300  0.00  0.00    +0.009 A 
ATOM     25  C   UNL     1       9.065   1.543 -10.521  0.00  0.00    +0.001 A 
ATOM     26  C   UNL     1       8.355   1.316 -11.685  0.00  0.00    +0.003 A 
ATOM     27  C   UNL     1       6.998   1.060 -11.629  0.00  0.00    +0.039 A 
ATOM     28  C   UNL     1       6.351   1.027 -10.406  0.00  0.00    +0.129 A 
ATOM     29  F   UNL     1       5.025   0.772 -10.349  0.00  0.00    -0.205 F 
ENDBRANCH  22  23
BRANCH  22  30
ATOM     30  O   UNL     1       7.078   2.030  -6.970  0.00  0.00    -0.386 OA
ATOM     31  H   UNL     1       7.987   1.735  -6.819  0.00  0.00    +0.210 HD
ENDBRANCH  22  30
ENDBRANCH  21  22
ENDBRANCH   4  21
TORSDOF 10
