REMARK  Name = ZINC09934836
REMARK  6 active torsions:
REMARK  status: ('A' for Active; 'I' for Inactive)
REMARK    1  A    between atoms: C_1  and  C_2
REMARK    2  A    between atoms: C_2  and  N_46
REMARK    3  A    between atoms: N_5  and  C_8
REMARK    4  A    between atoms: C_11  and  N_14
REMARK    5  A    between atoms: C_15  and  C_16
REMARK    6  A    between atoms: C_19  and  O_23
REMARK                            x       y       z     vdW  Elec       q    Type
REMARK                         _______ _______ _______ _____ _____    ______ ____
ROOT
ATOM      1  C   UNL     1      -1.413   3.565  -2.353  0.00  0.00    +0.030 A 
ATOM      2  C   UNL     1      -1.864   2.692  -3.337  0.00  0.00    +0.025 A 
ATOM      3  C   UNL     1      -2.468   3.185  -4.473  0.00  0.00    +0.029 A 
ATOM      4  C   UNL     1      -2.617   4.564  -4.641  0.00  0.00    +0.064 A 
ATOM      5  C   UNL     1      -2.157   5.438  -3.652  0.00  0.00    +0.029 A 
ATOM      6  C   UNL     1      -1.559   4.938  -2.516  0.00  0.00    +0.025 A 
ENDROOT
BRANCH   1   9
ATOM      7  C   UNL     1      -0.013   1.086   0.008  0.00  0.00    -0.060 C 
ATOM      8  C   UNL     1      -0.754   1.593  -1.231  0.00  0.00    +0.086 C 
ATOM      9  N   UNL     1      -0.806   3.062  -1.200  0.00  0.00    -0.333 N 
ATOM     10  C   UNL     1      -1.495   3.536   0.008  0.00  0.00    +0.086 C 
ATOM     11  C   UNL     1      -0.754   3.029   1.247  0.00  0.00    -0.060 C 
ATOM     12  N   UNL     1      -0.728   1.551   1.215  0.00  0.00    +0.382 N 
ATOM     13  H   UNL     1      -1.692   1.200   1.187  0.00  0.00    -0.082 HD
BRANCH  12  15
ATOM     14  C   UNL     1      -0.640   1.734   3.658  0.00  0.00    -0.017 C 
ATOM     15  C   UNL     1      -0.062   1.031   2.429  0.00  0.00    -0.082 C 
ENDBRANCH  12  15
ENDBRANCH   1   9
BRANCH   4  16
ATOM     16  N   UNL     1      -3.211   5.057  -5.770  0.00  0.00    -0.255 NA
ATOM     17  C   UNL     1      -2.885   4.581  -6.939  0.00  0.00    +0.119 C 
BRANCH  17  18
ATOM     18  C   UNL     1      -3.525   5.112  -8.153  0.00  0.00    -0.005 A 
ATOM     19  C   UNL     1      -4.487   6.122  -8.055  0.00  0.00    +0.028 A 
ATOM     20  C   UNL     1      -5.080   6.619  -9.196  0.00  0.00    +0.061 A 
ATOM     21  C   UNL     1      -4.731   6.110 -10.441  0.00  0.00    +0.145 A 
ATOM     22  C   UNL     1      -3.779   5.102 -10.543  0.00  0.00    +0.061 A 
ATOM     23  C   UNL     1      -3.177   4.603  -9.409  0.00  0.00    +0.028 A 
ATOM     24 BR   UNL     1      -3.309   4.415 -12.242  0.00  0.00    -0.046 Br
ATOM     25 BR   UNL     1      -6.376   7.990  -9.066  0.00  0.00    -0.046 Br
BRANCH  21  26
ATOM     26  O   UNL     1      -5.322   6.599 -11.562  0.00  0.00    -0.505 OA
ATOM     27  H   UNL     1      -6.130   6.132 -11.816  0.00  0.00    +0.292 HD
ENDBRANCH  21  26
ENDBRANCH  17  18
ENDBRANCH   4  16
TORSDOF 5
