REMARK  Name = ZINC63478880
REMARK  10 active torsions:
REMARK  status: ('A' for Active; 'I' for Inactive)
REMARK    1  A    between atoms: C_1  and  C_2
REMARK    2  A    between atoms: C_5  and  N_8
REMARK    3  A    between atoms: N_8  and  C_9
REMARK    4  A    between atoms: N_8  and  S_21
REMARK    5  A    between atoms: C_9  and  C_10
REMARK    6  A    between atoms: N_12  and  C_13
REMARK    7  A    between atoms: C_13  and  C_14
REMARK    8  A    between atoms: S_21  and  C_24
REMARK    9  A    between atoms: C_25  and  C_31
REMARK   10  A    between atoms: C_28  and  C_30
REMARK                            x       y       z     vdW  Elec       q    Type
REMARK                         _______ _______ _______ _____ _____    ______ ____
ROOT
ATOM      1  N   UNL     1       0.058  -4.167  -0.021  0.00  0.00    -0.194 N 
ENDROOT
BRANCH   1   6
ATOM      2  C   UNL     1      -1.009   1.389  -0.409  0.00  0.00    +0.044 C 
ATOM      3  C   UNL     1      -0.726  -0.088  -0.306  0.00  0.00    -0.050 A 
ATOM      4  C   UNL     1      -1.254  -0.959  -1.241  0.00  0.00    +0.005 A 
ATOM      5  C   UNL     1      -0.996  -2.313  -1.149  0.00  0.00    +0.025 A 
ATOM      6  C   UNL     1      -0.205  -2.799  -0.117  0.00  0.00    +0.052 A 
ATOM      7  C   UNL     1       0.325  -1.921   0.821  0.00  0.00    +0.025 A 
ATOM      8  C   UNL     1       0.068  -0.568   0.720  0.00  0.00    +0.005 A 
ENDBRANCH   1   6
BRANCH   1   9
ATOM      9  S   UNL     1      -0.415  -5.009   1.325  0.00  0.00    +0.075 S 
ATOM     10  O   UNL     1       0.406  -6.168   1.388  0.00  0.00    -0.150 OA
ATOM     11  O   UNL     1      -0.488  -4.069   2.387  0.00  0.00    -0.150 OA
BRANCH   9  12
ATOM     12  C   UNL     1      -2.059  -5.572   1.036  0.00  0.00    +0.134 C 
ATOM     13  C   UNL     1      -3.195  -5.092   1.550  0.00  0.00    +0.085 C 
ATOM     14  N   UNL     1      -4.260  -5.787   1.091  0.00  0.00    -0.157 NA
ATOM     15  N   UNL     1      -3.978  -6.700   0.311  0.00  0.00    -0.178 NA
ATOM     16  C   UNL     1      -2.515  -6.710   0.140  0.00  0.00    +0.176 C 
ATOM     17  C   UNL     1      -1.927  -8.040   0.614  0.00  0.00    +0.041 C 
ATOM     18  C   UNL     1      -3.277  -3.934   2.510  0.00  0.00    +0.069 C 
ENDBRANCH   9  12
ENDBRANCH   1   9
BRANCH   1  19
ATOM     19  C   UNL     1       0.752  -4.858  -1.111  0.00  0.00    +0.227 C 
BRANCH  19  20
ATOM     20  C   UNL     1       2.241  -4.707  -0.934  0.00  0.00    +0.232 C 
ATOM     21  O   UNL     1       2.679  -4.083   0.009  0.00  0.00    -0.274 OA
ATOM     22  N   UNL     1       3.085  -5.264  -1.825  0.00  0.00    -0.310 N 
ATOM     23  H   UNL     1       2.734  -5.763  -2.579  0.00  0.00    +0.149 HD
BRANCH  22  24
ATOM     24  C   UNL     1       4.533  -5.117  -1.653  0.00  0.00    +0.139 C 
BRANCH  24  25
ATOM     25  C   UNL     1       5.246  -5.828  -2.774  0.00  0.00    -0.030 A 
ATOM     26  C   UNL     1       5.593  -7.159  -2.638  0.00  0.00    +0.008 A 
ATOM     27  C   UNL     1       6.247  -7.812  -3.666  0.00  0.00    +0.038 A 
ATOM     28  C   UNL     1       6.555  -7.132  -4.832  0.00  0.00    +0.123 A 
ATOM     29  C   UNL     1       6.207  -5.798  -4.967  0.00  0.00    +0.038 A 
ATOM     30  C   UNL     1       5.549  -5.149  -3.940  0.00  0.00    +0.008 A 
ATOM     31  F   UNL     1       7.195  -7.769  -5.837  0.00  0.00    -0.205 F 
ENDBRANCH  24  25
ENDBRANCH  22  24
ENDBRANCH  19  20
ENDBRANCH   1  19
TORSDOF 7
