REMARK  Name = ZINC22766791
REMARK  10 active torsions:
REMARK  status: ('A' for Active; 'I' for Inactive)
REMARK    1  A    between atoms: C_1  and  C_2
REMARK    2  A    between atoms: C_2  and  C_3
REMARK    3  A    between atoms: C_2  and  C_4
REMARK    4  A    between atoms: C_4  and  C_6
REMARK    5  A    between atoms: C_4  and  N_24
REMARK    6  A    between atoms: N_8  and  C_9
REMARK    7  A    between atoms: C_9  and  C_10
REMARK    8  A    between atoms: C_10  and  C_12
REMARK    9  A    between atoms: C_10  and  N_19
REMARK   10  A    between atoms: C_25  and  C_27
REMARK                            x       y       z     vdW  Elec       q    Type
REMARK                         _______ _______ _______ _____ _____    ______ ____
ROOT
ATOM      1  C   UNL     1      -2.469  -0.009  -0.882  0.00  0.00    +0.234 C 
ATOM      2  O   UNL     1      -2.421  -1.211  -1.037  0.00  0.00    -0.274 OA
ATOM      3  N   UNL     1      -3.617   0.656  -1.121  0.00  0.00    -0.315 N 
ATOM      4  H   UNL     1      -3.686   1.731  -0.899  0.00  0.00    +0.149 HD
ENDROOT
BRANCH   1   5
ATOM      5  C   UNL     1      -1.245   0.741  -0.422  0.00  0.00    +0.162 C 
BRANCH   5   6
ATOM      6  N   UNL     1      -0.050  -0.061  -0.694  0.00  0.00    -0.297 N 
ATOM      7  C   UNL     1       1.144   0.542  -0.858  0.00  0.00    +0.280 C 
ATOM      8  O   UNL     1       1.230   1.753  -0.775  0.00  0.00    -0.267 OA
ATOM      9  H   UNL     1      -0.127  -1.157  -0.764  0.00  0.00    +0.150 HD
BRANCH   7  10
ATOM     10  C   UNL     1       2.339  -0.261  -1.136  0.00  0.00    +0.189 A 
ATOM     11  C   UNL     1       3.603   0.221  -1.322  0.00  0.00    +0.054 A 
ATOM     12  C   UNL     1       4.428  -0.891  -1.558  0.00  0.00    +0.042 A 
ATOM     13  C   UNL     1       3.641  -1.988  -1.506  0.00  0.00    +0.196 A 
ATOM     14  O   UNL     1       2.384  -1.604  -1.247  0.00  0.00    -0.458 OA
ENDBRANCH   7  10
ENDBRANCH   5   6
BRANCH   5  16
ATOM     15  C   UNL     1      -2.525   1.950   1.351  0.00  0.00    +0.009 C 
ATOM     16  C   UNL     1      -1.347   1.011   1.080  0.00  0.00    +0.012 C 
ATOM     17  C   UNL     1      -1.567  -0.309   1.822  0.00  0.00    +0.009 C 
ENDBRANCH   5  16
ENDBRANCH   1   5
BRANCH   3  18
ATOM     18  C   UNL     1      -4.772  -0.053  -1.676  0.00  0.00    +0.093 C 
BRANCH  18  19
ATOM     19  C   UNL     1      -5.893   0.947  -1.966  0.00  0.00    -0.019 C 
BRANCH  19  20
ATOM     20  C   UNL     1      -6.375   1.551  -0.672  0.00  0.00    -0.041 A 
ATOM     21  C   UNL     1      -5.933   2.803  -0.287  0.00  0.00    +0.003 A 
ATOM     22  C   UNL     1      -6.378   3.359   0.898  0.00  0.00    +0.000 A 
ATOM     23  C   UNL     1      -7.258   2.659   1.703  0.00  0.00    +0.001 A 
ATOM     24  C   UNL     1      -7.697   1.406   1.321  0.00  0.00    +0.020 A 
ATOM     25  C   UNL     1      -7.255   0.850   0.133  0.00  0.00    +0.043 A 
ATOM     26 CL   UNL     1      -7.805  -0.725  -0.347  0.00  0.00    -0.083 Cl
ENDBRANCH  19  20
BRANCH  19  27
ATOM     27  N   UNL     1      -5.386   2.010  -2.844  0.00  0.00    +0.385 N 
ATOM     28  C   UNL     1      -4.798   1.441  -4.083  0.00  0.00    -0.078 C 
ATOM     29  C   UNL     1      -4.815   2.638  -5.066  0.00  0.00    -0.020 C 
ATOM     30  C   UNL     1      -6.145   3.349  -4.722  0.00  0.00    -0.020 C 
ATOM     31  C   UNL     1      -6.482   2.898  -3.288  0.00  0.00    -0.078 C 
ATOM     32  H   UNL     1      -4.639   2.557  -2.250  0.00  0.00    -0.081 HD
ENDBRANCH  19  27
ENDBRANCH  18  19
ENDBRANCH   3  18
TORSDOF 8
