REMARK  Name = ZINC36584412
REMARK  17 active torsions:
REMARK  status: ('A' for Active; 'I' for Inactive)
REMARK    1  A    between atoms: C_1  and  C_2
REMARK    2  A    between atoms: C_2  and  C_3
REMARK    3  A    between atoms: C_3  and  C_4
REMARK    4  A    between atoms: C_4  and  N_5
REMARK    5  A    between atoms: C_6  and  C_8
REMARK    6  A    between atoms: C_8  and  C_10
REMARK    7  A    between atoms: C_8  and  N_19
REMARK    8  A    between atoms: C_11  and  O_18
REMARK    9  A    between atoms: C_13  and  O_17
REMARK   10  A    between atoms: C_15  and  O_16
REMARK   11  A    between atoms: N_19  and  C_30
REMARK   12  A    between atoms: C_20  and  C_22
REMARK   13  A    between atoms: C_25  and  O_28
REMARK   14  A    between atoms: O_28  and  C_29
REMARK   15  A    between atoms: C_30  and  C_31
REMARK   16  A    between atoms: C_30  and  C_32
REMARK   17  A    between atoms: C_30  and  C_33
REMARK                            x       y       z     vdW  Elec       q    Type
REMARK                         _______ _______ _______ _____ _____    ______ ____
ROOT
ATOM      1  C   UNL     1       2.525  -6.113  -5.721  0.00  0.00    +0.200 C 
ENDROOT
BRANCH   1   2
ATOM      2  C   UNL     1       3.684  -6.519  -6.594  0.00  0.00    +0.065 A 
ATOM      3  C   UNL     1       4.022  -7.859  -6.718  0.00  0.00    +0.129 A 
ATOM      4  C   UNL     1       5.089  -8.233  -7.522  0.00  0.00    +0.091 A 
ATOM      5  C   UNL     1       5.816  -7.268  -8.202  0.00  0.00    +0.124 A 
ATOM      6  C   UNL     1       5.477  -5.928  -8.078  0.00  0.00    +0.091 A 
ATOM      7  C   UNL     1       4.408  -5.555  -7.278  0.00  0.00    +0.129 A 
BRANCH   7   8
ATOM      8  O   UNL     1       4.073  -4.243  -7.161  0.00  0.00    -0.506 OA
ATOM      9  H   UNL     1       4.523  -3.785  -6.437  0.00  0.00    +0.292 HD
ENDBRANCH   7   8
BRANCH   5  10
ATOM     10  O   UNL     1       6.862  -7.634  -8.988  0.00  0.00    -0.507 OA
ATOM     11  H   UNL     1       6.619  -7.815  -9.907  0.00  0.00    +0.292 HD
ENDBRANCH   5  10
BRANCH   3  12
ATOM     12  O   UNL     1       3.309  -8.804  -6.052  0.00  0.00    -0.506 OA
ATOM     13  H   UNL     1       2.516  -9.100  -6.519  0.00  0.00    +0.292 HD
ENDBRANCH   3  12
ENDBRANCH   1   2
BRANCH   1  15
ATOM     14  N   UNL     1       0.692  -6.208  -7.379  0.00  0.00    -0.313 N 
ATOM     15  C   UNL     1       1.253  -6.713  -6.263  0.00  0.00    +0.238 C 
ATOM     16  O   UNL     1       0.734  -7.650  -5.694  0.00  0.00    -0.273 OA
ATOM     17  H   UNL     1       1.107  -5.459  -7.834  0.00  0.00    +0.149 HD
BRANCH  14  18
ATOM     18  C   UNL     1      -0.544  -6.791  -7.906  0.00  0.00    +0.104 C 
BRANCH  18  19
ATOM     19  C   UNL     1      -0.965  -6.039  -9.170  0.00  0.00    +0.018 C 
BRANCH  19  21
ATOM     20  C   UNL     1      -2.677  -5.896 -10.985  0.00  0.00    +0.004 C 
ATOM     21  C   UNL     1      -2.256  -6.648  -9.720  0.00  0.00    -0.002 C 
ENDBRANCH  19  21
ENDBRANCH  18  19
ENDBRANCH  14  18
ENDBRANCH   1  15
BRANCH   1  22
ATOM     22  N   UNL     1       2.749  -6.595  -4.356  0.00  0.00    -0.277 N 
ATOM     23  C   UNL     1       3.841  -7.332  -4.072  0.00  0.00    +0.248 C 
ATOM     24  O   UNL     1       4.881  -7.134  -4.672  0.00  0.00    -0.270 OA
BRANCH  23  25
ATOM     25  C   UNL     1       3.776  -8.380  -3.035  0.00  0.00    +0.037 A 
ATOM     26  C   UNL     1       3.041  -8.164  -1.866  0.00  0.00    +0.016 A 
ATOM     27  C   UNL     1       2.982  -9.144  -0.901  0.00  0.00    +0.046 A 
ATOM     28  C   UNL     1       3.653 -10.347  -1.087  0.00  0.00    +0.120 A 
ATOM     29  C   UNL     1       4.385 -10.566  -2.248  0.00  0.00    +0.046 A 
ATOM     30  C   UNL     1       4.444  -9.593  -3.221  0.00  0.00    +0.016 A 
BRANCH  28  31
ATOM     31  O   UNL     1       3.593 -11.310  -0.133  0.00  0.00    -0.495 OA
ATOM     32  C   UNL     1       4.306 -12.522  -0.389  0.00  0.00    +0.277 C 
ENDBRANCH  28  31
ENDBRANCH  23  25
BRANCH  22  33
ATOM     33  C   UNL     1       1.786  -6.277  -3.299  0.00  0.00    +0.030 C 
ATOM     34  C   UNL     1       0.679  -5.387  -3.868  0.00  0.00    +0.031 C 
ATOM     35  C   UNL     1       1.174  -7.571  -2.759  0.00  0.00    +0.031 C 
ATOM     36  C   UNL     1       2.500  -5.538  -2.164  0.00  0.00    +0.031 C 
ENDBRANCH  22  33
ENDBRANCH   1  22
TORSDOF 12
