REMARK  Name = ZINC05130645
REMARK  6 active torsions:
REMARK  status: ('A' for Active; 'I' for Inactive)
REMARK    1  A    between atoms: C_1  and  C_2
REMARK    2  A    between atoms: C_2  and  C_3
REMARK    3  A    between atoms: C_3  and  C_4
REMARK    4  A    between atoms: C_11  and  N_25
REMARK    5  A    between atoms: C_12  and  C_23
REMARK    6  A    between atoms: C_13  and  C_15
REMARK                            x       y       z     vdW  Elec       q    Type
REMARK                         _______ _______ _______ _____ _____    ______ ____
ROOT
ATOM      1  C   UNL     1      -4.527   3.888  -0.558  0.00  0.00    +0.044 A 
ATOM      2  C   UNL     1      -3.583   2.984  -0.258  0.00  0.00    +0.049 A 
ATOM      3  C   UNL     1      -2.333   3.642  -0.247  0.00  0.00    +0.245 A 
ATOM      4  N   UNL     1      -2.535   4.895  -0.530  0.00  0.00    -0.135 NA
ATOM      5  N   UNL     1      -3.912   5.081  -0.732  0.00  0.00    -0.278 N 
ATOM      6  H   UNL     1      -4.504   5.972  -0.987  0.00  0.00    +0.189 HD
ATOM      7  O   UNL     1      -1.174   2.983   0.029  0.00  0.00    -0.421 OA
ATOM      8  C   UNL     1      -1.209   1.636   0.017  0.00  0.00    +0.201 C 
ATOM      9  C   UNL     1      -2.340   0.900   0.018  0.00  0.00    +0.098 C 
ATOM     10  C   UNL     1      -3.719   1.511   0.033  0.00  0.00    +0.101 C 
ENDROOT
BRANCH  10  11
ATOM     11  C   UNL     1      -4.347   1.316   1.389  0.00  0.00    -0.032 A 
ATOM     12  C   UNL     1      -5.530   0.610   1.507  0.00  0.00    +0.006 A 
ATOM     13  C   UNL     1      -6.107   0.430   2.750  0.00  0.00    +0.018 A 
ATOM     14  C   UNL     1      -5.502   0.956   3.877  0.00  0.00    +0.053 A 
ATOM     15  C   UNL     1      -4.317   1.663   3.759  0.00  0.00    +0.138 A 
ATOM     16  C   UNL     1      -3.737   1.837   2.514  0.00  0.00    +0.044 A 
ATOM     17  F   UNL     1      -3.725   2.178   4.859  0.00  0.00    -0.204 F 
ATOM     18 BR   UNL     1      -6.293   0.710   5.577  0.00  0.00    -0.047 Br
ENDBRANCH  10  11
BRANCH   8  19
ATOM     19  N   UNL     1      -0.011   0.966   0.007  0.00  0.00    -0.328 N 
ATOM     20  H   UNL     1       0.004  -0.134  -0.003  0.00  0.00    +0.145 HD
ATOM     21  H   UNL     1       0.934   1.529   0.010  0.00  0.00    +0.145 HD
ENDBRANCH   8  19
BRANCH   9  22
ATOM     22  C   UNL     1      -2.226  -0.527   0.005  0.00  0.00    +0.101 C 
ATOM     23  N   UNL     1      -2.135  -1.660  -0.005  0.00  0.00    -0.191 NA
ENDBRANCH   9  22
BRANCH   1  24
ATOM     24  C   UNL     1      -6.005   3.623  -0.680  0.00  0.00    +0.055 C 
BRANCH  24  26
ATOM     25  C   UNL     1      -8.155   3.432   0.581  0.00  0.00    +0.004 C 
ATOM     26  C   UNL     1      -6.653   3.701   0.704  0.00  0.00    +0.003 C 
ENDBRANCH  24  26
ENDBRANCH   1  24
TORSDOF 5
