REMARK  Name = ZINC38974946
REMARK  6 active torsions:
REMARK  status: ('A' for Active; 'I' for Inactive)
REMARK    1  A    between atoms: N_7  and  S_8
REMARK    2  A    between atoms: S_8  and  C_11
REMARK    3  A    between atoms: C_20  and  N_25
REMARK    4  A    between atoms: N_25  and  C_26
REMARK    5  A    between atoms: C_26  and  C_27
REMARK    6  A    between atoms: C_27  and  C_28
REMARK                            x       y       z     vdW  Elec       q    Type
REMARK                         _______ _______ _______ _____ _____    ______ ____
ROOT
ATOM      1  C   UNL     1      -0.016   1.347   0.009  0.00  0.00    +0.002 A 
ATOM      2  C   UNL     1       1.169   2.102   0.002  0.00  0.00    +0.002 A 
ATOM      3  C   UNL     1       2.395   1.536  -0.013  0.00  0.00    +0.028 A 
ATOM      4  C   UNL     1       2.534   0.125  -0.021  0.00  0.00    +0.064 A 
ATOM      5  N   UNL     1       3.732  -0.421  -0.035  0.00  0.00    -0.338 N 
ATOM      6  C   UNL     1       3.898  -1.753  -0.045  0.00  0.00    +0.167 C 
ATOM      7  N   UNL     1       5.092  -2.269  -0.058  0.00  0.00    -0.112 NA
ATOM      8  C   UNL     1       2.677  -2.645  -0.038  0.00  0.00    +0.217 C 
ATOM      9  N   UNL     1       1.355  -2.000  -0.022  0.00  0.00    -0.362 N 
ATOM     10  C   UNL     1       1.299  -0.697  -0.014  0.00  0.00    +0.060 A 
ATOM     11  C   UNL     1       0.002  -0.004   0.002  0.00  0.00    +0.027 A 
ATOM     12  H   UNL     1       0.544  -2.532  -0.018  0.00  0.00    +0.162 HD
ATOM     13  H   UNL     1       4.513   0.153  -0.039  0.00  0.00    +0.167 HD
ENDROOT
BRANCH   7  14
ATOM     14  S   UNL     1       6.421  -1.280  -0.064  0.00  0.00    +0.102 S 
ATOM     15  O   UNL     1       6.407  -0.589  -1.306  0.00  0.00    -0.146 OA
ATOM     16  O   UNL     1       6.429  -0.603   1.185  0.00  0.00    -0.146 OA
BRANCH  14  17
ATOM     17  C   UNL     1       7.843  -2.320  -0.083  0.00  0.00    +0.141 A 
ATOM     18  C   UNL     1       8.675  -2.308  -1.151  0.00  0.00    +0.031 A 
ATOM     19  C   UNL     1       9.810  -3.117  -1.200  0.00  0.00    +0.004 A 
ATOM     20  C   UNL     1      10.129  -3.950  -0.182  0.00  0.00    +0.031 A 
ATOM     21  C   UNL     1       9.302  -4.016   0.972  0.00  0.00    +0.102 A 
ATOM     22  C   UNL     1       8.119  -3.165   1.026  0.00  0.00    +0.127 A 
ATOM     23  N   UNL     1       7.423  -3.306   2.155  0.00  0.00    -0.189 NA
ATOM     24  S   UNL     1       8.222  -4.399   3.024  0.00  0.00    +0.117 S 
ATOM     25  N   UNL     1       9.457  -4.769   2.062  0.00  0.00    -0.191 NA
ENDBRANCH  14  17
ENDBRANCH   7  14
BRANCH   8  26
ATOM     26  N   UNL     1       2.743  -3.503  -1.229  0.00  0.00    -0.290 NA
ATOM     27  H   UNL     1       2.136  -3.156  -1.958  0.00  0.00    +0.124 HD
BRANCH  26  28
ATOM     28  C   UNL     1       2.419  -4.896  -0.893  0.00  0.00    +0.087 C 
BRANCH  28  29
ATOM     29  C   UNL     1       2.497  -5.756  -2.156  0.00  0.00    +0.045 C 
BRANCH  29  30
ATOM     30  C   UNL     1       2.166  -7.185  -1.812  0.00  0.00    -0.072 C 
ATOM     31  C   UNL     1       0.946  -7.583  -1.981  0.00  0.00    -0.028 C 
ATOM     32  C   UNL     1       0.463  -8.970  -1.673  0.00  0.00    +0.027 C 
ATOM     33  C   UNL     1       1.652  -9.927  -1.552  0.00  0.00    +0.004 C 
ATOM     34  C   UNL     1       2.688  -9.298  -0.612  0.00  0.00    +0.005 C 
ATOM     35  C   UNL     1       3.272  -8.060  -1.299  0.00  0.00    +0.030 C 
ENDBRANCH  29  30
ENDBRANCH  28  29
ENDBRANCH  26  28
ENDBRANCH   8  26
TORSDOF 6
