REMARK  Name = ZINC18088312
REMARK  7 active torsions:
REMARK  status: ('A' for Active; 'I' for Inactive)
REMARK    1  A    between atoms: C_1  and  C_2
REMARK    2  A    between atoms: C_2  and  C_13
REMARK    3  A    between atoms: N_3  and  C_4
REMARK    4  A    between atoms: C_4  and  C_5
REMARK    5  A    between atoms: C_8  and  O_11
REMARK    6  A    between atoms: O_11  and  C_12
REMARK    7  A    between atoms: C_14  and  C_29
REMARK                            x       y       z     vdW  Elec       q    Type
REMARK                         _______ _______ _______ _____ _____    ______ ____
ROOT
ATOM      1  C   UNL     1      -0.043  -0.764  -1.249  0.00  0.00    +0.091 A 
ATOM      2  C   UNL     1       0.101  -0.324  -2.549  0.00  0.00    +0.150 A 
ATOM      3  N   UNL     1       0.056  -1.393  -3.370  0.00  0.00    -0.284 N 
ATOM      4  H   UNL     1       0.133  -1.357  -4.336  0.00  0.00    +0.187 HD
ATOM      5  N   UNL     1      -0.119  -2.561  -2.621  0.00  0.00    -0.194 N 
ATOM      6  C   UNL     1      -0.179  -2.228  -1.315  0.00  0.00    +0.283 A 
ATOM      7  O   UNL     1      -0.322  -2.988  -0.376  0.00  0.00    -0.265 OA
ATOM      8  C   UNL     1      -0.210  -3.843  -3.133  0.00  0.00    +0.196 A 
ATOM      9  N   UNL     1      -0.379  -4.976  -2.491  0.00  0.00    -0.221 NA
ATOM     10  C   UNL     1      -0.451  -6.166  -3.125  0.00  0.00    +0.081 A 
ATOM     11  C   UNL     1      -0.630  -7.449  -2.557  0.00  0.00    +0.029 A 
ATOM     12  C   UNL     1      -0.681  -8.565  -3.351  0.00  0.00    +0.002 A 
ATOM     13  C   UNL     1      -0.560  -8.480  -4.731  0.00  0.00    +0.001 A 
ATOM     14  C   UNL     1      -0.385  -7.241  -5.320  0.00  0.00    +0.017 A 
ATOM     15  C   UNL     1      -0.332  -6.118  -4.533  0.00  0.00    +0.041 A 
ATOM     16  S   UNL     1      -0.134  -4.378  -4.836  0.00  0.00    -0.048 S 
ENDROOT
BRANCH   2  17
ATOM     17  C   UNL     1       0.278   1.109  -2.978  0.00  0.00    +0.434 C 
ATOM     18  F   UNL     1       0.390   1.925  -1.847  0.00  0.00    -0.164 F 
ATOM     19  F   UNL     1       1.437   1.224  -3.753  0.00  0.00    -0.164 F 
ATOM     20  F   UNL     1      -0.829   1.510  -3.734  0.00  0.00    -0.164 F 
ENDBRANCH   2  17
BRANCH   1  22
ATOM     21  C   UNL     1      -1.349   0.344   0.677  0.00  0.00    +0.066 C 
ATOM     22  C   UNL     1      -0.051   0.065  -0.037  0.00  0.00    +0.048 C 
ATOM     23  N   UNL     1       1.059   0.557   0.420  0.00  0.00    -0.283 NA
BRANCH  23  24
ATOM     24  C   UNL     1       1.069   1.287   1.690  0.00  0.00    +0.177 C 
BRANCH  24  25
ATOM     25  C   UNL     1       1.896   0.531   2.697  0.00  0.00    -0.026 A 
ATOM     26  C   UNL     1       1.300  -0.418   3.507  0.00  0.00    +0.009 A 
ATOM     27  C   UNL     1       2.057  -1.111   4.432  0.00  0.00    +0.046 A 
ATOM     28  C   UNL     1       3.415  -0.855   4.547  0.00  0.00    +0.120 A 
ATOM     29  C   UNL     1       4.011   0.098   3.733  0.00  0.00    +0.046 A 
ATOM     30  C   UNL     1       3.251   0.785   2.807  0.00  0.00    +0.009 A 
BRANCH  28  31
ATOM     31  O   UNL     1       4.161  -1.536   5.457  0.00  0.00    -0.495 OA
ATOM     32  C   UNL     1       5.554  -1.220   5.520  0.00  0.00    +0.277 C 
ENDBRANCH  28  31
ENDBRANCH  24  25
ENDBRANCH  23  24
ENDBRANCH   1  22
TORSDOF 5
