REMARK  Name = ZINC39227436
REMARK  8 active torsions:
REMARK  status: ('A' for Active; 'I' for Inactive)
REMARK    1  A    between atoms: C_1  and  C_2
REMARK    2  A    between atoms: C_2  and  C_3
REMARK    3  A    between atoms: C_3  and  C_5
REMARK    4  A    between atoms: C_3  and  C_6
REMARK    5  A    between atoms: C_6  and  N_7
REMARK    6  A    between atoms: C_8  and  C_10
REMARK    7  A    between atoms: C_13  and  C_16
REMARK    8  A    between atoms: N_28  and  C_31
REMARK                            x       y       z     vdW  Elec       q    Type
REMARK                         _______ _______ _______ _____ _____    ______ ____
ROOT
ATOM      1  C   UNL     1       5.104  -5.677   6.838  0.00  0.00    -0.017 A 
ATOM      2  C   UNL     1       5.610  -4.769   7.768  0.00  0.00    +0.012 A 
ATOM      3  C   UNL     1       6.373  -5.221   8.821  0.00  0.00    +0.046 A 
ATOM      4  C   UNL     1       6.642  -6.581   8.964  0.00  0.00    +0.124 A 
ATOM      5  C   UNL     1       6.137  -7.485   8.044  0.00  0.00    -0.005 A 
ATOM      6  C   UNL     1       5.369  -7.037   6.986  0.00  0.00    +0.015 A 
ATOM      7  C   UNL     1       6.397  -8.965   8.173  0.00  0.00    +0.043 C 
ATOM      8  C   UNL     1       7.588  -9.200   9.105  0.00  0.00    +0.052 C 
ATOM      9  C   UNL     1       7.384  -8.361  10.371  0.00  0.00    +0.108 C 
ATOM     10  O   UNL     1       7.406  -6.980  10.014  0.00  0.00    -0.486 OA
ATOM     11  C   UNL     1       8.507  -8.657  11.367  0.00  0.00    +0.029 C 
ATOM     12  C   UNL     1       8.253  -7.879  12.660  0.00  0.00    -0.075 C 
ATOM     13  N   UNL     1       6.964  -8.285  13.234  0.00  0.00    +0.378 N 
ATOM     14  C   UNL     1       5.876  -7.933  12.313  0.00  0.00    -0.075 C 
ATOM     15  C   UNL     1       6.037  -8.712  11.006  0.00  0.00    +0.029 C 
ATOM     16  C   UNL     1       6.761  -7.596  14.515  0.00  0.00    -0.096 C 
ATOM     17  H   UNL     1       6.965  -9.282  13.386  0.00  0.00    -0.082 HD
ENDROOT
BRANCH   1  21
ATOM     18  C   UNL     1       2.750  -4.302   3.572  0.00  0.00    +0.037 A 
ATOM     19  C   UNL     1       3.260  -3.389   4.499  0.00  0.00    +0.013 A 
ATOM     20  C   UNL     1       4.021  -3.835   5.556  0.00  0.00    +0.009 A 
ATOM     21  C   UNL     1       4.284  -5.198   5.700  0.00  0.00    -0.018 A 
ATOM     22  C   UNL     1       3.775  -6.110   4.775  0.00  0.00    +0.009 A 
ATOM     23  C   UNL     1       3.009  -5.667   3.721  0.00  0.00    +0.013 A 
BRANCH  18  25
ATOM     24  N   UNL     1       1.683  -2.507   2.295  0.00  0.00    -0.311 N 
ATOM     25  C   UNL     1       1.933  -3.824   2.438  0.00  0.00    +0.244 C 
ATOM     26  O   UNL     1       1.485  -4.619   1.635  0.00  0.00    -0.270 OA
ATOM     27  H   UNL     1       2.040  -1.873   2.937  0.00  0.00    +0.149 HD
BRANCH  24  28
ATOM     28  C   UNL     1       0.872  -2.034   1.171  0.00  0.00    +0.107 C 
BRANCH  28  29
ATOM     29  C   UNL     1       0.742  -0.511   1.242  0.00  0.00    +0.003 C 
ATOM     30  C   UNL     1      -0.042  -0.124   2.497  0.00  0.00    +0.009 C 
BRANCH  29  32
ATOM     31  C   UNL     1      -0.019   1.526   0.010  0.00  0.00    +0.004 C 
ATOM     32  C   UNL     1       0.002  -0.004   0.002  0.00  0.00    +0.001 C 
ENDBRANCH  29  32
ENDBRANCH  28  29
ENDBRANCH  24  28
ENDBRANCH  18  25
ENDBRANCH   1  21
TORSDOF 5
