REMARK  Name = ZINC04384802
REMARK  1 active torsions:
REMARK  status: ('A' for Active; 'I' for Inactive)
REMARK    1  A    between atoms: C_4  and  C_7
REMARK                            x       y       z     vdW  Elec       q    Type
REMARK                         _______ _______ _______ _____ _____    ______ ____
ROOT
ATOM      1  C   UNL     1       3.711  -0.707  -0.038  0.00  0.00    +0.093 C 
ATOM      2  C   UNL     1       3.816  -1.579   1.188  0.00  0.00    +0.069 A 
ATOM      3  C   UNL     1       4.054  -0.966   2.440  0.00  0.00    +0.280 A 
ATOM      4  O   UNL     1       4.176   0.248   2.515  0.00  0.00    -0.265 OA
ATOM      5  N   UNL     1       4.147  -1.720   3.545  0.00  0.00    -0.177 NA
ATOM      6  C   UNL     1       4.019  -3.028   3.482  0.00  0.00    +0.195 A 
ATOM      7  N   UNL     1       3.790  -3.656   2.297  0.00  0.00    -0.316 N 
ATOM      8  C   UNL     1       3.690  -2.930   1.135  0.00  0.00    +0.112 A 
ATOM      9  N   UNL     1       3.470  -3.605  -0.050  0.00  0.00    -0.300 N 
ATOM     10  C   UNL     1       3.667  -2.932  -1.234  0.00  0.00    +0.048 C 
ATOM     11  C   UNL     1       3.790  -1.566  -1.273  0.00  0.00    +0.034 C 
ATOM     12  C   UNL     1       3.990  -1.146  -2.607  0.00  0.00    +0.193 C 
ATOM     13  O   UNL     1       4.138   0.001  -2.985  0.00  0.00    -0.287 OA
ATOM     14  C   UNL     1       3.987  -2.354  -3.459  0.00  0.00    +0.031 A 
ATOM     15  C   UNL     1       3.785  -3.462  -2.596  0.00  0.00    +0.007 A 
ATOM     16  C   UNL     1       3.732  -4.753  -3.096  0.00  0.00    +0.010 A 
ATOM     17  C   UNL     1       3.886  -4.905  -4.477  0.00  0.00    +0.001 A 
ATOM     18  C   UNL     1       4.083  -3.830  -5.310  0.00  0.00    +0.001 A 
ATOM     19  C   UNL     1       4.137  -2.520  -4.822  0.00  0.00    +0.012 A 
ATOM     20  N   UNL     1       4.117  -3.770   4.629  0.00  0.00    -0.329 N 
ATOM     21  H   UNL     1       3.182  -4.532  -0.047  0.00  0.00    +0.154 HD
ATOM     22  H   UNL     1       4.281  -3.331   5.478  0.00  0.00    +0.145 HD
ATOM     23  H   UNL     1       4.024  -4.735   4.592  0.00  0.00    +0.145 HD
ATOM     24  H   UNL     1       3.697  -4.621   2.273  0.00  0.00    +0.170 HD
ENDROOT
BRANCH   1  28
ATOM     25  C   UNL     1      -0.017   1.378   0.010  0.00  0.00    +0.000 A 
ATOM     26  C   UNL     1       1.171   2.086   0.002  0.00  0.00    +0.000 A 
ATOM     27  C   UNL     1       2.377   1.411  -0.013  0.00  0.00    +0.004 A 
ATOM     28  C   UNL     1       2.396   0.029  -0.020  0.00  0.00    -0.035 A 
ATOM     29  C   UNL     1       1.208  -0.679  -0.012  0.00  0.00    +0.004 A 
ATOM     30  C   UNL     1       0.002  -0.004   0.002  0.00  0.00    +0.000 A 
ENDBRANCH   1  28
TORSDOF 1
