REMARK  Name = ZINC35033191
REMARK  7 active torsions:
REMARK  status: ('A' for Active; 'I' for Inactive)
REMARK    1  A    between atoms: C_1  and  C_2
REMARK    2  A    between atoms: C_2  and  N_3
REMARK    3  A    between atoms: C_13  and  C_14
REMARK    4  A    between atoms: C_14  and  C_16
REMARK    5  A    between atoms: C_14  and  N_17
REMARK    6  A    between atoms: C_21  and  C_24
REMARK    7  A    between atoms: C_25  and  C_27
REMARK                            x       y       z     vdW  Elec       q    Type
REMARK                         _______ _______ _______ _____ _____    ______ ____
ROOT
ATOM      1  N   UNL     1      -1.763   0.724   3.635  0.00  0.00    +0.388 N 
ATOM      2  C   UNL     1      -3.141   1.164   3.886  0.00  0.00    -0.059 C 
ATOM      3  C   UNL     1      -3.726   0.365   5.055  0.00  0.00    +0.090 C 
ATOM      4  N   UNL     1      -2.826   0.500   6.210  0.00  0.00    -0.298 N 
ATOM      5  C   UNL     1      -1.393   0.235   6.007  0.00  0.00    +0.057 C 
ATOM      6  C   UNL     1      -0.917   1.041   4.793  0.00  0.00    -0.055 C 
ATOM      7  C   UNL     1      -0.610   0.661   7.251  0.00  0.00    +0.026 C 
ATOM      8  C   UNL     1      -3.300   0.858   7.421  0.00  0.00    +0.247 C 
ATOM      9  O   UNL     1      -2.529   1.072   8.336  0.00  0.00    -0.270 OA
ATOM     10  H   UNL     1      -1.754  -0.273   3.477  0.00  0.00    -0.081 HD
ENDROOT
BRANCH   8  11
ATOM     11  C   UNL     1      -4.756   0.989   7.635  0.00  0.00    +0.037 A 
ATOM     12  C   UNL     1      -5.648   0.249   6.855  0.00  0.00    +0.014 A 
ATOM     13  C   UNL     1      -7.006   0.376   7.060  0.00  0.00    +0.021 A 
ATOM     14  C   UNL     1      -7.485   1.233   8.036  0.00  0.00    +0.041 A 
ATOM     15  C   UNL     1      -6.605   1.969   8.812  0.00  0.00    +0.021 A 
ATOM     16  C   UNL     1      -5.245   1.847   8.621  0.00  0.00    +0.014 A 
ATOM     17 CL   UNL     1      -9.196   1.388   8.287  0.00  0.00    -0.084 Cl
ENDBRANCH   8  11
BRANCH   1  18
ATOM     18  C   UNL     1      -1.240   1.411   2.447  0.00  0.00    -0.004 C 
ATOM     19  C   UNL     1      -2.067   1.014   1.223  0.00  0.00    -0.005 C 
BRANCH  18  30
ATOM     20  N   UNL     1       1.055   1.949   1.738  0.00  0.00    -0.298 N 
ATOM     21  C   UNL     1       2.358   1.646   1.532  0.00  0.00    +0.262 A 
ATOM     22  O   UNL     1       3.138   2.473   1.095  0.00  0.00    -0.267 OA
ATOM     23  C   UNL     1       2.796   0.280   1.855  0.00  0.00    +0.065 A 
ATOM     24  C   UNL     1       4.115  -0.133   1.680  0.00  0.00    +0.015 A 
ATOM     25  C   UNL     1       4.470  -1.425   2.000  0.00  0.00    +0.001 A 
ATOM     26  C   UNL     1       3.526  -2.315   2.494  0.00  0.00    +0.002 A 
ATOM     27  C   UNL     1       2.217  -1.927   2.675  0.00  0.00    +0.028 A 
ATOM     28  C   UNL     1       1.833  -0.623   2.358  0.00  0.00    +0.078 A 
ATOM     29  N   UNL     1       0.554  -0.198   2.521  0.00  0.00    -0.235 NA
ATOM     30  C   UNL     1       0.199   1.017   2.231  0.00  0.00    +0.099 A 
BRANCH  20  32
ATOM     31  C   UNL     1       0.618   4.156   2.696  0.00  0.00    +0.027 C 
ATOM     32  C   UNL     1       0.566   3.295   1.432  0.00  0.00    +0.123 C 
ENDBRANCH  20  32
ENDBRANCH  18  30
ENDBRANCH   1  18
TORSDOF 4
