REMARK  Name = ZINC39487334
REMARK  11 active torsions:
REMARK  status: ('A' for Active; 'I' for Inactive)
REMARK    1  A    between atoms: C_1  and  C_2
REMARK    2  A    between atoms: C_2  and  C_3
REMARK    3  A    between atoms: C_3  and  C_4
REMARK    4  A    between atoms: C_4  and  C_37
REMARK    5  A    between atoms: N_6  and  C_30
REMARK    6  A    between atoms: N_9  and  C_10
REMARK    7  A    between atoms: C_10  and  C_11
REMARK    8  A    between atoms: C_11  and  C_24
REMARK    9  A    between atoms: N_14  and  C_17
REMARK   10  A    between atoms: C_17  and  C_18
REMARK   11  A    between atoms: C_35  and  O_36
REMARK                            x       y       z     vdW  Elec       q    Type
REMARK                         _______ _______ _______ _____ _____    ______ ____
ROOT
ATOM      1  C   UNL     1       3.551  -2.820  -2.401  0.00  0.00    -0.014 C 
ATOM      2  C   UNL     1       2.914  -4.088  -2.976  0.00  0.00    -0.010 C 
ATOM      3  C   UNL     1       1.444  -4.150  -2.554  0.00  0.00    -0.078 C 
ATOM      4  N   UNL     1       1.353  -4.176  -1.089  0.00  0.00    +0.382 N 
ATOM      5  C   UNL     1       1.897  -2.931  -0.534  0.00  0.00    -0.078 C 
ATOM      6  C   UNL     1       3.384  -2.822  -0.878  0.00  0.00    -0.010 C 
ATOM      7  H   UNL     1       1.880  -4.960  -0.734  0.00  0.00    -0.081 HD
ENDROOT
BRANCH   1   8
ATOM      8  C   UNL     1       5.040  -2.788  -2.752  0.00  0.00    -0.003 C 
ATOM      9  C   UNL     1       5.211  -2.975  -4.261  0.00  0.00    +0.004 C 
ATOM     10  C   UNL     1       6.700  -2.944  -4.612  0.00  0.00    +0.000 C 
ATOM     11  C   UNL     1       7.422  -4.072  -3.873  0.00  0.00    +0.000 C 
ATOM     12  C   UNL     1       7.251  -3.885  -2.365  0.00  0.00    +0.000 C 
ATOM     13  C   UNL     1       5.762  -3.917  -2.013  0.00  0.00    +0.004 C 
ENDBRANCH   1   8
BRANCH   1  14
ATOM     14  C   UNL     1       2.860  -1.587  -2.989  0.00  0.00    +0.117 C 
BRANCH  14  20
ATOM     15  C   UNL     1       4.306   0.584  -3.039  0.00  0.00    +0.052 C 
ATOM     16  C   UNL     1       4.577   1.645  -1.956  0.00  0.00    +0.141 C 
ATOM     17  N   UNL     1       3.808   1.170  -0.796  0.00  0.00    -0.250 N 
ATOM     18  C   UNL     1       3.185   0.028  -1.119  0.00  0.00    +0.310 C 
ATOM     19  O   UNL     1       2.478  -0.584  -0.342  0.00  0.00    -0.252 OA
ATOM     20  N   UNL     1       3.413  -0.378  -2.375  0.00  0.00    -0.278 N 
ATOM     21  C   UNL     1       5.607  -0.098  -3.465  0.00  0.00    +0.033 C 
BRANCH  17  22
ATOM     22  C   UNL     1       3.738   1.809   0.449  0.00  0.00    +0.079 A 
ATOM     23  C   UNL     1       2.689   2.672   0.730  0.00  0.00    +0.027 A 
ATOM     24  C   UNL     1       2.621   3.301   1.958  0.00  0.00    +0.002 A 
ATOM     25  C   UNL     1       3.598   3.073   2.910  0.00  0.00    +0.004 A 
ATOM     26  C   UNL     1       4.646   2.214   2.638  0.00  0.00    +0.047 A 
ATOM     27  C   UNL     1       4.718   1.575   1.411  0.00  0.00    +0.138 A 
BRANCH  27  28
ATOM     28  O   UNL     1       5.745   0.725   1.144  0.00  0.00    -0.505 OA
ATOM     29  H   UNL     1       6.544   1.163   0.819  0.00  0.00    +0.292 HD
ENDBRANCH  27  28
ENDBRANCH  17  22
BRANCH  15  30
ATOM     30  C   UNL     1       3.611   1.214  -4.248  0.00  0.00    +0.027 C 
BRANCH  30  32
ATOM     31  C   UNL     1       3.866   2.840  -6.128  0.00  0.00    +0.004 C 
ATOM     32  C   UNL     1       4.561   2.209  -4.920  0.00  0.00    -0.001 C 
ENDBRANCH  30  32
ENDBRANCH  15  30
ENDBRANCH  14  20
ENDBRANCH   1  14
BRANCH   4  33
ATOM     33  C   UNL     1      -0.054  -4.315  -0.690  0.00  0.00    -0.043 C 
BRANCH  33  34
ATOM     34  C   UNL     1      -0.138  -4.483   0.805  0.00  0.00    -0.064 A 
ATOM     35  C   UNL     1      -0.090  -5.747   1.363  0.00  0.00    +0.002 A 
ATOM     36  C   UNL     1      -0.167  -5.901   2.734  0.00  0.00    +0.000 A 
ATOM     37  C   UNL     1      -0.291  -4.791   3.549  0.00  0.00    +0.000 A 
ATOM     38  C   UNL     1      -0.338  -3.527   2.991  0.00  0.00    +0.000 A 
ATOM     39  C   UNL     1      -0.257  -3.372   1.620  0.00  0.00    +0.002 A 
ENDBRANCH  33  34
ENDBRANCH   4  33
TORSDOF 9
