REMARK  Name = ZINC50136991
REMARK  8 active torsions:
REMARK  status: ('A' for Active; 'I' for Inactive)
REMARK    1  A    between atoms: C_3  and  C_8
REMARK    2  A    between atoms: C_5  and  O_7
REMARK    3  A    between atoms: C_8  and  N_9
REMARK    4  A    between atoms: N_9  and  C_10
REMARK    5  A    between atoms: N_15  and  C_16
REMARK    6  A    between atoms: C_16  and  C_17
REMARK    7  A    between atoms: N_22  and  C_24
REMARK    8  A    between atoms: C_24  and  C_25
REMARK                            x       y       z     vdW  Elec       q    Type
REMARK                         _______ _______ _______ _____ _____    ______ ____
ROOT
ATOM      1  N   UNL     1       4.102   2.429   1.352  0.00  0.00    -0.278 N 
ATOM      2  C   UNL     1       3.680   3.534   2.000  0.00  0.00    +0.303 C 
ATOM      3  O   UNL     1       2.888   4.286   1.467  0.00  0.00    -0.253 OA
ATOM      4  N   UNL     1       4.137   3.804   3.239  0.00  0.00    -0.299 N 
ATOM      5  H   UNL     1       4.823   3.244   3.636  0.00  0.00    +0.150 HD
ENDROOT
BRANCH   1   6
ATOM      6  C   UNL     1       4.971   1.467   2.034  0.00  0.00    +0.078 C 
ATOM      7  C   UNL     1       5.464   0.265   1.226  0.00  0.00    +0.024 C 
ATOM      8  C   UNL     1       4.402   0.074   2.311  0.00  0.00    +0.024 C 
ENDBRANCH   1   6
BRANCH   1   9
ATOM      9  C   UNL     1       3.691   2.192  -0.034  0.00  0.00    +0.144 C 
BRANCH   9  12
ATOM     10  C   UNL     1       0.011   1.343  -0.058  0.00  0.00    +0.004 A 
ATOM     11  C   UNL     1       1.192   2.063  -0.045  0.00  0.00    +0.005 A 
ATOM     12  C   UNL     1       2.406   1.404  -0.049  0.00  0.00    -0.027 A 
ATOM     13  C   UNL     1       2.444   0.023  -0.066  0.00  0.00    +0.050 A 
ATOM     14  C   UNL     1       1.262  -0.702  -0.080  0.00  0.00    +0.117 A 
ATOM     15  C   UNL     1       0.043  -0.038  -0.076  0.00  0.00    +0.045 A 
BRANCH  14  16
ATOM     16  O   UNL     1       1.296  -2.061  -0.098  0.00  0.00    -0.507 OA
ATOM     17  H   UNL     1       1.303  -2.466   0.780  0.00  0.00    +0.292 HD
ENDBRANCH  14  16
ENDBRANCH   9  12
ENDBRANCH   1   9
BRANCH   4  18
ATOM     18  C   UNL     1       3.597   4.942   3.987  0.00  0.00    +0.107 C 
BRANCH  18  19
ATOM     19  C   UNL     1       4.281   5.025   5.353  0.00  0.00    -0.011 C 
ATOM     20  C   UNL     1       5.768   5.337   5.163  0.00  0.00    +0.001 C 
ATOM     21  C   UNL     1       6.426   5.495   6.537  0.00  0.00    -0.018 C 
ATOM     22  C   UNL     1       5.700   6.589   7.321  0.00  0.00    -0.078 C 
ATOM     23  N   UNL     1       4.290   6.220   7.492  0.00  0.00    +0.383 N 
ATOM     24  C   UNL     1       3.633   6.136   6.182  0.00  0.00    -0.073 C 
ATOM     25  H   UNL     1       4.231   5.325   7.954  0.00  0.00    -0.081 HD
BRANCH  23  26
ATOM     26  C   UNL     1       3.615   7.235   8.312  0.00  0.00    -0.036 C 
BRANCH  26  27
ATOM     27  C   UNL     1       4.200   7.230   9.701  0.00  0.00    -0.027 A 
ATOM     28  C   UNL     1       5.242   7.946  10.191  0.00  0.00    +0.009 A 
ATOM     29  C   UNL     1       5.608   7.777  11.513  0.00  0.00    +0.008 A 
ATOM     30  C   UNL     1       4.915   6.902  12.280  0.00  0.00    +0.045 A 
ATOM     31  S   UNL     1       3.697   6.285  11.130  0.00  0.00    -0.103 S 
ENDBRANCH  26  27
ENDBRANCH  23  26
ENDBRANCH  18  19
ENDBRANCH   4  18
TORSDOF 8
