REMARK  Name = ZINC40375058
REMARK  9 active torsions:
REMARK  status: ('A' for Active; 'I' for Inactive)
REMARK    1  A    between atoms: C_1  and  C_2
REMARK    2  A    between atoms: C_2  and  O_3
REMARK    3  A    between atoms: O_3  and  C_4
REMARK    4  A    between atoms: C_4  and  C_6
REMARK    5  A    between atoms: C_13  and  C_15
REMARK    6  A    between atoms: C_15  and  N_16
REMARK    7  A    between atoms: N_23  and  S_26
REMARK    8  A    between atoms: S_26  and  C_29
REMARK    9  A    between atoms: C_34  and  C_35
REMARK                            x       y       z     vdW  Elec       q    Type
REMARK                         _______ _______ _______ _____ _____    ______ ____
ROOT
ATOM      1  N   UNL     1       6.113  -2.115   6.470  0.00  0.00    -0.282 N 
ATOM      2  C   UNL     1       7.491  -1.937   6.572  0.00  0.00    +0.072 A 
ATOM      3  C   UNL     1       8.574  -2.500   5.916  0.00  0.00    +0.028 A 
ATOM      4  C   UNL     1       9.857  -2.109   6.246  0.00  0.00    +0.002 A 
ATOM      5  C   UNL     1      10.066  -1.158   7.230  0.00  0.00    +0.002 A 
ATOM      6  C   UNL     1       8.993  -0.592   7.890  0.00  0.00    +0.030 A 
ATOM      7  C   UNL     1       7.701  -0.977   7.564  0.00  0.00    +0.094 A 
ATOM      8  N   UNL     1       6.445  -0.602   8.034  0.00  0.00    -0.159 N 
ATOM      9  C   UNL     1       5.513  -1.297   7.355  0.00  0.00    +0.351 A 
ATOM     10  O   UNL     1       4.311  -1.203   7.519  0.00  0.00    -0.245 OA
ENDROOT
BRANCH   8  11
ATOM     11  S   UNL     1       6.147   0.514   9.221  0.00  0.00    +0.089 S 
ATOM     12  O   UNL     1       7.188   1.478   9.142  0.00  0.00    -0.147 OA
ATOM     13  O   UNL     1       4.774   0.864   9.115  0.00  0.00    -0.147 OA
BRANCH  11  14
ATOM     14  C   UNL     1       6.339  -0.307  10.768  0.00  0.00    +0.117 A 
ATOM     15  C   UNL     1       7.329   0.094  11.646  0.00  0.00    +0.067 A 
ATOM     16  C   UNL     1       7.479  -0.551  12.861  0.00  0.00    +0.125 A 
ATOM     17  C   UNL     1       6.638  -1.598  13.197  0.00  0.00    +0.039 A 
ATOM     18  C   UNL     1       5.649  -1.998  12.318  0.00  0.00    +0.008 A 
ATOM     19  C   UNL     1       5.497  -1.349  11.107  0.00  0.00    -0.023 A 
ATOM     20  C   UNL     1       4.414  -1.783  10.152  0.00  0.00    +0.046 C 
ATOM     21  F   UNL     1       8.447  -0.159  13.719  0.00  0.00    -0.205 F 
ENDBRANCH  11  14
ENDBRANCH   8  11
BRANCH   1  22
ATOM     22  C   UNL     1       5.433  -3.032   5.552  0.00  0.00    +0.222 C 
BRANCH  22  29
ATOM     23  C   UNL     1       2.741  -2.438   1.673  0.00  0.00    +0.115 C 
ATOM     24  C   UNL     1       2.360  -3.920   1.693  0.00  0.00    +0.018 C 
ATOM     25  C   UNL     1       2.622  -4.497   3.087  0.00  0.00    +0.020 C 
ATOM     26  C   UNL     1       4.114  -4.376   3.412  0.00  0.00    +0.108 C 
ATOM     27  N   UNL     1       4.521  -2.973   3.253  0.00  0.00    -0.299 N 
ATOM     28  C   UNL     1       4.234  -2.293   1.983  0.00  0.00    +0.122 C 
ATOM     29  C   UNL     1       5.146  -2.322   4.254  0.00  0.00    +0.236 C 
ATOM     30  O   UNL     1       5.476  -1.164   4.111  0.00  0.00    -0.274 OA
BRANCH  23  31
ATOM     31  C   UNL     1       2.452  -1.864   0.310  0.00  0.00    +0.312 C 
ATOM     32  O   UNL     1       1.988  -2.567  -0.556  0.00  0.00    -0.250 OA
BRANCH  31  33
ATOM     33  O   UNL     1       2.710  -0.571   0.058  0.00  0.00    -0.465 OA
BRANCH  33  35
ATOM     34  C   UNL     1       2.770   1.391  -1.353  0.00  0.00    +0.048 C 
ATOM     35  C   UNL     1       2.412  -0.094  -1.256  0.00  0.00    +0.229 C 
ENDBRANCH  33  35
ENDBRANCH  31  33
ENDBRANCH  23  31
ENDBRANCH  22  29
ENDBRANCH   1  22
TORSDOF 7
