REMARK  Name = ZINC03421599
REMARK  7 active torsions:
REMARK  status: ('A' for Active; 'I' for Inactive)
REMARK    1  A    between atoms: C_1  and  C_2
REMARK    2  A    between atoms: C_7  and  C_8
REMARK    3  A    between atoms: N_10  and  C_11
REMARK    4  A    between atoms: C_11  and  C_13
REMARK    5  A    between atoms: C_11  and  C_16
REMARK    6  A    between atoms: C_13  and  C_14
REMARK    7  A    between atoms: C_13  and  C_15
REMARK                            x       y       z     vdW  Elec       q    Type
REMARK                         _______ _______ _______ _____ _____    ______ ____
ROOT
ATOM      1  C   UNL     1       0.625   0.202   4.945  0.00  0.00    +0.162 C 
ENDROOT
BRANCH   1   2
ATOM      2  C   UNL     1       1.645  -0.398   5.879  0.00  0.00    +0.239 C 
ATOM      3  O   UNL     1       2.152  -1.468   5.617  0.00  0.00    -0.273 OA
ATOM      4  N   UNL     1       1.992   0.255   7.006  0.00  0.00    -0.263 N 
ATOM      5  C   UNL     1       3.019  -0.235   7.804  0.00  0.00    +0.165 A 
ATOM      6  N   UNL     1       3.759  -1.306   7.618  0.00  0.00    -0.229 NA
ATOM      7  C   UNL     1       4.715  -1.658   8.473  0.00  0.00    +0.054 A 
ATOM      8  C   UNL     1       4.861  -0.829   9.539  0.00  0.00    +0.014 A 
ATOM      9  S   UNL     1       3.623   0.402   9.243  0.00  0.00    -0.057 S 
ATOM     10  C   UNL     1       5.834  -0.952  10.662  0.00  0.00    +0.044 C 
ATOM     11  C   UNL     1       6.423  -2.371  10.634  0.00  0.00    +0.006 C 
ATOM     12  C   UNL     1       6.844  -2.703   9.199  0.00  0.00    +0.006 C 
ATOM     13  C   UNL     1       5.607  -2.881   8.316  0.00  0.00    +0.056 C 
ATOM     14  H   UNL     1       1.526   1.067   7.260  0.00  0.00    +0.157 HD
ENDBRANCH   1   2
BRANCH   1  17
ATOM     15  C   UNL     1       0.350   0.261   2.525  0.00  0.00    +0.245 C 
ATOM     16  O   UNL     1      -0.128   1.373   2.636  0.00  0.00    -0.270 OA
ATOM     17  N   UNL     1       0.758  -0.410   3.620  0.00  0.00    -0.300 N 
ATOM     18  H   UNL     1       1.140  -1.297   3.531  0.00  0.00    +0.150 HD
BRANCH  15  25
ATOM     19  C   UNL     1      -0.792   1.583   0.218  0.00  0.00    +0.044 C 
ATOM     20  C   UNL     1      -0.062   0.273   0.068  0.00  0.00    -0.038 A 
ATOM     21  C   UNL     1       0.071  -0.305  -1.178  0.00  0.00    +0.004 A 
ATOM     22  C   UNL     1       0.740  -1.508  -1.317  0.00  0.00    +0.000 A 
ATOM     23  C   UNL     1       1.279  -2.139  -0.210  0.00  0.00    +0.001 A 
ATOM     24  C   UNL     1       1.153  -1.572   1.041  0.00  0.00    +0.013 A 
ATOM     25  C   UNL     1       0.484  -0.356   1.188  0.00  0.00    +0.040 A 
ENDBRANCH  15  25
ENDBRANCH   1  17
BRANCH   1  26
ATOM     26  C   UNL     1      -0.781  -0.060   5.489  0.00  0.00    +0.012 C 
ATOM     27  C   UNL     1      -1.808   0.660   4.612  0.00  0.00    +0.009 C 
ATOM     28  C   UNL     1      -1.062  -1.563   5.474  0.00  0.00    +0.009 C 
ENDBRANCH   1  26
TORSDOF 4
