REMARK  Name = ZINC31676615
REMARK  8 active torsions:
REMARK  status: ('A' for Active; 'I' for Inactive)
REMARK    1  A    between atoms: C_1  and  C_2
REMARK    2  A    between atoms: C_4  and  C_28
REMARK    3  A    between atoms: C_9  and  N_14
REMARK    4  A    between atoms: C_11  and  C_13
REMARK    5  A    between atoms: C_15  and  C_17
REMARK    6  A    between atoms: C_17  and  O_18
REMARK    7  A    between atoms: O_18  and  C_19
REMARK    8  A    between atoms: C_24  and  C_25
REMARK                            x       y       z     vdW  Elec       q    Type
REMARK                         _______ _______ _______ _____ _____    ______ ____
ROOT
ATOM      1  N   UNL     1       0.019  -0.747   3.874  0.00  0.00    -0.267 N 
ATOM      2  C   UNL     1       0.014  -0.322   5.153  0.00  0.00    +0.256 C 
ATOM      3  O   UNL     1       0.029  -1.126   6.061  0.00  0.00    -0.272 OA
ATOM      4  H   UNL     1       0.007  -0.104   3.149  0.00  0.00    +0.156 HD
ENDROOT
BRANCH   1  13
ATOM      5  C   UNL     1      -0.018   1.503   0.010  0.00  0.00    +0.066 C 
ATOM      6  C   UNL     1       0.002  -0.004   0.002  0.00  0.00    +0.044 A 
ATOM      7  C   UNL     1       0.006  -0.699  -1.197  0.00  0.00    +0.046 A 
ATOM      8  C   UNL     1       0.025  -2.085  -1.159  0.00  0.00    +0.044 A 
ATOM      9  N   UNL     1       0.039  -2.697   0.013  0.00  0.00    -0.216 NA
ATOM     10  C   UNL     1       0.035  -2.003   1.140  0.00  0.00    +0.253 A 
ATOM     11  N   UNL     1       0.022  -0.680   1.139  0.00  0.00    -0.216 NA
ATOM     12  N   UNL     1       0.049  -2.682   2.357  0.00  0.00    -0.183 N 
ATOM     13  C   UNL     1       0.042  -2.113   3.595  0.00  0.00    +0.132 A 
ATOM     14  C   UNL     1       0.061  -3.121   4.508  0.00  0.00    +0.068 A 
ATOM     15  C   UNL     1       0.081  -4.332   3.809  0.00  0.00    +0.062 A 
ATOM     16  N   UNL     1       0.069  -4.073   2.527  0.00  0.00    -0.167 NA
ATOM     17  C   UNL     1       0.107  -5.706   4.428  0.00  0.00    +0.067 C 
ATOM     18  C   UNL     1       0.029  -2.883  -2.437  0.00  0.00    +0.066 C 
ENDBRANCH   1  13
BRANCH   2  19
ATOM     19  C   UNL     1      -0.010   1.155   5.456  0.00  0.00    +0.325 C 
BRANCH  19  20
ATOM     20  O   UNL     1      -0.011   1.351   6.871  0.00  0.00    -0.482 OA
BRANCH  20  21
ATOM     21  C   UNL     1      -0.031   2.632   7.315  0.00  0.00    +0.131 A 
ATOM     22  C   UNL     1      -0.056   3.683   6.410  0.00  0.00    +0.047 A 
ATOM     23  C   UNL     1      -0.077   4.987   6.863  0.00  0.00    +0.019 A 
ATOM     24  C   UNL     1      -0.074   5.259   8.223  0.00  0.00    +0.019 A 
ATOM     25  C   UNL     1      -0.050   4.229   9.138  0.00  0.00    +0.030 A 
ATOM     26  C   UNL     1      -0.034   2.901   8.693  0.00  0.00    +0.057 A 
ATOM     27 BR   UNL     1      -0.103   7.051   8.824  0.00  0.00    -0.050 Br
BRANCH  26  28
ATOM     28  C   UNL     1      -0.013   1.798   9.662  0.00  0.00    +0.262 C 
ATOM     29  O   UNL     1      -0.015   2.035  10.851  0.00  0.00    -0.296 OA
ENDBRANCH  26  28
ENDBRANCH  20  21
ENDBRANCH  19  20
ENDBRANCH   2  19
TORSDOF 5
