REMARK  Name = ZINC15775218
REMARK  9 active torsions:
REMARK  status: ('A' for Active; 'I' for Inactive)
REMARK    1  A    between atoms: C_1  and  C_2
REMARK    2  A    between atoms: C_7  and  C_8
REMARK    3  A    between atoms: C_13  and  C_23
REMARK    4  A    between atoms: N_15  and  C_16
REMARK    5  A    between atoms: C_23  and  C_25
REMARK    6  A    between atoms: C_23  and  O_30
REMARK    7  A    between atoms: C_25  and  C_27
REMARK    8  A    between atoms: C_25  and  O_29
REMARK    9  A    between atoms: C_27  and  O_28
REMARK                            x       y       z     vdW  Elec       q    Type
REMARK                         _______ _______ _______ _____ _____    ______ ____
ROOT
ATOM      1  C   UNL     1       5.645   6.378   7.268  0.00  0.00    +0.044 C 
ATOM      2  C   UNL     1       5.037   5.010   7.103  0.00  0.00    -0.045 A 
ATOM      3  C   UNL     1       4.135   4.801   6.108  0.00  0.00    +0.033 A 
ATOM      4  C   UNL     1       3.561   3.524   5.946  0.00  0.00    +0.090 A 
ATOM      5  C   UNL     1       3.958   2.452   6.861  0.00  0.00    +0.092 A 
ATOM      6  C   UNL     1       4.898   2.736   7.870  0.00  0.00    +0.033 A 
ATOM      7  C   UNL     1       5.414   3.989   7.973  0.00  0.00    -0.045 A 
ATOM      8  C   UNL     1       6.420   4.282   9.057  0.00  0.00    +0.044 C 
ATOM      9  N   UNL     1       3.432   1.232   6.731  0.00  0.00    -0.224 NA
ATOM     10  C   UNL     1       2.554   1.000   5.776  0.00  0.00    +0.183 A 
ATOM     11  C   UNL     1       2.157   2.072   4.860  0.00  0.00    +0.134 A 
ATOM     12  N   UNL     1       2.673   3.284   4.981  0.00  0.00    -0.240 NA
ATOM     13  C   UNL     1       1.187   1.466   3.949  0.00  0.00    +0.122 A 
ATOM     14  N   UNL     1       1.038   0.220   4.291  0.00  0.00    -0.164 NA
ATOM     15  N   UNL     1       1.845  -0.110   5.383  0.00  0.00    -0.212 N 
ENDROOT
BRANCH  15  16
ATOM     16  C   UNL     1       1.915  -1.372   5.986  0.00  0.00    +0.068 A 
ATOM     17  C   UNL     1       3.120  -1.832   6.499  0.00  0.00    +0.029 A 
ATOM     18  C   UNL     1       3.185  -3.075   7.098  0.00  0.00    +0.017 A 
ATOM     19  C   UNL     1       2.053  -3.866   7.177  0.00  0.00    +0.018 A 
ATOM     20  C   UNL     1       0.852  -3.413   6.662  0.00  0.00    +0.017 A 
ATOM     21  C   UNL     1       0.780  -2.169   6.066  0.00  0.00    +0.029 A 
ATOM     22 BR   UNL     1       2.148  -5.570   7.992  0.00  0.00    -0.050 Br
ENDBRANCH  15  16
BRANCH  13  23
ATOM     23  C   UNL     1       0.480   2.164   2.816  0.00  0.00    +0.197 C 
BRANCH  23  24
ATOM     24  O   UNL     1      -0.906   1.818   2.835  0.00  0.00    -0.383 OA
ATOM     25  H   UNL     1      -1.077   0.871   2.737  0.00  0.00    +0.210 HD
ENDBRANCH  23  24
BRANCH  23  26
ATOM     26  C   UNL     1       1.096   1.728   1.485  0.00  0.00    +0.174 C 
BRANCH  26  27
ATOM     27  O   UNL     1       1.060   0.303   1.387  0.00  0.00    -0.387 OA
ATOM     28  H   UNL     1       0.170  -0.071   1.425  0.00  0.00    +0.210 HD
ENDBRANCH  26  27
BRANCH  26  29
ATOM     29  C   UNL     1       0.299   2.339   0.330  0.00  0.00    +0.190 C 
BRANCH  29  30
ATOM     30  O   UNL     1      -1.079   1.986   0.463  0.00  0.00    -0.392 OA
ATOM     31  H   UNL     1      -1.243   1.033   0.451  0.00  0.00    +0.210 HD
ENDBRANCH  29  30
ENDBRANCH  26  29
ENDBRANCH  23  26
ENDBRANCH  13  23
TORSDOF 7
