REMARK  Name = ZINC39695788
REMARK  7 active torsions:
REMARK  status: ('A' for Active; 'I' for Inactive)
REMARK    1  A    between atoms: C_1  and  C_2
REMARK    2  A    between atoms: C_10  and  C_12
REMARK    3  A    between atoms: C_12  and  C_13
REMARK    4  A    between atoms: C_12  and  N_14
REMARK    5  A    between atoms: C_15  and  C_17
REMARK    6  A    between atoms: C_27  and  C_29
REMARK    7  A    between atoms: C_35  and  C_37
REMARK                            x       y       z     vdW  Elec       q    Type
REMARK                         _______ _______ _______ _____ _____    ______ ____
ROOT
ATOM      1  C   UNL     1       1.862  -8.829   1.047  0.00  0.00    +0.100 C 
ATOM      2  C   UNL     1       0.761  -9.572   0.258  0.00  0.00    +0.121 C 
ATOM      3  N   UNL     1       1.247 -10.969   0.164  0.00  0.00    -0.300 N 
ATOM      4  C   UNL     1       1.858 -11.237   1.487  0.00  0.00    +0.115 C 
ATOM      5  C   UNL     1       2.577  -9.926   1.853  0.00  0.00    -0.004 C 
ATOM      6  C   UNL     1       2.446  -9.654   3.349  0.00  0.00    -0.010 C 
ATOM      7  C   UNL     1       3.213 -10.726   4.127  0.00  0.00    -0.082 C 
ATOM      8  N   UNL     1       4.626 -10.706   3.728  0.00  0.00    +0.379 N 
ATOM      9  C   UNL     1       4.750 -11.060   2.309  0.00  0.00    -0.082 C 
ATOM     10  C   UNL     1       4.047 -10.003   1.453  0.00  0.00    -0.010 C 
ATOM     11  C   UNL     1       1.155 -11.806  -0.888  0.00  0.00    +0.219 C 
ATOM     12  O   UNL     1       1.604 -12.930  -0.810  0.00  0.00    -0.275 OA
ATOM     13  H   UNL     1       5.003  -9.782   3.877  0.00  0.00    -0.086 HD
ATOM     14  H   UNL     1       5.141 -11.370   4.286  0.00  0.00    -0.086 HD
ENDROOT
BRANCH  11  15
ATOM     15  C   UNL     1       0.492 -11.347  -2.162  0.00  0.00    +0.078 C 
ATOM     16  C   UNL     1      -0.958 -10.956  -1.869  0.00  0.00    +0.032 C 
ATOM     17  C   UNL     1      -1.618 -10.456  -3.159  0.00  0.00    +0.108 C 
ATOM     18  N   UNL     1      -1.468 -11.486  -4.196  0.00  0.00    -0.302 N 
ATOM     19  C   UNL     1      -0.123 -11.998  -4.493  0.00  0.00    +0.108 C 
ATOM     20  C   UNL     1       0.520 -12.480  -3.189  0.00  0.00    +0.032 C 
ATOM     21  C   UNL     1      -2.542 -11.951  -4.863  0.00  0.00    +0.212 C 
ATOM     22  O   UNL     1      -2.421 -12.872  -5.643  0.00  0.00    -0.276 OA
ATOM     23  C   UNL     1      -3.896 -11.327  -4.639  0.00  0.00    +0.109 C 
ENDBRANCH  11  15
BRANCH   1  25
ATOM     24  N   UNL     1       1.990  -6.787   2.438  0.00  0.00    -0.305 N 
ATOM     25  C   UNL     1       1.248  -7.812   1.974  0.00  0.00    +0.219 C 
ATOM     26  O   UNL     1       0.085  -7.917   2.304  0.00  0.00    -0.275 OA
ATOM     27  H   UNL     1       2.920  -6.703   2.174  0.00  0.00    +0.149 HD
BRANCH  24  28
ATOM     28  C   UNL     1       1.392  -5.799   3.340  0.00  0.00    +0.136 C 
ATOM     29  C   UNL     1       0.683  -4.722   2.517  0.00  0.00    +0.036 C 
BRANCH  28  39
ATOM     30  C   UNL     1       5.749  -2.424   8.341  0.00  0.00    +0.044 C 
ATOM     31  C   UNL     1       5.274  -3.137   7.101  0.00  0.00    -0.048 A 
ATOM     32  C   UNL     1       6.179  -3.451   6.097  0.00  0.00    +0.005 A 
ATOM     33  C   UNL     1       5.768  -4.097   4.965  0.00  0.00    +0.030 A 
ATOM     34  C   UNL     1       4.424  -4.447   4.813  0.00  0.00    +0.089 A 
ATOM     35  C   UNL     1       3.507  -4.130   5.829  0.00  0.00    +0.067 A 
ATOM     36  C   UNL     1       3.944  -3.478   6.974  0.00  0.00    +0.031 A 
ATOM     37  N   UNL     1       2.282  -4.596   5.396  0.00  0.00    -0.340 N 
ATOM     38  H   UNL     1       1.440  -4.530   5.874  0.00  0.00    +0.167 HD
ATOM     39  C   UNL     1       2.473  -5.163   4.175  0.00  0.00    +0.128 A 
ATOM     40  N   UNL     1       3.726  -5.077   3.833  0.00  0.00    -0.231 NA
ENDBRANCH  28  39
ENDBRANCH  24  28
ENDBRANCH   1  25
TORSDOF 4
