REMARK  Name = ZINC65941528
REMARK  7 active torsions:
REMARK  status: ('A' for Active; 'I' for Inactive)
REMARK    1  A    between atoms: C_1  and  C_2
REMARK    2  A    between atoms: C_4  and  C_9
REMARK    3  A    between atoms: N_11  and  C_14
REMARK    4  A    between atoms: C_14  and  N_15
REMARK    5  A    between atoms: N_15  and  C_16
REMARK    6  A    between atoms: N_15  and  C_17
REMARK    7  A    between atoms: C_17  and  C_18
REMARK                            x       y       z     vdW  Elec       q    Type
REMARK                         _______ _______ _______ _____ _____    ______ ____
ROOT
ATOM      1  C   UNL     1       0.028  -2.818  -2.485  0.00  0.00    +0.124 C 
ATOM      2  N   UNL     1       0.040  -4.109  -2.603  0.00  0.00    -0.191 NA
ATOM      3  N   UNL     1       0.039  -4.460  -3.959  0.00  0.00    -0.328 N 
ATOM      4  N   UNL     1       0.025  -3.264  -4.696  0.00  0.00    +0.485 NA
ATOM      5  N   UNL     1       0.013  -2.227  -3.748  0.00  0.00    -0.391 N 
ATOM      6  H   UNL     1      -0.001  -1.276  -3.937  0.00  0.00    +0.122 HD
ENDROOT
BRANCH   1  10
ATOM      7  C   UNL     1      -0.018   1.503   0.010  0.00  0.00    +0.047 C 
ATOM      8  C   UNL     1       0.002  -0.004   0.002  0.00  0.00    -0.015 A 
ATOM      9  C   UNL     1       0.006  -0.686  -1.197  0.00  0.00    +0.017 A 
ATOM     10  C   UNL     1       0.025  -2.082  -1.203  0.00  0.00    +0.015 A 
ATOM     11  C   UNL     1       0.040  -2.780   0.006  0.00  0.00    +0.014 A 
ATOM     12  C   UNL     1       0.036  -2.088   1.198  0.00  0.00    +0.039 A 
ATOM     13  C   UNL     1       0.023  -0.702   1.199  0.00  0.00    +0.126 A 
ATOM     14  F   UNL     1       0.025  -0.029   2.370  0.00  0.00    -0.205 F 
ENDBRANCH   1  10
BRANCH   3  15
ATOM     15  C   UNL     1       0.050  -5.819  -4.506  0.00  0.00    +0.025 C 
BRANCH  15  16
ATOM     16  N   UNL     1      -1.332  -6.286  -4.684  0.00  0.00    +0.391 N 
ATOM     17  C   UNL     1      -1.983  -6.400  -3.372  0.00  0.00    -0.093 C 
ATOM     18  H   UNL     1      -1.839  -5.626  -5.255  0.00  0.00    -0.079 HD
BRANCH  16  19
ATOM     19  C   UNL     1      -1.323  -7.599  -5.343  0.00  0.00    -0.040 C 
BRANCH  19  20
ATOM     20  C   UNL     1      -2.739  -8.023  -5.636  0.00  0.00    -0.049 A 
ATOM     21  C   UNL     1      -3.368  -8.890  -4.830  0.00  0.00    +0.048 A 
ATOM     22  S   UNL     1      -4.975  -9.068  -5.580  0.00  0.00    -0.096 S 
ATOM     23  C   UNL     1      -4.758  -7.971  -6.958  0.00  0.00    +0.020 A 
ATOM     24  C   UNL     1      -3.441  -7.490  -6.795  0.00  0.00    -0.009 A 
ATOM     25  C   UNL     1      -2.977  -6.571  -7.766  0.00  0.00    +0.009 A 
ATOM     26  C   UNL     1      -3.779  -6.180  -8.792  0.00  0.00    +0.001 A 
ATOM     27  C   UNL     1      -5.073  -6.665  -8.927  0.00  0.00    +0.001 A 
ATOM     28  C   UNL     1      -5.560  -7.571  -8.005  0.00  0.00    +0.015 A 
ENDBRANCH  19  20
ENDBRANCH  16  19
ENDBRANCH  15  16
ENDBRANCH   3  15
TORSDOF 5
