REMARK  Name = ZINC21526008
REMARK  12 active torsions:
REMARK  status: ('A' for Active; 'I' for Inactive)
REMARK    1  A    between atoms: C_1  and  C_2
REMARK    2  A    between atoms: C_2  and  C_3
REMARK    3  A    between atoms: C_3  and  C_4
REMARK    4  A    between atoms: C_4  and  N_5
REMARK    5  A    between atoms: N_5  and  C_6
REMARK    6  A    between atoms: N_5  and  C_8
REMARK    7  A    between atoms: C_6  and  C_7
REMARK    8  A    between atoms: C_8  and  C_9
REMARK    9  A    between atoms: C_9  and  N_10
REMARK   10  A    between atoms: C_19  and  C_20
REMARK   11  A    between atoms: C_19  and  C_21
REMARK   12  A    between atoms: N_23  and  C_24
REMARK                            x       y       z     vdW  Elec       q    Type
REMARK                         _______ _______ _______ _____ _____    ______ ____
ROOT
ATOM      1  N   UNL     1      -3.417   2.545  -0.161  0.00  0.00    -0.282 N 
ATOM      2  C   UNL     1      -2.546   1.524   0.017  0.00  0.00    +0.264 C 
ATOM      3  O   UNL     1      -2.923   0.379   0.184  0.00  0.00    -0.268 OA
ATOM      4  C   UNL     1      -1.120   1.875  -0.010  0.00  0.00    +0.106 A 
ATOM      5  C   UNL     1      -0.010   1.084  -0.038  0.00  0.00    +0.048 A 
ATOM      6  C   UNL     1       1.094   1.927  -0.037  0.00  0.00    +0.038 A 
ATOM      7  C   UNL     1       0.665   3.262   0.000  0.00  0.00    +0.057 A 
ATOM      8  N   UNL     1      -0.716   3.205   0.029  0.00  0.00    -0.333 N 
ATOM      9  C   UNL     1      -1.681   4.306   0.093  0.00  0.00    +0.157 C 
ATOM     10  C   UNL     1      -2.980   3.870  -0.586  0.00  0.00    +0.128 C 
ATOM     11  C   UNL     1      -4.077   4.881  -0.250  0.00  0.00    +0.043 C 
ATOM     12  C   UNL     1       1.684   4.226   0.001  0.00  0.00    +0.034 A 
ATOM     13  C   UNL     1       2.978   3.847  -0.029  0.00  0.00    +0.048 A 
ATOM     14  S   UNL     1       2.863   2.066  -0.063  0.00  0.00    -0.095 S 
ENDROOT
BRANCH  10  15
ATOM     15  C   UNL     1      -2.769   3.858  -2.078  0.00  0.00    +0.238 C 
ATOM     16  O   UNL     1      -3.079   4.824  -2.742  0.00  0.00    -0.273 OA
ATOM     17  N   UNL     1      -2.236   2.773  -2.675  0.00  0.00    -0.311 N 
ATOM     18  H   UNL     1      -1.955   1.897  -2.073  0.00  0.00    +0.149 HD
BRANCH  17  19
ATOM     19  C   UNL     1      -2.031   2.762  -4.125  0.00  0.00    +0.073 C 
ATOM     20  C   UNL     1      -3.361   2.393  -4.815  0.00  0.00    +0.022 C 
ATOM     21  C   UNL     1      -3.307   2.866  -6.242  0.00  0.00    +0.002 C 
ATOM     22  C   UNL     1      -2.830   1.766  -7.210  0.00  0.00    +0.000 C 
ATOM     23  C   UNL     1      -1.656   0.942  -6.647  0.00  0.00    +0.000 C 
ATOM     24  C   UNL     1      -0.634   1.799  -5.950  0.00  0.00    +0.002 C 
ATOM     25  C   UNL     1      -0.963   1.826  -4.443  0.00  0.00    +0.022 C 
ENDBRANCH  17  19
ENDBRANCH  10  15
BRANCH   1  26
ATOM     26  C   UNL     1      -4.843   2.311   0.080  0.00  0.00    +0.091 C 
BRANCH  26  27
ATOM     27  C   UNL     1      -5.510   1.844  -1.216  0.00  0.00    -0.060 C 
BRANCH  27  28
ATOM     28  N   UNL     1      -6.910   1.490  -0.946  0.00  0.00    +0.381 N 
ATOM     29  H   UNL     1      -6.941   0.931   0.001  0.00  0.00    -0.082 HD
BRANCH  28  30
ATOM     30  C   UNL     1      -7.445   0.620  -2.002  0.00  0.00    -0.082 C 
ATOM     31  C   UNL     1      -6.894  -0.796  -1.823  0.00  0.00    -0.017 C 
ENDBRANCH  28  30
BRANCH  28  32
ATOM     32  C   UNL     1      -7.736   2.695  -0.787  0.00  0.00    -0.079 C 
BRANCH  32  33
ATOM     33  C   UNL     1      -9.119   2.299  -0.266  0.00  0.00    -0.019 C 
BRANCH  33  35
ATOM     34  C   UNL     1     -11.362   3.159   0.421  0.00  0.00    +0.004 C 
ATOM     35  C   UNL     1      -9.979   3.554  -0.100  0.00  0.00    -0.005 C 
ENDBRANCH  33  35
ENDBRANCH  32  33
ENDBRANCH  28  32
ENDBRANCH  27  28
ENDBRANCH  26  27
ENDBRANCH   1  26
TORSDOF 9
