REMARK  Name = ZINC64810714
REMARK  3 active torsions:
REMARK  status: ('A' for Active; 'I' for Inactive)
REMARK    1  A    between atoms: C_1  and  N_2
REMARK    2  A    between atoms: N_9  and  C_12
REMARK    3  A    between atoms: C_12  and  C_13
REMARK                            x       y       z     vdW  Elec       q    Type
REMARK                         _______ _______ _______ _____ _____    ______ ____
ROOT
ATOM      1  C   UNL     1       1.974  -3.600  -1.448  0.00  0.00    +0.238 C 
ATOM      2  O   UNL     1       1.476  -2.981  -2.364  0.00  0.00    -0.273 OA
ATOM      3  N   UNL     1       2.804  -4.631  -1.703  0.00  0.00    -0.266 N 
ATOM      4  C   UNL     1       3.088  -4.986  -3.018  0.00  0.00    +0.163 A 
ATOM      5  C   UNL     1       3.950  -6.067  -3.279  0.00  0.00    +0.170 A 
ATOM      6  N   UNL     1       4.230  -6.415  -4.513  0.00  0.00    -0.230 NA
ATOM      7  C   UNL     1       3.691  -5.737  -5.535  0.00  0.00    +0.091 A 
ATOM      8  C   UNL     1       3.974  -6.090  -6.865  0.00  0.00    +0.030 A 
ATOM      9  C   UNL     1       3.412  -5.384  -7.885  0.00  0.00    +0.002 A 
ATOM     10  C   UNL     1       2.558  -4.313  -7.630  0.00  0.00    +0.002 A 
ATOM     11  C   UNL     1       2.262  -3.943  -6.354  0.00  0.00    +0.030 A 
ATOM     12  C   UNL     1       2.822  -4.649  -5.275  0.00  0.00    +0.091 A 
ATOM     13  N   UNL     1       2.544  -4.309  -4.010  0.00  0.00    -0.227 NA
ATOM     14 CL   UNL     1       4.651  -6.947  -1.957  0.00  0.00    -0.058 Cl
ATOM     15  H   UNL     1       3.202  -5.127  -0.970  0.00  0.00    +0.156 HD
ENDROOT
BRANCH   1  16
ATOM     16  C   UNL     1       1.666  -3.217  -0.023  0.00  0.00    +0.223 C 
BRANCH  16  25
ATOM     17  C   UNL     1      -0.018   1.461   0.010  0.00  0.00    +0.154 C 
ATOM     18  N   UNL     1       0.002  -0.004   0.002  0.00  0.00    -0.295 N 
ATOM     19  C   UNL     1      -1.116  -0.835   0.003  0.00  0.00    +0.070 A 
ATOM     20  C   UNL     1      -2.481  -0.592   0.010  0.00  0.00    +0.028 A 
ATOM     21  C   UNL     1      -3.368  -1.651   0.009  0.00  0.00    +0.002 A 
ATOM     22  C   UNL     1      -2.899  -2.954  -0.000  0.00  0.00    +0.002 A 
ATOM     23  C   UNL     1      -1.541  -3.205  -0.007  0.00  0.00    +0.028 A 
ATOM     24  C   UNL     1      -0.643  -2.148  -0.007  0.00  0.00    +0.070 A 
ATOM     25  N   UNL     1       0.748  -2.075  -0.013  0.00  0.00    -0.283 N 
ATOM     26  C   UNL     1       1.104  -0.777  -0.013  0.00  0.00    +0.330 A 
ATOM     27  O   UNL     1       2.249  -0.365  -0.022  0.00  0.00    -0.246 OA
ENDBRANCH  16  25
ENDBRANCH   1  16
TORSDOF 2
