REMARK  Name = ZINC14040733
REMARK  16 active torsions:
REMARK  status: ('A' for Active; 'I' for Inactive)
REMARK    1  A    between atoms: C_1  and  C_2
REMARK    2  A    between atoms: C_2  and  C_3
REMARK    3  A    between atoms: C_3  and  C_5
REMARK    4  A    between atoms: C_3  and  C_6
REMARK    5  A    between atoms: C_11  and  O_12
REMARK    6  A    between atoms: O_12  and  C_13
REMARK    7  A    between atoms: C_13  and  C_14
REMARK    8  A    between atoms: N_16  and  N_17
REMARK    9  A    between atoms: N_17  and  C_18
REMARK   10  A    between atoms: C_18  and  N_20
REMARK   11  A    between atoms: C_21  and  C_23
REMARK   12  A    between atoms: C_28  and  O_29
REMARK   13  A    between atoms: O_29  and  C_30
REMARK   14  A    between atoms: C_30  and  C_31
REMARK   15  A    between atoms: C_31  and  O_32
REMARK   16  A    between atoms: O_32  and  C_33
REMARK                            x       y       z     vdW  Elec       q    Type
REMARK                         _______ _______ _______ _____ _____    ______ ____
ROOT
ATOM      1  C   UNL     1      -2.390   4.220   0.036  0.00  0.00    +0.153 C 
ATOM      2  S   UNL     1      -2.413   5.931   0.046  0.00  0.00    -0.017 S 
ENDROOT
BRANCH   1   3
ATOM      3  N   UNL     1      -3.548   3.530   0.038  0.00  0.00    -0.263 N 
ATOM      4  C   UNL     1      -4.724   4.188   0.047  0.00  0.00    +0.253 C 
ATOM      5  O   UNL     1      -4.740   5.403   0.054  0.00  0.00    -0.270 OA
ATOM      6  H   UNL     1      -3.535   2.560   0.033  0.00  0.00    +0.157 HD
BRANCH   4   7
ATOM      7  C   UNL     1      -5.991   3.433   0.049  0.00  0.00    +0.079 A 
ATOM      8  C   UNL     1      -5.977   2.036   0.036  0.00  0.00    +0.017 A 
ATOM      9  C   UNL     1      -7.164   1.337   0.043  0.00  0.00    +0.001 A 
ATOM     10  C   UNL     1      -8.373   2.013   0.052  0.00  0.00    +0.004 A 
ATOM     11  C   UNL     1      -8.402   3.393   0.060  0.00  0.00    +0.046 A 
ATOM     12  C   UNL     1      -7.216   4.113   0.059  0.00  0.00    +0.133 A 
BRANCH  12  13
ATOM     13  O   UNL     1      -7.243   5.470   0.066  0.00  0.00    -0.488 OA
BRANCH  13  14
ATOM     14  C   UNL     1      -8.529   6.093   0.075  0.00  0.00    +0.270 C 
BRANCH  14  15
ATOM     15  C   UNL     1      -8.358   7.614   0.082  0.00  0.00    +0.270 C 
BRANCH  15  16
ATOM     16  O   UNL     1      -7.745   8.030  -1.140  0.00  0.00    -0.489 OA
BRANCH  16  17
ATOM     17  C   UNL     1      -7.521   9.361  -1.296  0.00  0.00    +0.121 A 
ATOM     18  C   UNL     1      -7.889  10.249  -0.295  0.00  0.00    +0.045 A 
ATOM     19  C   UNL     1      -7.654  11.601  -0.454  0.00  0.00    +0.004 A 
ATOM     20  C   UNL     1      -7.065  12.071  -1.613  0.00  0.00    +0.000 A 
ATOM     21  C   UNL     1      -6.702  11.188  -2.614  0.00  0.00    +0.004 A 
ATOM     22  C   UNL     1      -6.929   9.835  -2.458  0.00  0.00    +0.045 A 
ENDBRANCH  16  17
ENDBRANCH  15  16
ENDBRANCH  14  15
ENDBRANCH  13  14
ENDBRANCH  12  13
ENDBRANCH   4   7
ENDBRANCH   1   3
BRANCH   1  23
ATOM     23  N   UNL     1      -1.214   3.562   0.027  0.00  0.00    -0.245 N 
ATOM     24  H   UNL     1      -0.380   4.058   0.026  0.00  0.00    +0.172 HD
BRANCH  23  27
ATOM     25  C   UNL     1      -0.018   1.503   0.010  0.00  0.00    +0.267 C 
ATOM     26  O   UNL     1       1.024   2.123   0.004  0.00  0.00    -0.271 OA
ATOM     27  N   UNL     1      -1.195   2.161   0.019  0.00  0.00    -0.232 N 
ATOM     28  H   UNL     1      -2.028   1.664   0.021  0.00  0.00    +0.173 HD
BRANCH  25  29
ATOM     29  C   UNL     1       0.002  -0.004   0.002  0.00  0.00    +0.326 C 
BRANCH  29  30
ATOM     30  O   UNL     1       1.356  -0.462  -0.013  0.00  0.00    -0.482 OA
BRANCH  30  36
ATOM     31  C   UNL     1       2.840  -2.321  -0.043  0.00  0.00    -0.003 A 
ATOM     32  C   UNL     1       3.037  -3.688  -0.048  0.00  0.00    +0.007 A 
ATOM     33  C   UNL     1       1.952  -4.544  -0.041  0.00  0.00    +0.001 A 
ATOM     34  C   UNL     1       0.666  -4.034  -0.026  0.00  0.00    +0.004 A 
ATOM     35  C   UNL     1       0.464  -2.668  -0.017  0.00  0.00    +0.046 A 
ATOM     36  C   UNL     1       1.552  -1.807  -0.022  0.00  0.00    +0.125 A 
BRANCH  31  37
ATOM     37  C   UNL     1       4.024  -1.388  -0.056  0.00  0.00    +0.019 C 
ATOM     38  C   UNL     1       4.853  -1.633  -1.318  0.00  0.00    +0.012 C 
BRANCH  37  40
ATOM     39  C   UNL     1       6.021  -0.617   1.233  0.00  0.00    +0.004 C 
ATOM     40  C   UNL     1       4.889  -1.645   1.180  0.00  0.00    +0.004 C 
ENDBRANCH  37  40
ENDBRANCH  31  37
ENDBRANCH  30  36
ENDBRANCH  29  30
ENDBRANCH  25  29
ENDBRANCH  23  27
ENDBRANCH   1  23
TORSDOF 14
