REMARK  Name = ZINC59906150
REMARK  9 active torsions:
REMARK  status: ('A' for Active; 'I' for Inactive)
REMARK    1  A    between atoms: C_1  and  C_2
REMARK    2  A    between atoms: N_7  and  S_9
REMARK    3  A    between atoms: S_9  and  C_12
REMARK    4  A    between atoms: C_15  and  N_18
REMARK    5  A    between atoms: C_19  and  C_21
REMARK    6  A    between atoms: C_21  and  S_22
REMARK    7  A    between atoms: S_22  and  C_23
REMARK    8  A    between atoms: C_26  and  C_34
REMARK    9  A    between atoms: N_27  and  C_28
REMARK                            x       y       z     vdW  Elec       q    Type
REMARK                         _______ _______ _______ _____ _____    ______ ____
ROOT
ATOM      1  N   UNL     1       3.843  -4.106  -4.087  0.00  0.00    -0.285 N 
ATOM      2  C   UNL     1       4.638  -3.231  -4.735  0.00  0.00    +0.227 C 
ATOM      3  O   UNL     1       5.050  -2.245  -4.162  0.00  0.00    -0.275 OA
ATOM      4  H   UNL     1       3.576  -4.932  -4.520  0.00  0.00    +0.155 HD
ENDROOT
BRANCH   1   8
ATOM      5  C   UNL     1       2.531  -3.260  -0.225  0.00  0.00    +0.106 A 
ATOM      6  C   UNL     1       2.718  -2.232  -1.130  0.00  0.00    +0.030 A 
ATOM      7  C   UNL     1       3.153  -2.509  -2.412  0.00  0.00    +0.025 A 
ATOM      8  C   UNL     1       3.403  -3.821  -2.790  0.00  0.00    +0.034 A 
ATOM      9  C   UNL     1       3.214  -4.851  -1.877  0.00  0.00    +0.025 A 
ATOM     10  C   UNL     1       2.784  -4.567  -0.596  0.00  0.00    +0.030 A 
BRANCH   5  11
ATOM     11  S   UNL     1       1.975  -2.902   1.409  0.00  0.00    +0.061 S 
ATOM     12  O   UNL     1       1.362  -4.086   1.898  0.00  0.00    -0.153 OA
ATOM     13  O   UNL     1       1.288  -1.660   1.341  0.00  0.00    -0.153 OA
BRANCH  11  19
ATOM     14  C   UNL     1       6.169  -4.861   3.491  0.00  0.00    +0.009 C 
ATOM     15  C   UNL     1       5.453  -3.791   2.666  0.00  0.00    +0.002 C 
ATOM     16  C   UNL     1       6.073  -2.422   2.957  0.00  0.00    +0.006 C 
ATOM     17  C   UNL     1       5.379  -1.355   2.107  0.00  0.00    +0.017 C 
ATOM     18  C   UNL     1       3.893  -1.301   2.477  0.00  0.00    +0.109 C 
ATOM     19  N   UNL     1       3.322  -2.647   2.339  0.00  0.00    -0.176 NA
ATOM     20  C   UNL     1       3.968  -3.764   3.042  0.00  0.00    +0.112 C 
ENDBRANCH  11  19
ENDBRANCH   5  11
ENDBRANCH   1   8
BRANCH   2  21
ATOM     21  C   UNL     1       5.016  -3.479  -6.173  0.00  0.00    +0.173 C 
BRANCH  21  22
ATOM     22  S   UNL     1       6.084  -2.136  -6.758  0.00  0.00    -0.076 S 
BRANCH  22  23
ATOM     23  C   UNL     1       6.434  -2.566  -8.431  0.00  0.00    +0.197 A 
ATOM     24  N   UNL     1       5.995  -3.624  -9.073  0.00  0.00    -0.122 NA
ATOM     25  N   UNL     1       6.445  -3.623 -10.277  0.00  0.00    -0.133 NA
ATOM     26  C   UNL     1       7.192  -2.575 -10.476  0.00  0.00    +0.142 A 
ATOM     27  N   UNL     1       7.208  -1.858  -9.308  0.00  0.00    -0.274 N 
BRANCH  27  28
ATOM     28  C   UNL     1       7.881  -0.652  -9.063  0.00  0.00    +0.050 A 
ATOM     29  C   UNL     1       7.509   0.502  -9.740  0.00  0.00    +0.026 A 
ATOM     30  C   UNL     1       8.173   1.688  -9.496  0.00  0.00    +0.002 A 
ATOM     31  C   UNL     1       9.207   1.727  -8.579  0.00  0.00    +0.000 A 
ATOM     32  C   UNL     1       9.580   0.580  -7.904  0.00  0.00    +0.002 A 
ATOM     33  C   UNL     1       8.916  -0.609  -8.139  0.00  0.00    +0.026 A 
ENDBRANCH  27  28
BRANCH  26  34
ATOM     34  C   UNL     1       7.903  -2.214 -11.755  0.00  0.00    +0.057 C 
ATOM     35  C   UNL     1       7.582  -3.044 -13.000  0.00  0.00    +0.012 C 
ATOM     36  C   UNL     1       8.931  -3.209 -12.297  0.00  0.00    +0.012 C 
ENDBRANCH  26  34
ENDBRANCH  22  23
ENDBRANCH  21  22
ENDBRANCH   2  21
TORSDOF 8
