REMARK  Name = ZINC10109390
REMARK  9 active torsions:
REMARK  status: ('A' for Active; 'I' for Inactive)
REMARK    1  A    between atoms: C_1  and  C_2
REMARK    2  A    between atoms: C_2  and  C_3
REMARK    3  A    between atoms: C_3  and  C_34
REMARK    4  A    between atoms: N_6  and  C_10
REMARK    5  A    between atoms: C_10  and  C_11
REMARK    6  A    between atoms: N_13  and  C_14
REMARK    7  A    between atoms: C_14  and  C_15
REMARK    8  A    between atoms: C_15  and  C_17
REMARK    9  A    between atoms: C_15  and  C_24
REMARK                            x       y       z     vdW  Elec       q    Type
REMARK                         _______ _______ _______ _____ _____    ______ ____
ROOT
ATOM      1  C   UNL     1       2.452   3.936   0.000  0.00  0.00    +0.069 C 
ENDROOT
BRANCH   1   2
ATOM      2  C   UNL     1       3.258   3.576   1.222  0.00  0.00    -0.013 A 
ATOM      3  C   UNL     1       3.700   2.353   1.554  0.00  0.00    +0.088 A 
ATOM      4  N   UNL     1       4.400   2.413   2.729  0.00  0.00    -0.360 N 
ATOM      5  H   UNL     1       4.818   1.656   3.168  0.00  0.00    +0.165 HD
ATOM      6  C   UNL     1       4.417   3.708   3.197  0.00  0.00    +0.047 A 
ATOM      7  C   UNL     1       3.703   4.493   2.274  0.00  0.00    +0.003 A 
ATOM      8  C   UNL     1       3.554   5.863   2.493  0.00  0.00    +0.010 A 
ATOM      9  C   UNL     1       4.104   6.436   3.605  0.00  0.00    +0.001 A 
ATOM     10  C   UNL     1       4.809   5.666   4.519  0.00  0.00    +0.002 A 
ATOM     11  C   UNL     1       4.968   4.311   4.323  0.00  0.00    +0.026 A 
ENDBRANCH   1   2
BRANCH   1  12
ATOM     12  C   UNL     1       1.157   3.165   0.008  0.00  0.00    -0.020 A 
ATOM     13  C   UNL     1       1.175   1.783   0.000  0.00  0.00    +0.006 A 
ATOM     14  C   UNL     1      -0.013   1.076   0.008  0.00  0.00    +0.000 A 
ATOM     15  C   UNL     1      -1.219   1.750   0.017  0.00  0.00    +0.001 A 
ATOM     16  C   UNL     1      -1.239   3.132   0.031  0.00  0.00    +0.020 A 
ATOM     17  C   UNL     1      -0.050   3.841   0.023  0.00  0.00    +0.045 A 
ATOM     18 CL   UNL     1      -0.074   5.576   0.033  0.00  0.00    -0.083 Cl
ENDBRANCH   1  12
BRANCH   1  19
ATOM     19  C   UNL     1       3.248   3.584  -1.258  0.00  0.00    +0.117 C 
BRANCH  19  22
ATOM     20  C   UNL     1       3.030   3.839  -3.672  0.00  0.00    +0.231 C 
ATOM     21  O   UNL     1       4.097   3.276  -3.798  0.00  0.00    -0.274 OA
ATOM     22  N   UNL     1       2.517   4.042  -2.442  0.00  0.00    -0.313 N 
ATOM     23  H   UNL     1       1.663   4.492  -2.341  0.00  0.00    +0.149 HD
BRANCH  20  24
ATOM     24  C   UNL     1       2.278   4.310  -4.890  0.00  0.00    +0.213 C 
BRANCH  24  28
ATOM     25  C   UNL     1       4.479   4.027  -7.868  0.00  0.00    +0.110 C 
ATOM     26  C   UNL     1       3.954   4.783  -6.664  0.00  0.00    +0.247 C 
ATOM     27  O   UNL     1       4.289   5.887  -6.290  0.00  0.00    -0.273 OA
ATOM     28  N   UNL     1       3.040   3.973  -6.095  0.00  0.00    -0.215 N 
ATOM     29  C   UNL     1       2.910   2.825  -6.769  0.00  0.00    +0.310 C 
ATOM     30  O   UNL     1       2.143   1.937  -6.451  0.00  0.00    -0.252 OA
ATOM     31  N   UNL     1       3.723   2.763  -7.839  0.00  0.00    -0.285 N 
ATOM     32  C   UNL     1       5.979   3.760  -7.731  0.00  0.00    +0.041 C 
ATOM     33  H   UNL     1       3.797   2.029  -8.469  0.00  0.00    +0.151 HD
BRANCH  25  35
ATOM     34  C   UNL     1       4.511   3.917 -10.364  0.00  0.00    +0.006 C 
ATOM     35  C   UNL     1       4.187   4.799  -9.157  0.00  0.00    +0.031 C 
ENDBRANCH  25  35
ENDBRANCH  24  28
ENDBRANCH  20  24
ENDBRANCH  19  22
ENDBRANCH   1  19
TORSDOF 7
