REMARK  Name = ZINC10087058
REMARK  8 active torsions:
REMARK  status: ('A' for Active; 'I' for Inactive)
REMARK    1  A    between atoms: C_1  and  C_2
REMARK    2  A    between atoms: C_5  and  N_11
REMARK    3  A    between atoms: C_6  and  N_8
REMARK    4  A    between atoms: C_12  and  C_14
REMARK    5  A    between atoms: N_16  and  C_17
REMARK    6  A    between atoms: C_17  and  C_18
REMARK    7  A    between atoms: C_18  and  C_20
REMARK    8  A    between atoms: C_18  and  N_59
REMARK                            x       y       z     vdW  Elec       q    Type
REMARK                         _______ _______ _______ _____ _____    ______ ____
ROOT
ATOM      1  C   UNL     1      -3.589   7.643  -2.465  0.00  0.00    +0.299 C 
ATOM      2  O   UNL     1      -3.235   7.206  -3.540  0.00  0.00    -0.265 OA
ATOM      3  N   UNL     1      -2.950   7.266  -1.340  0.00  0.00    -0.309 N 
ATOM      4  H   UNL     1      -3.234   7.615  -0.481  0.00  0.00    +0.149 HD
ENDROOT
BRANCH   1   6
ATOM      5  N   UNL     1      -5.372   8.979  -3.514  0.00  0.00    -0.276 N 
ATOM      6  C   UNL     1      -4.733   8.601  -2.389  0.00  0.00    +0.303 C 
ATOM      7  O   UNL     1      -5.088   9.038  -1.314  0.00  0.00    -0.265 OA
ATOM      8  H   UNL     1      -5.140   8.572  -4.363  0.00  0.00    +0.155 HD
BRANCH   5  13
ATOM      9  C   UNL     1      -9.413  12.951  -3.281  0.00  0.00    +0.044 C 
ATOM     10  C   UNL     1      -8.339  11.895  -3.343  0.00  0.00    -0.048 A 
ATOM     11  C   UNL     1      -8.119  11.071  -2.255  0.00  0.00    +0.005 A 
ATOM     12  C   UNL     1      -7.136  10.103  -2.308  0.00  0.00    +0.026 A 
ATOM     13  C   UNL     1      -6.368   9.957  -3.457  0.00  0.00    +0.064 A 
ATOM     14  C   UNL     1      -6.589  10.790  -4.546  0.00  0.00    +0.148 A 
ATOM     15  C   UNL     1      -7.577  11.753  -4.488  0.00  0.00    +0.038 A 
BRANCH  14  16
ATOM     16  N   UNL     1      -5.769  10.642  -5.770  0.00  0.00    +0.058 N 
ATOM     17  O   UNL     1      -5.907  11.424  -6.694  0.00  0.00    -0.126 OA
ATOM     18  O   UNL     1      -4.957   9.738  -5.854  0.00  0.00    -0.126 OA
ENDBRANCH  14  16
ENDBRANCH   5  13
ENDBRANCH   1   6
BRANCH   3  19
ATOM     19  C   UNL     1      -1.828   6.327  -1.415  0.00  0.00    +0.094 C 
BRANCH  19  20
ATOM     20  C   UNL     1      -1.207   6.163  -0.027  0.00  0.00    -0.020 C 
BRANCH  20  21
ATOM     21  C   UNL     1      -0.002   5.263  -0.119  0.00  0.00    -0.052 A 
ATOM     22  C   UNL     1       1.238   5.795  -0.296  0.00  0.00    +0.003 A 
ATOM     23  C   UNL     1       2.364   4.979  -0.384  0.00  0.00    +0.001 A 
ATOM     24  C   UNL     1       2.256   3.625  -0.295  0.00  0.00    +0.008 A 
ATOM     25  C   UNL     1       0.993   3.038  -0.112  0.00  0.00    -0.018 A 
ATOM     26  C   UNL     1      -0.152   3.869  -0.022  0.00  0.00    -0.016 A 
ATOM     27  C   UNL     1      -1.416   3.282   0.161  0.00  0.00    +0.009 A 
ATOM     28  C   UNL     1      -1.525   1.928   0.243  0.00  0.00    +0.001 A 
ATOM     29  C   UNL     1      -0.398   1.112   0.161  0.00  0.00    +0.001 A 
ATOM     30  C   UNL     1       0.842   1.644  -0.016  0.00  0.00    +0.008 A 
ENDBRANCH  20  21
BRANCH  20  35
ATOM     31  C   UNL     1       0.156   7.336   1.615  0.00  0.00    -0.078 C 
ATOM     32  C   UNL     1       0.857   8.717   1.662  0.00  0.00    -0.020 C 
ATOM     33  C   UNL     1       0.991   9.088   0.168  0.00  0.00    -0.020 C 
ATOM     34  C   UNL     1      -0.082   8.251  -0.553  0.00  0.00    -0.078 C 
ATOM     35  N   UNL     1      -0.779   7.497   0.490  0.00  0.00    +0.385 N 
ATOM     36  H   UNL     1      -1.607   8.019   0.800  0.00  0.00    -0.081 HD
ENDBRANCH  20  35
ENDBRANCH  19  20
ENDBRANCH   3  19
TORSDOF 7
