REMARK  Name = ZINC19724129
REMARK  4 active torsions:
REMARK  status: ('A' for Active; 'I' for Inactive)
REMARK    1  A    between atoms: C_3  and  N_12
REMARK    2  A    between atoms: C_6  and  N_7
REMARK    3  A    between atoms: C_14  and  C_20
REMARK    4  A    between atoms: C_20  and  N_21
REMARK                            x       y       z     vdW  Elec       q    Type
REMARK                         _______ _______ _______ _____ _____    ______ ____
ROOT
ATOM      1  N   UNL     1       3.584   2.130  -0.021  0.00  0.00    -0.192 N 
ATOM      2  C   UNL     1       4.889   1.682  -0.535  0.00  0.00    +0.151 C 
ATOM      3  C   UNL     1       5.767   2.905  -0.821  0.00  0.00    +0.079 C 
ATOM      4  N   UNL     1       5.461   3.936   0.192  0.00  0.00    -0.174 NA
ATOM      5  S   UNL     1       3.847   3.680   0.544  0.00  0.00    +0.112 S 
ATOM      6  O   UNL     1       3.090   4.561  -0.274  0.00  0.00    -0.138 OA
ATOM      7  O   UNL     1       3.729   3.638   1.960  0.00  0.00    -0.138 OA
ATOM      8  H   UNL     1       6.057   4.606   0.562  0.00  0.00    +0.150 HD
ENDROOT
BRANCH   1  11
ATOM      9  C   UNL     1      -0.017   1.384   0.010  0.00  0.00    +0.025 A 
ATOM     10  C   UNL     1       1.170   2.091   0.002  0.00  0.00    +0.026 A 
ATOM     11  C   UNL     1       2.381   1.413  -0.013  0.00  0.00    +0.052 A 
ATOM     12  C   UNL     1       2.400   0.025  -0.021  0.00  0.00    +0.026 A 
ATOM     13  C   UNL     1       1.214  -0.682  -0.013  0.00  0.00    +0.025 A 
ATOM     14  C   UNL     1       0.002  -0.004   0.002  0.00  0.00    +0.030 A 
BRANCH  14  15
ATOM     15  N   UNL     1      -1.201  -0.721   0.010  0.00  0.00    -0.330 N 
ATOM     16  C   UNL     1      -2.548  -0.133   0.020  0.00  0.00    +0.105 C 
ATOM     17  C   UNL     1      -3.557  -1.300   0.053  0.00  0.00    +0.020 C 
ATOM     18  C   UNL     1      -2.717  -2.469   0.630  0.00  0.00    +0.020 C 
ATOM     19  C   UNL     1      -1.326  -2.189   0.003  0.00  0.00    +0.105 C 
ENDBRANCH  14  15
ENDBRANCH   1  11
BRANCH   3  20
ATOM     20  C   UNL     1       7.243   2.515  -0.730  0.00  0.00    -0.064 C 
BRANCH  20  21
ATOM     21  N   UNL     1       8.077   3.714  -0.886  0.00  0.00    +0.379 N 
ATOM     22  H   UNL     1       7.896   4.136  -1.784  0.00  0.00    -0.090 HD
ATOM     23  H   UNL     1       7.859   4.373  -0.154  0.00  0.00    -0.090 HD
ATOM     24  H   UNL     1       9.051   3.456  -0.826  0.00  0.00    -0.090 HD
ENDBRANCH  20  21
ENDBRANCH   3  20
TORSDOF 4
