REMARK  Name = ZINC40922607
REMARK  9 active torsions:
REMARK  status: ('A' for Active; 'I' for Inactive)
REMARK    1  A    between atoms: C_1  and  C_2
REMARK    2  A    between atoms: C_3  and  C_26
REMARK    3  A    between atoms: C_4  and  C_12
REMARK    4  A    between atoms: C_16  and  O_18
REMARK    5  A    between atoms: O_18  and  C_19
REMARK    6  A    between atoms: C_19  and  C_20
REMARK    7  A    between atoms: C_26  and  O_28
REMARK    8  A    between atoms: O_28  and  C_29
REMARK    9  A    between atoms: C_29  and  C_30
REMARK                            x       y       z     vdW  Elec       q    Type
REMARK                         _______ _______ _______ _____ _____    ______ ____
ROOT
ATOM      1  C   UNL     1      -0.018   1.503   0.010  0.00  0.00    +0.061 C 
ATOM      2  C   UNL     1       0.002  -0.004   0.002  0.00  0.00    +0.020 C 
ATOM      3  C   UNL     1      -1.165  -0.668   0.004  0.00  0.00    +0.082 C 
ATOM      4  C   UNL     1      -1.255  -2.171   0.008  0.00  0.00    +0.181 C 
ATOM      5  N   UNL     1       0.058  -2.736  -0.277  0.00  0.00    -0.201 N 
ATOM      6  C   UNL     1       1.208  -2.011  -0.275  0.00  0.00    +0.240 A 
ATOM      7  N   UNL     1       2.180  -2.829  -0.561  0.00  0.00    -0.092 NA
ATOM      8  N   UNL     1       1.723  -4.020  -0.747  0.00  0.00    -0.021 NA
ATOM      9  N   UNL     1       0.438  -4.039  -0.592  0.00  0.00    -0.042 NA
ATOM     10  N   UNL     1       1.213  -0.650  -0.013  0.00  0.00    -0.286 N 
ATOM     11  H   UNL     1       2.041  -0.174   0.157  0.00  0.00    +0.155 HD
ENDROOT
BRANCH   4  12
ATOM     12  C   UNL     1      -1.723  -2.643   1.360  0.00  0.00    -0.015 A 
ATOM     13  C   UNL     1      -0.983  -2.345   2.490  0.00  0.00    +0.006 A 
ATOM     14  C   UNL     1      -1.410  -2.777   3.732  0.00  0.00    +0.004 A 
ATOM     15  C   UNL     1      -2.577  -3.507   3.848  0.00  0.00    +0.045 A 
ATOM     16  C   UNL     1      -3.321  -3.807   2.716  0.00  0.00    +0.121 A 
ATOM     17  C   UNL     1      -2.894  -3.368   1.471  0.00  0.00    +0.051 A 
BRANCH  16  18
ATOM     18  O   UNL     1      -4.470  -4.525   2.827  0.00  0.00    -0.487 OA
BRANCH  18  19
ATOM     19  C   UNL     1      -4.851  -4.939   4.140  0.00  0.00    +0.264 C 
BRANCH  19  20
ATOM     20  C   UNL     1      -6.140  -5.718   4.067  0.00  0.00    -0.010 A 
ATOM     21  C   UNL     1      -7.351  -5.060   4.167  0.00  0.00    +0.007 A 
ATOM     22  C   UNL     1      -8.533  -5.774   4.100  0.00  0.00    +0.000 A 
ATOM     23  C   UNL     1      -8.503  -7.146   3.932  0.00  0.00    +0.000 A 
ATOM     24  C   UNL     1      -7.292  -7.804   3.831  0.00  0.00    +0.000 A 
ATOM     25  C   UNL     1      -6.110  -7.089   3.894  0.00  0.00    +0.007 A 
ENDBRANCH  19  20
ENDBRANCH  18  19
ENDBRANCH  16  18
ENDBRANCH   4  12
BRANCH   3  26
ATOM     26  C   UNL     1      -2.364   0.079   0.003  0.00  0.00    +0.339 C 
ATOM     27  O   UNL     1      -2.323   1.295   0.001  0.00  0.00    -0.245 OA
BRANCH  26  28
ATOM     28  O   UNL     1      -3.554  -0.556   0.005  0.00  0.00    -0.457 OA
BRANCH  28  29
ATOM     29  C   UNL     1      -4.726   0.262   0.004  0.00  0.00    +0.268 C 
BRANCH  29  30
ATOM     30  C   UNL     1      -5.951  -0.616   0.007  0.00  0.00    -0.010 A 
ATOM     31  C   UNL     1      -6.511  -1.026  -1.189  0.00  0.00    +0.007 A 
ATOM     32  C   UNL     1      -7.634  -1.831  -1.187  0.00  0.00    +0.000 A 
ATOM     33  C   UNL     1      -8.198  -2.227   0.011  0.00  0.00    +0.000 A 
ATOM     34  C   UNL     1      -7.639  -1.818   1.207  0.00  0.00    +0.000 A 
ATOM     35  C   UNL     1      -6.513  -1.016   1.205  0.00  0.00    +0.007 A 
ENDBRANCH  29  30
ENDBRANCH  28  29
ENDBRANCH  26  28
ENDBRANCH   3  26
TORSDOF 8
