REMARK  Name = ZINC25693476
REMARK  4 active torsions:
REMARK  status: ('A' for Active; 'I' for Inactive)
REMARK    1  A    between atoms: C_4  and  C_7
REMARK    2  A    between atoms: C_7  and  N_8
REMARK    3  A    between atoms: N_15  and  C_18
REMARK    4  A    between atoms: C_18  and  C_19
REMARK                            x       y       z     vdW  Elec       q    Type
REMARK                         _______ _______ _______ _____ _____    ______ ____
ROOT
ATOM      1  N   UNL     1       3.842   1.116  -3.370  0.00  0.00    -0.286 N 
ATOM      2  C   UNL     1       3.175  -0.108  -3.418  0.00  0.00    +0.090 A 
ATOM      3  C   UNL     1       3.019  -1.074  -4.403  0.00  0.00    +0.048 A 
ATOM      4  C   UNL     1       2.285  -2.209  -4.100  0.00  0.00    +0.059 A 
ATOM      5  C   UNL     1       1.721  -2.336  -2.834  0.00  0.00    +0.133 A 
ATOM      6  N   UNL     1       1.884  -1.394  -1.918  0.00  0.00    -0.212 NA
ATOM      7  C   UNL     1       2.586  -0.299  -2.167  0.00  0.00    +0.164 A 
ATOM      8  N   UNL     1       2.903   0.816  -1.402  0.00  0.00    -0.272 N 
ATOM      9  C   UNL     1       3.659   1.646  -2.145  0.00  0.00    +0.332 A 
ATOM     10  O   UNL     1       4.109   2.712  -1.768  0.00  0.00    -0.246 OA
ATOM     11  N   UNL     1       0.974  -3.470  -2.527  0.00  0.00    -0.342 N 
ATOM     12 BR   UNL     1       2.042  -3.564  -5.396  0.00  0.00    -0.047 Br
ATOM     13  H   UNL     1       0.524  -3.578  -1.529  0.00  0.00    +0.144 HD
ATOM     14  H   UNL     1       0.833  -4.257  -3.282  0.00  0.00    +0.144 HD
ENDROOT
BRANCH   1  15
ATOM     15  C   UNL     1       4.608   1.721  -4.462  0.00  0.00    +0.162 C 
BRANCH  15  19
ATOM     16  C   UNL     1       8.679   0.449  -4.222  0.00  0.00    +0.000 A 
ATOM     17  C   UNL     1       7.768  -0.285  -4.958  0.00  0.00    +0.000 A 
ATOM     18  C   UNL     1       6.450   0.126  -5.036  0.00  0.00    +0.005 A 
ATOM     19  C   UNL     1       6.044   1.272  -4.377  0.00  0.00    -0.028 A 
ATOM     20  C   UNL     1       6.957   2.009  -3.645  0.00  0.00    +0.005 A 
ATOM     21  C   UNL     1       8.273   1.594  -3.563  0.00  0.00    +0.000 A 
ENDBRANCH  15  19
ENDBRANCH   1  15
BRANCH   8  22
ATOM     22  C   UNL     1       2.490   1.048  -0.016  0.00  0.00    +0.163 C 
BRANCH  22  23
ATOM     23  C   UNL     1       1.175   1.783   0.000  0.00  0.00    -0.028 A 
ATOM     24  C   UNL     1      -0.013   1.076   0.008  0.00  0.00    +0.005 A 
ATOM     25  C   UNL     1      -1.219   1.751   0.017  0.00  0.00    +0.000 A 
ATOM     26  C   UNL     1      -1.238   3.133   0.029  0.00  0.00    +0.000 A 
ATOM     27  C   UNL     1      -0.050   3.840   0.022  0.00  0.00    +0.000 A 
ATOM     28  C   UNL     1       1.156   3.165   0.008  0.00  0.00    +0.005 A 
ENDBRANCH  22  23
ENDBRANCH   8  22
TORSDOF 4
