REMARK  Name = ZINC40390633
REMARK  4 active torsions:
REMARK  status: ('A' for Active; 'I' for Inactive)
REMARK    1  A    between atoms: C_1  and  C_2
REMARK    2  A    between atoms: C_2  and  C_3
REMARK    3  A    between atoms: C_22  and  C_24
REMARK    4  A    between atoms: N_26  and  C_27
REMARK                            x       y       z     vdW  Elec       q    Type
REMARK                         _______ _______ _______ _____ _____    ______ ____
ROOT
ATOM      1  C   UNL     1       1.149   0.234  -1.709  0.00  0.00    +0.076 C 
ATOM      2  C   UNL     1       1.494  -1.080  -1.001  0.00  0.00    +0.022 C 
ATOM      3  C   UNL     1       1.628  -2.194  -2.041  0.00  0.00    +0.003 C 
ATOM      4  C   UNL     1       0.296  -2.375  -2.772  0.00  0.00    +0.019 C 
ATOM      5  C   UNL     1      -0.063  -1.076  -3.500  0.00  0.00    +0.108 C 
ATOM      6  N   UNL     1      -0.051   0.030  -2.532  0.00  0.00    -0.298 N 
ATOM      7  C   UNL     1      -1.137   0.853  -2.398  0.00  0.00    +0.200 A 
ATOM      8  N   UNL     1      -1.846   1.204  -3.505  0.00  0.00    -0.295 N 
ATOM      9  H   UNL     1      -1.587   0.862  -4.375  0.00  0.00    +0.172 HD
ATOM     10  C   UNL     1      -2.910   2.028  -3.394  0.00  0.00    +0.258 A 
ATOM     11  O   UNL     1      -3.545   2.363  -4.381  0.00  0.00    -0.267 OA
ATOM     12  C   UNL     1      -3.270   2.489  -2.123  0.00  0.00    +0.069 A 
ATOM     13  C   UNL     1      -2.530   2.087  -1.026  0.00  0.00    +0.138 A 
ATOM     14  N   UNL     1      -1.475   1.282  -1.200  0.00  0.00    -0.200 NA
ATOM     15  N   UNL     1      -2.891   2.494   0.246  0.00  0.00    -0.270 N 
ATOM     16  C   UNL     1      -4.089   3.058   0.477  0.00  0.00    +0.219 C 
ATOM     17  O   UNL     1      -4.340   3.503   1.577  0.00  0.00    -0.275 OA
ATOM     18  C   UNL     1      -5.125   3.143  -0.613  0.00  0.00    +0.114 C 
ATOM     19  C   UNL     1      -4.441   3.420  -1.954  0.00  0.00    +0.122 C 
ATOM     20  H   UNL     1      -2.271   2.371   0.982  0.00  0.00    +0.156 HD
ENDROOT
BRANCH  19  21
ATOM     21  C   UNL     1      -5.424   3.199  -3.074  0.00  0.00    +0.225 C 
ATOM     22  O   UNL     1      -5.878   2.092  -3.273  0.00  0.00    -0.275 OA
ATOM     23  N   UNL     1      -5.800   4.232  -3.854  0.00  0.00    -0.284 N 
ATOM     24  H   UNL     1      -5.386   5.102  -3.740  0.00  0.00    +0.155 HD
BRANCH  23  25
ATOM     25  C   UNL     1      -6.787   4.050  -4.829  0.00  0.00    +0.053 A 
ATOM     26  C   UNL     1      -7.830   3.159  -4.606  0.00  0.00    +0.025 A 
ATOM     27  C   UNL     1      -8.803   2.982  -5.569  0.00  0.00    +0.003 A 
ATOM     28  C   UNL     1      -8.742   3.688  -6.756  0.00  0.00    +0.021 A 
ATOM     29  C   UNL     1      -7.705   4.576  -6.983  0.00  0.00    +0.061 A 
ATOM     30  C   UNL     1      -6.730   4.763  -6.020  0.00  0.00    +0.080 A 
ATOM     31 CL   UNL     1      -5.433   5.883  -6.301  0.00  0.00    -0.080 Cl
ATOM     32 CL   UNL     1      -7.632   5.461  -8.475  0.00  0.00    -0.082 Cl
ENDBRANCH  23  25
ENDBRANCH  19  21
BRANCH   1  34
ATOM     33  C   UNL     1       2.153   1.593   0.132  0.00  0.00    +0.006 C 
ATOM     34  C   UNL     1       0.877   1.322  -0.667  0.00  0.00    +0.019 C 
ENDBRANCH   1  34
TORSDOF 3
