REMARK  Name = ZINC09441034
REMARK  7 active torsions:
REMARK  status: ('A' for Active; 'I' for Inactive)
REMARK    1  A    between atoms: C_1  and  C_2
REMARK    2  A    between atoms: C_3  and  C_20
REMARK    3  A    between atoms: C_4  and  C_10
REMARK    4  A    between atoms: C_15  and  O_16
REMARK    5  A    between atoms: O_16  and  C_17
REMARK    6  A    between atoms: N_22  and  C_23
REMARK    7  A    between atoms: C_28  and  C_29
REMARK                            x       y       z     vdW  Elec       q    Type
REMARK                         _______ _______ _______ _____ _____    ______ ____
ROOT
ATOM      1  C   UNL     1      -2.119   6.049   3.345  0.00  0.00    +0.061 C 
ATOM      2  C   UNL     1      -2.216   4.617   3.803  0.00  0.00    +0.017 C 
ATOM      3  C   UNL     1      -1.616   3.647   3.082  0.00  0.00    +0.056 C 
ATOM      4  C   UNL     1      -1.738   2.220   3.578  0.00  0.00    +0.143 C 
ATOM      5  N   UNL     1      -2.508   2.008   4.815  0.00  0.00    -0.315 N 
ATOM      6  C   UNL     1      -3.051   3.080   5.424  0.00  0.00    +0.135 C 
ATOM      7  S   UNL     1      -3.949   2.848   6.864  0.00  0.00    -0.019 S 
ATOM      8  N   UNL     1      -2.911   4.321   4.941  0.00  0.00    -0.300 N 
ATOM      9  H   UNL     1      -2.622   1.117   5.182  0.00  0.00    +0.149 HD
ATOM     10  H   UNL     1      -3.326   5.051   5.427  0.00  0.00    +0.154 HD
ENDROOT
BRANCH   4  11
ATOM     11  C   UNL     1      -0.347   1.684   3.798  0.00  0.00    +0.019 A 
ATOM     12  C   UNL     1       0.197   1.676   5.068  0.00  0.00    +0.009 A 
ATOM     13  C   UNL     1       1.475   1.189   5.270  0.00  0.00    +0.001 A 
ATOM     14  C   UNL     1       2.210   0.705   4.204  0.00  0.00    +0.004 A 
ATOM     15  C   UNL     1       1.669   0.707   2.933  0.00  0.00    +0.046 A 
ATOM     16  C   UNL     1       0.386   1.195   2.727  0.00  0.00    +0.132 A 
BRANCH  16  17
ATOM     17  O   UNL     1      -0.149   1.197   1.478  0.00  0.00    -0.434 OA
BRANCH  17  18
ATOM     18  C   UNL     1       0.628   0.599   0.439  0.00  0.00    +0.541 C 
ATOM     19  F   UNL     1       0.943  -0.718   0.791  0.00  0.00    -0.166 F 
ATOM     20  F   UNL     1       1.807   1.329   0.258  0.00  0.00    -0.166 F 
ENDBRANCH  17  18
ENDBRANCH  16  17
ENDBRANCH   4  11
BRANCH   3  21
ATOM     21  C   UNL     1      -0.895   3.953   1.902  0.00  0.00    +0.248 C 
ATOM     22  O   UNL     1      -1.382   3.714   0.812  0.00  0.00    -0.270 OA
ATOM     23  N   UNL     1       0.330   4.509   1.986  0.00  0.00    -0.281 N 
ATOM     24  H   UNL     1       0.747   4.635   2.852  0.00  0.00    +0.155 HD
BRANCH  23  25
ATOM     25  C   UNL     1       0.999   4.905   0.823  0.00  0.00    +0.045 A 
ATOM     26  C   UNL     1       0.290   5.098  -0.356  0.00  0.00    +0.024 A 
ATOM     27  C   UNL     1       0.953   5.495  -1.501  0.00  0.00    +0.002 A 
ATOM     28  C   UNL     1       2.322   5.689  -1.477  0.00  0.00    +0.001 A 
ATOM     29  C   UNL     1       3.031   5.492  -0.306  0.00  0.00    +0.014 A 
ATOM     30  C   UNL     1       2.373   5.101   0.844  0.00  0.00    +0.076 A 
BRANCH  30  31
ATOM     31  C   UNL     1       3.147   4.887   2.119  0.00  0.00    +0.419 C 
ATOM     32  F   UNL     1       4.487   5.232   1.915  0.00  0.00    -0.166 F 
ATOM     33  F   UNL     1       2.608   5.689   3.131  0.00  0.00    -0.166 F 
ATOM     34  F   UNL     1       3.063   3.542   2.495  0.00  0.00    -0.166 F 
ENDBRANCH  30  31
ENDBRANCH  23  25
ENDBRANCH   3  21
TORSDOF 6
