REMARK  Name = ZINC40924304
REMARK  8 active torsions:
REMARK  status: ('A' for Active; 'I' for Inactive)
REMARK    1  A    between atoms: C_4  and  C_7
REMARK    2  A    between atoms: C_10  and  S_12
REMARK    3  A    between atoms: S_12  and  C_13
REMARK    4  A    between atoms: C_13  and  C_14
REMARK    5  A    between atoms: N_16  and  N_17
REMARK    6  A    between atoms: C_18  and  C_19
REMARK    7  A    between atoms: C_22  and  O_28
REMARK    8  A    between atoms: C_23  and  N_25
REMARK                            x       y       z     vdW  Elec       q    Type
REMARK                         _______ _______ _______ _____ _____    ______ ____
ROOT
ATOM      1  C   UNL     1      10.154  -0.985  -0.093  0.00  0.00    +0.242 C 
ATOM      2  O   UNL     1      10.428   0.197  -0.084  0.00  0.00    -0.273 OA
ATOM      3  N   UNL     1      11.140  -1.904  -0.109  0.00  0.00    -0.206 N 
ATOM      4  H   UNL     1      10.921  -2.849  -0.117  0.00  0.00    +0.177 HD
ENDROOT
BRANCH   3   5
ATOM      5  N   UNL     1      12.480  -1.495  -0.116  0.00  0.00    -0.188 NA
ATOM      6  C   UNL     1      13.428  -2.381  -0.132  0.00  0.00    +0.138 C 
BRANCH   6   7
ATOM      7  C   UNL     1      14.838  -1.950  -0.139  0.00  0.00    -0.003 A 
ATOM      8  C   UNL     1      15.156  -0.589  -0.123  0.00  0.00    +0.013 A 
ATOM      9  C   UNL     1      16.475  -0.192  -0.130  0.00  0.00    +0.048 A 
ATOM     10  C   UNL     1      17.489  -1.141  -0.153  0.00  0.00    +0.147 A 
ATOM     11  C   UNL     1      17.178  -2.495  -0.170  0.00  0.00    +0.168 A 
ATOM     12  C   UNL     1      15.861  -2.902  -0.156  0.00  0.00    +0.046 A 
BRANCH  11  13
ATOM     13  N   UNL     1      18.263  -3.502  -0.195  0.00  0.00    +0.060 N 
ATOM     14  O   UNL     1      17.993  -4.680  -0.209  0.00  0.00    -0.126 OA
ATOM     15  O   UNL     1      19.418  -3.146  -0.201  0.00  0.00    -0.126 OA
ENDBRANCH  11  13
BRANCH  10  16
ATOM     16  O   UNL     1      18.788  -0.745  -0.160  0.00  0.00    -0.504 OA
ATOM     17  H   UNL     1      19.173  -0.642   0.721  0.00  0.00    +0.292 HD
ENDBRANCH  10  16
ENDBRANCH   6   7
ENDBRANCH   3   5
BRANCH   1  18
ATOM     18  C   UNL     1       8.713  -1.425  -0.086  0.00  0.00    +0.173 C 
BRANCH  18  19
ATOM     19  S   UNL     1       7.636   0.035  -0.063  0.00  0.00    -0.089 S 
BRANCH  19  23
ATOM     20  C   UNL     1       3.698  -0.688  -0.038  0.00  0.00    +0.079 A 
ATOM     21  C   UNL     1       3.728  -2.054  -0.051  0.00  0.00    +0.076 A 
ATOM     22  S   UNL     1       5.491  -2.349  -0.068  0.00  0.00    -0.069 S 
ATOM     23  C   UNL     1       6.007  -0.638  -0.057  0.00  0.00    +0.136 A 
ATOM     24  N   UNL     1       4.844  -0.011  -0.047  0.00  0.00    -0.233 NA
BRANCH  20  28
ATOM     25  C   UNL     1      -0.017   1.379   0.010  0.00  0.00    +0.000 A 
ATOM     26  C   UNL     1       1.169   2.092   0.002  0.00  0.00    +0.001 A 
ATOM     27  C   UNL     1       2.377   1.427  -0.013  0.00  0.00    +0.010 A 
ATOM     28  C   UNL     1       2.402   0.033  -0.021  0.00  0.00    +0.001 A 
ATOM     29  C   UNL     1       1.205  -0.680  -0.013  0.00  0.00    +0.010 A 
ATOM     30  C   UNL     1       0.002  -0.004   0.002  0.00  0.00    +0.001 A 
ENDBRANCH  20  28
ENDBRANCH  19  23
ENDBRANCH  18  19
ENDBRANCH   1  18
TORSDOF 8
