REMARK  Name = ZINC32054859
REMARK  7 active torsions:
REMARK  status: ('A' for Active; 'I' for Inactive)
REMARK    1  A    between atoms: C_1  and  C_2
REMARK    2  A    between atoms: N_5  and  C_8
REMARK    3  A    between atoms: C_8  and  C_10
REMARK    4  A    between atoms: C_8  and  C_12
REMARK    5  A    between atoms: C_10  and  N_11
REMARK    6  A    between atoms: C_15  and  O_21
REMARK    7  A    between atoms: C_16  and  N_18
REMARK                            x       y       z     vdW  Elec       q    Type
REMARK                         _______ _______ _______ _____ _____    ______ ____
ROOT
ATOM      1  C   UNL     1       1.723  -3.918  -0.031  0.00  0.00    +0.069 C 
ENDROOT
BRANCH   1   6
ATOM      2  C   UNL     1       0.274   1.389   1.522  0.00  0.00    +0.007 C 
ATOM      3  C   UNL     1       0.225  -0.105   1.194  0.00  0.00    -0.012 C 
ATOM      4  C   UNL     1       0.631  -0.322  -0.266  0.00  0.00    +0.018 C 
ATOM      5  C   UNL     1       0.639  -1.822  -0.571  0.00  0.00    +0.085 C 
ATOM      6  N   UNL     1       1.586  -2.499   0.325  0.00  0.00    -0.297 NA
ATOM      7  C   UNL     1       1.190  -2.345   1.730  0.00  0.00    +0.085 C 
ATOM      8  C   UNL     1       1.198  -0.861   2.104  0.00  0.00    +0.018 C 
ENDBRANCH   1   6
BRANCH   1   9
ATOM      9  C   UNL     1       0.403  -4.616   0.170  0.00  0.00    -0.030 A 
ATOM     10  C   UNL     1      -0.322  -5.051  -0.925  0.00  0.00    +0.009 A 
ATOM     11  C   UNL     1      -1.532  -5.691  -0.745  0.00  0.00    +0.048 A 
ATOM     12  C   UNL     1      -2.021  -5.898   0.537  0.00  0.00    +0.147 A 
ATOM     13  C   UNL     1      -1.292  -5.462   1.634  0.00  0.00    +0.168 A 
ATOM     14  C   UNL     1      -0.080  -4.827   1.448  0.00  0.00    +0.041 A 
BRANCH  13  15
ATOM     15  N   UNL     1      -1.811  -5.681   3.003  0.00  0.00    +0.060 N 
ATOM     16  O   UNL     1      -1.176  -5.301   3.958  0.00  0.00    -0.126 OA
ATOM     17  O   UNL     1      -2.870  -6.241   3.165  0.00  0.00    -0.126 OA
ENDBRANCH  13  15
BRANCH  12  18
ATOM     18  O   UNL     1      -3.212  -6.527   0.718  0.00  0.00    -0.504 OA
ATOM     19  H   UNL     1      -3.140  -7.488   0.803  0.00  0.00    +0.292 HD
ENDBRANCH  12  18
ENDBRANCH   1   9
BRANCH   1  20
ATOM     20  C   UNL     1       2.784  -4.567   0.861  0.00  0.00    -0.063 C 
BRANCH  20  21
ATOM     21  N   UNL     1       4.040  -3.812   0.756  0.00  0.00    +0.379 N 
ATOM     22  H   UNL     1       4.739  -4.240   1.345  0.00  0.00    -0.090 HD
ATOM     23  H   UNL     1       4.356  -3.818  -0.202  0.00  0.00    -0.090 HD
ATOM     24  H   UNL     1       3.886  -2.861   1.054  0.00  0.00    -0.090 HD
ENDBRANCH  20  21
ENDBRANCH   1  20
TORSDOF 6
