REMARK  Name = ZINC36270295
REMARK  11 active torsions:
REMARK  status: ('A' for Active; 'I' for Inactive)
REMARK    1  A    between atoms: C_1  and  C_2
REMARK    2  A    between atoms: C_2  and  N_3
REMARK    3  A    between atoms: N_3  and  C_4
REMARK    4  A    between atoms: N_3  and  C_24
REMARK    5  A    between atoms: C_4  and  C_5
REMARK    6  A    between atoms: C_6  and  C_15
REMARK    7  A    between atoms: C_11  and  N_14
REMARK    8  A    between atoms: C_18  and  N_21
REMARK    9  A    between atoms: C_24  and  C_25
REMARK   10  A    between atoms: C_24  and  C_26
REMARK   11  A    between atoms: C_24  and  C_27
REMARK                            x       y       z     vdW  Elec       q    Type
REMARK                         _______ _______ _______ _____ _____    ______ ____
ROOT
ATOM      1  C   UNL     1       1.436  -2.152   2.508  0.00  0.00    +0.035 A 
ATOM      2  C   UNL     1       2.760  -2.449   2.637  0.00  0.00    +0.091 A 
ATOM      3  N   UNL     1       2.965  -2.935   3.871  0.00  0.00    -0.228 NA
ATOM      4  C   UNL     1       1.812  -2.955   4.526  0.00  0.00    +0.138 A 
ATOM      5  N   UNL     1       0.838  -2.464   3.696  0.00  0.00    -0.303 N 
ATOM      6  C   UNL     1      -0.457  -2.368   4.128  0.00  0.00    +0.115 A 
ATOM      7  C   UNL     1      -0.794  -2.754   5.382  0.00  0.00    +0.041 A 
ATOM      8  C   UNL     1       0.189  -3.259   6.256  0.00  0.00    +0.028 A 
ATOM      9  C   UNL     1       1.476  -3.366   5.832  0.00  0.00    +0.048 A 
ENDROOT
BRANCH   2  10
ATOM     10  C   UNL     1       3.797  -2.265   1.591  0.00  0.00    +0.002 A 
ATOM     11  C   UNL     1       3.502  -2.538   0.258  0.00  0.00    +0.012 A 
ATOM     12  C   UNL     1       4.470  -2.365  -0.711  0.00  0.00    +0.033 A 
ATOM     13  C   UNL     1       5.733  -1.923  -0.359  0.00  0.00    +0.126 A 
ATOM     14  C   UNL     1       6.032  -1.651   0.964  0.00  0.00    +0.033 A 
ATOM     15  C   UNL     1       5.069  -1.815   1.940  0.00  0.00    +0.012 A 
BRANCH  13  16
ATOM     16  N   UNL     1       6.768  -1.741  -1.402  0.00  0.00    +0.056 N 
ATOM     17  O   UNL     1       6.509  -1.979  -2.559  0.00  0.00    -0.126 OA
ATOM     18  O   UNL     1       7.872  -1.355  -1.097  0.00  0.00    -0.126 OA
ENDBRANCH  13  16
ENDBRANCH   2  10
BRANCH   7  19
ATOM     19  N   UNL     1      -2.124  -2.650   5.812  0.00  0.00    -0.357 N 
ATOM     20  H   UNL     1      -2.802  -2.302   5.211  0.00  0.00    +0.142 HD
ATOM     21  H   UNL     1      -2.367  -2.925   6.709  0.00  0.00    +0.142 HD
ENDBRANCH   7  19
BRANCH   1  22
ATOM     22  C   UNL     1       0.761  -1.581   1.288  0.00  0.00    -0.021 C 
BRANCH  22  23
ATOM     23  N   UNL     1       0.107  -0.313   1.638  0.00  0.00    +0.386 N 
ATOM     24  H   UNL     1      -0.363  -0.411   2.525  0.00  0.00    -0.081 HD
BRANCH  23  25
ATOM     25  C   UNL     1       1.118   0.748   1.734  0.00  0.00    -0.074 C 
ATOM     26  C   UNL     1       0.575   1.895   2.589  0.00  0.00    -0.010 C 
ATOM     27  C   UNL     1       2.387   0.187   2.380  0.00  0.00    -0.010 C 
ATOM     28  C   UNL     1       1.446   1.268   0.333  0.00  0.00    -0.010 C 
ENDBRANCH  23  25
BRANCH  23  30
ATOM     29  C   UNL     1      -1.666   1.267   1.041  0.00  0.00    -0.017 C 
ATOM     30  C   UNL     1      -0.872   0.036   0.600  0.00  0.00    -0.081 C 
ENDBRANCH  23  30
ENDBRANCH  22  23
ENDBRANCH   1  22
TORSDOF 7
