REMARK  Name = ZINC19084446
REMARK  11 active torsions:
REMARK  status: ('A' for Active; 'I' for Inactive)
REMARK    1  A    between atoms: C_1  and  C_2
REMARK    2  A    between atoms: C_2  and  C_3
REMARK    3  A    between atoms: C_2  and  C_4
REMARK    4  A    between atoms: C_2  and  C_5
REMARK    5  A    between atoms: C_8  and  C_11
REMARK    6  A    between atoms: C_11  and  C_13
REMARK    7  A    between atoms: C_11  and  O_32
REMARK    8  A    between atoms: C_13  and  N_66
REMARK    9  A    between atoms: C_20  and  O_31
REMARK   10  A    between atoms: C_24  and  O_29
REMARK   11  A    between atoms: O_29  and  C_30
REMARK                            x       y       z     vdW  Elec       q    Type
REMARK                         _______ _______ _______ _____ _____    ______ ____
ROOT
ATOM      1  C   UNL     1       0.968   6.237   0.837  0.00  0.00    -0.075 C 
ATOM      2  C   UNL     1       2.107   5.657  -0.006  0.00  0.00    +0.029 C 
ATOM      3  C   UNL     1       2.290   4.178   0.343  0.00  0.00    +0.110 C 
ATOM      4  C   UNL     1       2.566   4.040   1.841  0.00  0.00    +0.029 C 
ATOM      5  C   UNL     1       1.416   4.670   2.630  0.00  0.00    -0.075 C 
ATOM      6  C   UNL     1       3.471   3.609  -0.451  0.00  0.00    +0.084 C 
ATOM      7  C   UNL     1       3.696   2.161  -0.006  0.00  0.00    +0.152 C 
ATOM      8  C   UNL     1       2.383   1.420  -0.008  0.00  0.00    +0.026 A 
ATOM      9  C   UNL     1       2.401   0.035  -0.017  0.00  0.00    +0.055 A 
ATOM     10  C   UNL     1       1.214  -0.679  -0.013  0.00  0.00    +0.121 A 
ATOM     11  C   UNL     1       0.002  -0.004   0.002  0.00  0.00    +0.049 A 
ATOM     12  C   UNL     1      -0.017   1.375   0.010  0.00  0.00    +0.049 A 
ATOM     13  C   UNL     1       1.175   2.093   0.002  0.00  0.00    +0.127 A 
ATOM     14  O   UNL     1       1.112   3.451  -0.002  0.00  0.00    -0.485 OA
ATOM     15  N   UNL     1       1.313   6.099   2.268  0.00  0.00    +0.382 N 
ATOM     16  H   UNL     1       2.218   6.552   2.437  0.00  0.00    -0.082 HD
ENDROOT
BRANCH  10  17
ATOM     17  O   UNL     1       1.236  -2.039  -0.022  0.00  0.00    -0.495 OA
ATOM     18  C   UNL     1      -0.026  -2.708  -0.017  0.00  0.00    +0.277 C 
ENDBRANCH  10  17
BRANCH   7  19
ATOM     19  O   UNL     1       4.604   1.524  -0.907  0.00  0.00    -0.387 OA
ATOM     20  H   UNL     1       4.796   0.602  -0.686  0.00  0.00    +0.210 HD
ENDBRANCH   7  19
BRANCH  15  21
ATOM     21  C   UNL     1       0.284   6.758   3.100  0.00  0.00    -0.042 C 
BRANCH  21  22
ATOM     22  C   UNL     1       0.773   6.795   4.549  0.00  0.00    +0.128 C 
BRANCH  22  26
ATOM     23  C   UNL     1      -2.284   8.433   7.042  0.00  0.00    -0.042 A 
ATOM     24  C   UNL     1      -2.103   7.064   6.980  0.00  0.00    +0.004 A 
ATOM     25  C   UNL     1      -1.114   6.534   6.173  0.00  0.00    +0.006 A 
ATOM     26  C   UNL     1      -0.306   7.373   5.429  0.00  0.00    -0.021 A 
ATOM     27  C   UNL     1      -0.483   8.742   5.495  0.00  0.00    +0.006 A 
ATOM     28  C   UNL     1      -1.476   9.272   6.298  0.00  0.00    +0.004 A 
BRANCH  23  30
ATOM     29  C   UNL     1      -3.111   8.605   9.374  0.00  0.00    +0.015 C 
ATOM     30  C   UNL     1      -3.364   9.011   7.921  0.00  0.00    -0.013 C 
ATOM     31  C   UNL     1      -3.351  10.537   7.808  0.00  0.00    +0.015 C 
ATOM     32  C   UNL     1      -4.726   8.478   7.472  0.00  0.00    +0.015 C 
ENDBRANCH  23  30
ENDBRANCH  22  26
BRANCH  22  33
ATOM     33  O   UNL     1       1.945   7.609   4.636  0.00  0.00    -0.389 OA
ATOM     34  H   UNL     1       1.809   8.524   4.356  0.00  0.00    +0.210 HD
ENDBRANCH  22  33
ENDBRANCH  21  22
ENDBRANCH  15  21
TORSDOF 7
