REMARK  Name = ZINC08582582
REMARK  11 active torsions:
REMARK  status: ('A' for Active; 'I' for Inactive)
REMARK    1  A    between atoms: C_1  and  C_2
REMARK    2  A    between atoms: C_2  and  C_3
REMARK    3  A    between atoms: C_3  and  C_4
REMARK    4  A    between atoms: C_3  and  C_5
REMARK    5  A    between atoms: C_3  and  N_6
REMARK    6  A    between atoms: C_7  and  C_11
REMARK    7  A    between atoms: C_11  and  C_13
REMARK    8  A    between atoms: C_11  and  N_64
REMARK    9  A    between atoms: C_18  and  O_24
REMARK   10  A    between atoms: C_22  and  O_23
REMARK   11  A    between atoms: O_24  and  C_25
REMARK                            x       y       z     vdW  Elec       q    Type
REMARK                         _______ _______ _______ _____ _____    ______ ____
ROOT
ATOM      1  C   UNL     1       3.290  -0.597  -0.405  0.00  0.00    +0.039 C 
ENDROOT
BRANCH   1  11
ATOM      2  C   UNL     1       4.005   0.876   1.382  0.00  0.00    -0.072 C 
ATOM      3  C   UNL     1       5.230   1.644   1.877  0.00  0.00    +0.017 C 
ATOM      4  C   UNL     1       5.622   2.693   0.868  0.00  0.00    -0.048 A 
ATOM      5  C   UNL     1       6.470   3.714   1.271  0.00  0.00    +0.004 A 
ATOM      6  C   UNL     1       6.857   4.692   0.377  0.00  0.00    +0.000 A 
ATOM      7  C   UNL     1       6.397   4.654  -0.926  0.00  0.00    +0.000 A 
ATOM      8  C   UNL     1       5.552   3.639  -1.328  0.00  0.00    +0.002 A 
ATOM      9  C   UNL     1       5.161   2.656  -0.430  0.00  0.00    -0.061 A 
ATOM     10  C   UNL     1       4.235   1.571  -0.914  0.00  0.00    -0.041 C 
ATOM     11  N   UNL     1       4.283   0.422   0.005  0.00  0.00    +0.392 N 
ATOM     12  H   UNL     1       5.221   0.005  -0.028  0.00  0.00    -0.080 HD
ENDBRANCH   1  11
BRANCH   1  13
ATOM     13  C   UNL     1       1.954   0.051  -0.664  0.00  0.00    +0.008 A 
ATOM     14  C   UNL     1       1.592   0.384  -1.936  0.00  0.00    +0.017 A 
ATOM     15  C   UNL     1       0.335   0.988  -2.137  0.00  0.00    +0.001 A 
ATOM     16  C   UNL     1      -0.098   1.356  -3.421  0.00  0.00    +0.013 A 
ATOM     17  C   UNL     1      -1.316   1.938  -3.584  0.00  0.00    +0.046 A 
ATOM     18  C   UNL     1      -2.148   2.177  -2.485  0.00  0.00    +0.122 A 
ATOM     19  C   UNL     1      -1.751   1.832  -1.214  0.00  0.00    +0.074 A 
ATOM     20  C   UNL     1      -0.500   1.225  -1.017  0.00  0.00    +0.078 A 
ATOM     21  N   UNL     1      -0.090   0.876   0.207  0.00  0.00    -0.213 NA
ATOM     22  C   UNL     1       1.083   0.312   0.400  0.00  0.00    +0.215 A 
BRANCH  22  23
ATOM     23  O   UNL     1       1.457  -0.025   1.658  0.00  0.00    -0.492 OA
ATOM     24  H   UNL     1       1.133  -0.889   1.947  0.00  0.00    +0.294 HD
ENDBRANCH  22  23
BRANCH  18  25
ATOM     25  O   UNL     1      -3.360   2.760  -2.675  0.00  0.00    -0.495 OA
ATOM     26  C   UNL     1      -3.714   3.098  -4.018  0.00  0.00    +0.277 C 
ENDBRANCH  18  25
ENDBRANCH   1  13
BRANCH   1  28
ATOM     27  N   UNL     1       3.844  -2.598  -1.885  0.00  0.00    -0.225 N 
ATOM     28  C   UNL     1       3.773  -1.273  -1.662  0.00  0.00    +0.143 A 
ATOM     29  N   UNL     1       4.210  -0.684  -2.749  0.00  0.00    -0.115 NA
ATOM     30  N   UNL     1       4.528  -1.601  -3.597  0.00  0.00    -0.023 NA
ATOM     31  N   UNL     1       4.306  -2.758  -3.079  0.00  0.00    -0.043 NA
BRANCH  27  32
ATOM     32  C   UNL     1       3.466  -3.660  -0.949  0.00  0.00    +0.061 C 
ATOM     33  C   UNL     1       4.379  -3.607   0.278  0.00  0.00    +0.036 C 
ATOM     34  C   UNL     1       2.013  -3.462  -0.513  0.00  0.00    +0.036 C 
BRANCH  32  36
ATOM     35  C   UNL     1       3.217  -6.129  -0.657  0.00  0.00    +0.006 C 
ATOM     36  C   UNL     1       3.612  -5.020  -1.635  0.00  0.00    +0.026 C 
ENDBRANCH  32  36
ENDBRANCH  27  32
ENDBRANCH   1  28
TORSDOF 7
