REMARK  Name = ZINC26862879
REMARK  6 active torsions:
REMARK  status: ('A' for Active; 'I' for Inactive)
REMARK    1  A    between atoms: C_4  and  C_7
REMARK    2  A    between atoms: C_4  and  N_20
REMARK    3  A    between atoms: C_7  and  N_8
REMARK    4  A    between atoms: C_9  and  C_11
REMARK    5  A    between atoms: C_11  and  S_12
REMARK    6  A    between atoms: S_12  and  C_13
REMARK                            x       y       z     vdW  Elec       q    Type
REMARK                         _______ _______ _______ _____ _____    ______ ____
ROOT
ATOM      1  N   UNL     1       0.597  -0.573   1.148  0.00  0.00    -0.313 N 
ATOM      2  C   UNL     1       0.740  -1.907   1.278  0.00  0.00    +0.223 C 
ATOM      3  O   UNL     1       0.258  -2.652   0.452  0.00  0.00    -0.275 OA
ATOM      4  H   UNL     1       1.034   0.103   1.898  0.00  0.00    +0.149 HD
ENDROOT
BRANCH   1   5
ATOM      5  C   UNL     1      -0.142  -0.024   0.009  0.00  0.00    +0.126 C 
BRANCH   5   9
ATOM      6  C   UNL     1      -2.753   2.267   0.654  0.00  0.00    +0.000 C 
ATOM      7  C   UNL     1      -2.385   1.712  -0.724  0.00  0.00    +0.002 C 
ATOM      8  C   UNL     1      -0.941   2.091  -1.057  0.00  0.00    +0.024 C 
ATOM      9  C   UNL     1      -0.003   1.500  -0.002  0.00  0.00    +0.038 C 
ATOM     10  C   UNL     1      -0.371   2.055   1.375  0.00  0.00    +0.024 C 
ATOM     11  C   UNL     1      -1.815   1.677   1.709  0.00  0.00    +0.002 C 
BRANCH   9  12
ATOM     12  N   UNL     1       1.384   1.863  -0.322  0.00  0.00    -0.291 NA
ATOM     13  C   UNL     1       1.715   1.509  -1.710  0.00  0.00    +0.113 C 
ATOM     14  C   UNL     1       3.146   1.957  -2.018  0.00  0.00    +0.175 C 
ATOM     15  O   UNL     1       4.041   1.358  -1.078  0.00  0.00    -0.377 OA
ATOM     16  C   UNL     1       3.748   1.683   0.284  0.00  0.00    +0.175 C 
ATOM     17  C   UNL     1       2.324   1.231   0.616  0.00  0.00    +0.113 C 
ENDBRANCH   9  12
ENDBRANCH   5   9
ENDBRANCH   1   5
BRANCH   2  18
ATOM     18  C   UNL     1       1.500  -2.472   2.451  0.00  0.00    +0.173 C 
BRANCH  18  19
ATOM     19  S   UNL     1       1.517  -4.283   2.343  0.00  0.00    -0.075 S 
BRANCH  19  20
ATOM     20  C   UNL     1       2.429  -4.786   3.765  0.00  0.00    +0.210 A 
ATOM     21  N   UNL     1       2.709  -6.074   4.126  0.00  0.00    -0.188 NA
ATOM     22  H   UNL     1       4.097  -4.314   6.482  0.00  0.00    +0.192 HD
ATOM     23  C   UNL     1       3.430  -6.040   5.286  0.00  0.00    +0.209 A 
ATOM     24  N   UNL     1       3.589  -4.785   5.628  0.00  0.00    -0.246 N 
ATOM     25  N   UNL     1       2.959  -3.990   4.661  0.00  0.00    -0.144 NA
ATOM     26  N   UNL     1       3.910  -7.143   5.981  0.00  0.00    -0.328 N 
ATOM     27  H   UNL     1       4.482  -7.001   6.910  0.00  0.00    +0.145 HD
ATOM     28  H   UNL     1       3.717  -8.158   5.603  0.00  0.00    +0.145 HD
ENDBRANCH  19  20
ENDBRANCH  18  19
ENDBRANCH   2  18
TORSDOF 6
