REMARK  Name = ZINC36357690
REMARK  7 active torsions:
REMARK  status: ('A' for Active; 'I' for Inactive)
REMARK    1  A    between atoms: C_1  and  N_2
REMARK    2  A    between atoms: N_2  and  C_3
REMARK    3  A    between atoms: N_2  and  S_4
REMARK    4  A    between atoms: S_4  and  C_7
REMARK    5  A    between atoms: C_10  and  N_13
REMARK    6  A    between atoms: C_15  and  C_20
REMARK    7  A    between atoms: C_20  and  N_22
REMARK                            x       y       z     vdW  Elec       q    Type
REMARK                         _______ _______ _______ _____ _____    ______ ____
ROOT
ATOM      1  N   UNL     1      -2.991  -1.706  -5.646  0.00  0.00    -0.271 N 
ATOM      2  C   UNL     1      -2.496  -2.809  -6.477  0.00  0.00    +0.127 C 
ATOM      3  C   UNL     1      -3.475  -2.899  -7.669  0.00  0.00    +0.103 C 
ATOM      4  C   UNL     1      -4.024  -1.455  -7.735  0.00  0.00    +0.110 C 
ATOM      5  C   UNL     1      -3.851  -0.929  -6.327  0.00  0.00    +0.221 C 
ATOM      6  O   UNL     1      -4.406   0.052  -5.879  0.00  0.00    -0.275 OA
ENDROOT
BRANCH   1  10
ATOM      7  C   UNL     1      -1.887  -1.071  -1.679  0.00  0.00    +0.106 A 
ATOM      8  C   UNL     1      -2.690  -0.151  -2.327  0.00  0.00    +0.030 A 
ATOM      9  C   UNL     1      -3.058  -0.359  -3.642  0.00  0.00    +0.025 A 
ATOM     10  C   UNL     1      -2.619  -1.492  -4.314  0.00  0.00    +0.036 A 
ATOM     11  C   UNL     1      -1.812  -2.414  -3.660  0.00  0.00    +0.025 A 
ATOM     12  C   UNL     1      -1.444  -2.199  -2.347  0.00  0.00    +0.030 A 
BRANCH   7  13
ATOM     13  S   UNL     1      -1.419  -0.803  -0.001  0.00  0.00    +0.060 S 
ATOM     14  O   UNL     1      -1.109  -2.079   0.542  0.00  0.00    -0.153 OA
ATOM     15  O   UNL     1      -2.408   0.046   0.565  0.00  0.00    -0.153 OA
BRANCH  13  17
ATOM     16  C   UNL     1      -0.044   1.526  -0.015  0.00  0.00    +0.131 C 
ATOM     17  N   UNL     1      -0.007   0.061  -0.018  0.00  0.00    -0.183 NA
ATOM     18  C   UNL     1       1.280  -0.639  -0.037  0.00  0.00    +0.131 C 
ENDBRANCH  13  17
ENDBRANCH   7  13
ENDBRANCH   1  10
BRANCH   3  19
ATOM     19  C   UNL     1      -2.747  -3.259  -8.938  0.00  0.00    +0.244 C 
ATOM     20  O   UNL     1      -1.544  -3.435  -8.921  0.00  0.00    -0.273 OA
BRANCH  19  21
ATOM     21  N   UNL     1      -3.421  -3.384 -10.078  0.00  0.00    -0.147 NA
ATOM     22  C   UNL     1      -2.799  -3.809 -11.174  0.00  0.00    +0.198 A 
ATOM     23  N   UNL     1      -1.517  -4.255 -11.229  0.00  0.00    -0.326 N 
ATOM     24  H   UNL     1      -0.904  -4.316 -10.480  0.00  0.00    +0.169 HD
ATOM     25  C   UNL     1      -1.234  -4.609 -12.545  0.00  0.00    +0.065 A 
ATOM     26  C   UNL     1      -0.102  -5.116 -13.167  0.00  0.00    +0.028 A 
ATOM     27  C   UNL     1      -0.121  -5.377 -14.523  0.00  0.00    +0.002 A 
ATOM     28  C   UNL     1      -1.265  -5.134 -15.265  0.00  0.00    +0.002 A 
ATOM     29  C   UNL     1      -2.396  -4.630 -14.655  0.00  0.00    +0.028 A 
ATOM     30  C   UNL     1      -2.388  -4.365 -13.293  0.00  0.00    +0.065 A 
ATOM     31  N   UNL     1      -3.349  -3.872 -12.416  0.00  0.00    -0.326 N 
ATOM     32  H   UNL     1      -4.254  -3.616 -12.650  0.00  0.00    +0.169 HD
ENDBRANCH  19  21
ENDBRANCH   3  19
TORSDOF 5
