REMARK  Name = ZINC06179584
REMARK  7 active torsions:
REMARK  status: ('A' for Active; 'I' for Inactive)
REMARK    1  A    between atoms: C_1  and  O_2
REMARK    2  A    between atoms: O_2  and  C_3
REMARK    3  A    between atoms: C_3  and  C_5
REMARK    4  A    between atoms: C_5  and  C_7
REMARK    5  A    between atoms: C_5  and  N_18
REMARK    6  A    between atoms: C_7  and  C_8
REMARK    7  A    between atoms: C_19  and  C_21
REMARK                            x       y       z     vdW  Elec       q    Type
REMARK                         _______ _______ _______ _____ _____    ______ ____
ROOT
ATOM      1  C   UNL     1      -0.013   1.086   0.008  0.00  0.00    +0.186 C 
ENDROOT
BRANCH   1   2
ATOM      2  N   UNL     1      -0.721   1.571  -1.179  0.00  0.00    -0.302 N 
ATOM      3  C   UNL     1      -0.620   0.902  -2.344  0.00  0.00    +0.220 C 
ATOM      4  O   UNL     1       0.057  -0.102  -2.411  0.00  0.00    -0.275 OA
ATOM      5  H   UNL     1      -1.263   2.374  -1.126  0.00  0.00    +0.150 HD
BRANCH   3   6
ATOM      6  C   UNL     1      -1.359   1.408  -3.581  0.00  0.00    +0.050 C 
ATOM      7  C   UNL     1      -2.923   1.526  -3.485  0.00  0.00    +0.020 C 
ATOM      8  C   UNL     1      -3.449   1.425  -4.950  0.00  0.00    -0.010 C 
ATOM      9  C   UNL     1      -3.296  -0.073  -5.385  0.00  0.00    +0.004 C 
ATOM     10  C   UNL     1      -1.946  -0.705  -4.901  0.00  0.00    +0.005 C 
ATOM     11  C   UNL     1      -1.237   0.607  -4.895  0.00  0.00    +0.004 C 
ATOM     12  C   UNL     1      -0.320   1.304  -5.851  0.00  0.00    +0.008 C 
ATOM     13  C   UNL     1      -1.136   2.664  -5.663  0.00  0.00    -0.009 C 
ATOM     14  C   UNL     1      -2.648   2.393  -5.836  0.00  0.00    +0.007 C 
ATOM     15  C   UNL     1      -0.972   2.848  -4.105  0.00  0.00    +0.020 C 
ENDBRANCH   3   6
ENDBRANCH   1   2
BRANCH   1  16
ATOM     16  C   UNL     1       1.401   1.607  -0.003  0.00  0.00    +0.328 C 
ATOM     17  O   UNL     1       1.778   2.312  -0.909  0.00  0.00    -0.249 OA
BRANCH  16  19
ATOM     18  C   UNL     1       3.588   1.827   0.919  0.00  0.00    +0.280 C 
ATOM     19  O   UNL     1       2.241   1.289   0.994  0.00  0.00    -0.467 OA
ENDBRANCH  16  19
ENDBRANCH   1  16
BRANCH   1  20
ATOM     20  C   UNL     1      -0.729   1.579   1.267  0.00  0.00    +0.071 C 
BRANCH  20  21
ATOM     21  C   UNL     1      -2.100   0.959   1.340  0.00  0.00    -0.020 A 
ATOM     22  C   UNL     1      -3.247   1.504   0.905  0.00  0.00    +0.087 A 
ATOM     23  N   UNL     1      -4.289   0.649   1.139  0.00  0.00    -0.360 N 
ATOM     24  H   UNL     1      -5.216   0.823   0.912  0.00  0.00    +0.165 HD
ATOM     25  C   UNL     1      -3.826  -0.497   1.747  0.00  0.00    +0.047 A 
ATOM     26  C   UNL     1      -2.434  -0.355   1.894  0.00  0.00    +0.003 A 
ATOM     27  C   UNL     1      -1.690  -1.373   2.492  0.00  0.00    +0.010 A 
ATOM     28  C   UNL     1      -2.317  -2.509   2.923  0.00  0.00    +0.001 A 
ATOM     29  C   UNL     1      -3.689  -2.656   2.775  0.00  0.00    +0.002 A 
ATOM     30  C   UNL     1      -4.444  -1.661   2.192  0.00  0.00    +0.026 A 
ENDBRANCH  20  21
ENDBRANCH   1  20
TORSDOF 6
