REMARK  Name = ZINC09670792
REMARK  8 active torsions:
REMARK  status: ('A' for Active; 'I' for Inactive)
REMARK    1  A    between atoms: C_1  and  N_2
REMARK    2  A    between atoms: C_6  and  S_7
REMARK    3  A    between atoms: S_7  and  C_8
REMARK    4  A    between atoms: C_11  and  C_17
REMARK    5  A    between atoms: C_13  and  N_14
REMARK    6  A    between atoms: C_17  and  O_19
REMARK    7  A    between atoms: O_19  and  C_20
REMARK    8  A    between atoms: C_20  and  C_21
REMARK                            x       y       z     vdW  Elec       q    Type
REMARK                         _______ _______ _______ _____ _____    ______ ____
ROOT
ATOM      1  C   UNL     1       0.266  -5.270   6.195  0.00  0.00    +0.340 C 
ATOM      2  O   UNL     1       0.214  -5.173   7.405  0.00  0.00    -0.245 OA
ENDROOT
BRANCH   1   6
ATOM      3  C   UNL     1       0.102  -1.793   3.783  0.00  0.00    +0.046 A 
ATOM      4  C   UNL     1       0.215  -3.047   3.187  0.00  0.00    +0.018 A 
ATOM      5  C   UNL     1       0.269  -4.170   3.962  0.00  0.00    +0.016 A 
ATOM      6  C   UNL     1       0.209  -4.061   5.356  0.00  0.00    +0.061 A 
ATOM      7  C   UNL     1       0.095  -2.800   5.950  0.00  0.00    +0.048 A 
ATOM      8  C   UNL     1       0.048  -1.679   5.170  0.00  0.00    +0.141 A 
BRANCH   8   9
ATOM      9  N   UNL     1      -0.067  -0.344   5.798  0.00  0.00    +0.058 N 
ATOM     10  O   UNL     1      -0.113  -0.245   7.002  0.00  0.00    -0.126 OA
ATOM     11  O   UNL     1      -0.114   0.647   5.108  0.00  0.00    -0.126 OA
ENDBRANCH   8   9
BRANCH   3  12
ATOM     12  S   UNL     1       0.033  -0.346   2.779  0.00  0.00    -0.048 S 
BRANCH  12  18
ATOM     13  C   UNL     1      -1.520   2.282   1.508  0.00  0.00    +0.152 C 
ATOM     14  N   UNL     1      -2.221   1.220   2.235  0.00  0.00    -0.311 N 
ATOM     15  C   UNL     1      -3.561   1.140   2.489  0.00  0.00    +0.225 A 
ATOM     16  N   UNL     1      -3.764   0.042   3.160  0.00  0.00    -0.137 NA
ATOM     17  N   UNL     1      -2.651  -0.574   3.346  0.00  0.00    -0.122 NA
ATOM     18  C   UNL     1      -1.671   0.102   2.793  0.00  0.00    +0.196 A 
ENDBRANCH  12  18
ENDBRANCH   3  12
ENDBRANCH   1   6
BRANCH   1  19
ATOM     19  O   UNL     1       0.376  -6.484   5.620  0.00  0.00    -0.455 OA
BRANCH  19  20
ATOM     20  C   UNL     1       0.425  -7.614   6.495  0.00  0.00    +0.285 C 
BRANCH  20  21
ATOM     21  C   UNL     1       0.547  -8.875   5.679  0.00  0.00    +0.061 A 
ATOM     22  C   UNL     1       0.600  -8.819   4.303  0.00  0.00    +0.095 A 
ATOM     23  C   UNL     1       0.712  -9.997   3.565  0.00  0.00    +0.259 A 
ATOM     24  O   UNL     1       0.759  -9.953   2.345  0.00  0.00    -0.267 OA
ATOM     25  N   UNL     1       0.770 -11.201   4.209  0.00  0.00    -0.260 N 
ATOM     26  C   UNL     1       0.882 -12.441   3.595  0.00  0.00    +0.039 A 
ATOM     27  C   UNL     1       0.927 -13.532   4.369  0.00  0.00    +0.013 A 
ATOM     28  S   UNL     1       0.815 -12.887   6.018  0.00  0.00    -0.056 S 
ATOM     29  C   UNL     1       0.712 -11.165   5.574  0.00  0.00    +0.159 A 
ATOM     30  N   UNL     1       0.611 -10.063   6.275  0.00  0.00    -0.336 N 
ATOM     31  C   UNL     1       1.045 -14.960   3.941  0.00  0.00    +0.044 C 
ATOM     32  C   UNL     1       0.743 -15.041   2.437  0.00  0.00    +0.006 C 
ATOM     33  C   UNL     1       1.532 -13.940   1.721  0.00  0.00    +0.006 C 
ATOM     34  C   UNL     1       0.953 -12.570   2.075  0.00  0.00    +0.055 C 
ATOM     35  H   UNL     1       0.579 -10.114   7.244  0.00  0.00    +0.168 HD
ENDBRANCH  20  21
ENDBRANCH  19  20
ENDBRANCH   1  19
TORSDOF 7
