REMARK  Name = ZINC25155286
REMARK  8 active torsions:
REMARK  status: ('A' for Active; 'I' for Inactive)
REMARK    1  A    between atoms: C_1  and  C_2
REMARK    2  A    between atoms: C_8  and  C_29
REMARK    3  A    between atoms: C_12  and  C_13
REMARK    4  A    between atoms: N_15  and  C_16
REMARK    5  A    between atoms: C_16  and  C_17
REMARK    6  A    between atoms: C_17  and  C_19
REMARK    7  A    between atoms: C_17  and  N_24
REMARK    8  A    between atoms: C_29  and  C_30
REMARK                            x       y       z     vdW  Elec       q    Type
REMARK                         _______ _______ _______ _____ _____    ______ ____
ROOT
ATOM      1  C   UNL     1      -0.178   1.478  -0.001  0.00  0.00    +0.046 C 
ATOM      2  C   UNL     1       0.047  -0.012   0.001  0.00  0.00    -0.017 A 
ATOM      3  C   UNL     1       0.197  -0.698  -1.207  0.00  0.00    +0.076 A 
ATOM      4  C   UNL     1       0.171  -0.173  -2.591  0.00  0.00    +0.260 A 
ATOM      5  O   UNL     1       0.001   1.014  -2.806  0.00  0.00    -0.267 OA
ATOM      6  N   UNL     1       0.342  -1.042  -3.606  0.00  0.00    -0.310 N 
ATOM      7  H   UNL     1       0.328  -0.714  -4.519  0.00  0.00    +0.170 HD
ATOM      8  C   UNL     1       0.534  -2.365  -3.378  0.00  0.00    +0.115 A 
ATOM      9  N   UNL     1       0.562  -2.860  -2.171  0.00  0.00    -0.226 NA
ATOM     10  C   UNL     1       0.404  -2.092  -1.100  0.00  0.00    +0.116 A 
ATOM     11  S   UNL     1       0.379  -2.376   0.652  0.00  0.00    -0.064 S 
ATOM     12  C   UNL     1       0.109  -0.693   1.181  0.00  0.00    +0.079 A 
ENDROOT
BRANCH  12  13
ATOM     13  C   UNL     1      -0.015  -0.171   2.546  0.00  0.00    +0.251 C 
ATOM     14  O   UNL     1      -0.200   1.018   2.729  0.00  0.00    -0.270 OA
ATOM     15  N   UNL     1       0.076  -1.009   3.598  0.00  0.00    -0.312 N 
ATOM     16  H   UNL     1       0.223  -1.956   3.452  0.00  0.00    +0.149 HD
BRANCH  15  17
ATOM     17  C   UNL     1      -0.049  -0.488   4.962  0.00  0.00    +0.097 C 
BRANCH  17  18
ATOM     18  C   UNL     1      -0.042  -1.652   5.955  0.00  0.00    +0.016 C 
BRANCH  18  19
ATOM     19  N   UNL     1      -0.035  -1.125   7.326  0.00  0.00    +0.387 N 
ATOM     20  C   UNL     1       1.172  -0.298   7.535  0.00  0.00    -0.078 C 
ATOM     21  C   UNL     1       1.590  -0.572   9.002  0.00  0.00    -0.020 C 
ATOM     22  C   UNL     1       1.262  -2.082   9.144  0.00  0.00    -0.020 C 
ATOM     23  C   UNL     1      -0.010  -2.244   8.287  0.00  0.00    -0.078 C 
ATOM     24  H   UNL     1      -0.859  -0.564   7.479  0.00  0.00    -0.081 HD
ENDBRANCH  18  19
BRANCH  18  25
ATOM     25  C   UNL     1      -1.272  -2.497   5.747  0.00  0.00    +0.093 A 
ATOM     26  C   UNL     1      -1.324  -3.659   5.072  0.00  0.00    +0.043 A 
ATOM     27  C   UNL     1      -2.664  -4.105   5.126  0.00  0.00    +0.041 A 
ATOM     28  C   UNL     1      -3.352  -3.189   5.831  0.00  0.00    +0.195 A 
ATOM     29  O   UNL     1      -2.502  -2.220   6.210  0.00  0.00    -0.469 OA
ENDBRANCH  18  25
ENDBRANCH  17  18
ENDBRANCH  15  17
ENDBRANCH  12  13
BRANCH   8  30
ATOM     30  C   UNL     1       0.720  -3.290  -4.553  0.00  0.00    +0.109 C 
BRANCH  30  31
ATOM     31  C   UNL     1       0.914  -4.699  -4.057  0.00  0.00    -0.040 A 
ATOM     32  C   UNL     1       2.186  -5.165  -3.778  0.00  0.00    +0.004 A 
ATOM     33  C   UNL     1       2.364  -6.458  -3.322  0.00  0.00    +0.000 A 
ATOM     34  C   UNL     1       1.271  -7.285  -3.145  0.00  0.00    +0.000 A 
ATOM     35  C   UNL     1      -0.001  -6.819  -3.423  0.00  0.00    +0.000 A 
ATOM     36  C   UNL     1      -0.179  -5.525  -3.875  0.00  0.00    +0.004 A 
ENDBRANCH  30  31
ENDBRANCH   8  30
TORSDOF 7
