REMARK  Name = ZINC63303062
REMARK  7 active torsions:
REMARK  status: ('A' for Active; 'I' for Inactive)
REMARK    1  A    between atoms: C_1  and  O_2
REMARK    2  A    between atoms: O_2  and  C_3
REMARK    3  A    between atoms: C_9  and  C_13
REMARK    4  A    between atoms: N_15  and  C_16
REMARK    5  A    between atoms: C_16  and  C_17
REMARK    6  A    between atoms: C_17  and  C_18
REMARK    7  A    between atoms: N_20  and  C_21
REMARK                            x       y       z     vdW  Elec       q    Type
REMARK                         _______ _______ _______ _____ _____    ______ ____
ROOT
ATOM      1  C   UNL     1       1.556  -5.141   0.015  0.00  0.00    +0.239 C 
ATOM      2  O   UNL     1       2.758  -5.093   0.169  0.00  0.00    -0.273 OA
ATOM      3  N   UNL     1       1.033  -5.886  -0.979  0.00  0.00    -0.313 N 
ATOM      4  H   UNL     1       0.071  -5.925  -1.102  0.00  0.00    +0.149 HD
ENDROOT
BRANCH   1  11
ATOM      5  C   UNL     1       0.624  -0.617   1.039  0.00  0.00    +0.129 A 
ATOM      6  C   UNL     1       1.193   0.116   2.035  0.00  0.00    +0.046 A 
ATOM      7  C   UNL     1       1.840  -0.493   3.113  0.00  0.00    +0.006 A 
ATOM      8  C   UNL     1       1.945  -1.836   3.241  0.00  0.00    +0.026 A 
ATOM      9  C   UNL     1       1.388  -2.699   2.263  0.00  0.00    +0.047 A 
ATOM     10  N   UNL     1       1.361  -4.008   2.166  0.00  0.00    -0.370 N 
ATOM     11  C   UNL     1       0.646  -4.369   0.936  0.00  0.00    +0.190 C 
ATOM     12  C   UNL     1       0.240  -3.062   0.293  0.00  0.00    +0.020 C 
ATOM     13  C   UNL     1       0.691  -2.086   1.109  0.00  0.00    +0.038 A 
ATOM     14  H   UNL     1       1.748  -4.631   2.800  0.00  0.00    +0.161 HD
BRANCH   5  16
ATOM     15  C   UNL     1      -0.017   1.425   0.010  0.00  0.00    +0.277 C 
ATOM     16  O   UNL     1       0.002  -0.004   0.002  0.00  0.00    -0.494 OA
ENDBRANCH   5  16
ENDBRANCH   1  11
BRANCH   3  17
ATOM     17  C   UNL     1       1.916  -6.637  -1.874  0.00  0.00    +0.113 C 
BRANCH  17  18
ATOM     18  C   UNL     1       1.075  -7.392  -2.905  0.00  0.00    +0.114 C 
BRANCH  18  19
ATOM     19  C   UNL     1       1.984  -8.165  -3.826  0.00  0.00    +0.216 C 
ATOM     20  O   UNL     1       3.187  -8.116  -3.673  0.00  0.00    -0.276 OA
ATOM     21  N   UNL     1       1.462  -8.910  -4.821  0.00  0.00    -0.288 N 
ATOM     22  H   UNL     1       0.500  -8.949  -4.943  0.00  0.00    +0.151 HD
BRANCH  21  23
ATOM     23  C   UNL     1       2.345  -9.661  -5.716  0.00  0.00    +0.224 C 
ATOM     24  N   UNL     1       1.582 -10.608  -6.539  0.00  0.00    -0.316 N 
ATOM     25  C   UNL     1       1.613 -10.431  -7.921  0.00  0.00    +0.043 A 
ATOM     26  C   UNL     1       0.949 -11.235  -8.865  0.00  0.00    +0.024 A 
ATOM     27  C   UNL     1       1.043 -10.978 -10.213  0.00  0.00    +0.002 A 
ATOM     28  C   UNL     1       1.794  -9.918 -10.687  0.00  0.00    +0.001 A 
ATOM     29  C   UNL     1       2.460  -9.109  -9.780  0.00  0.00    +0.016 A 
ATOM     30  C   UNL     1       2.365  -9.368  -8.432  0.00  0.00    +0.032 A 
ATOM     31  S   UNL     1       3.065  -8.567  -7.005  0.00  0.00    -0.082 S 
ATOM     32  H   UNL     1       1.076 -11.331  -6.136  0.00  0.00    +0.149 HD
ENDBRANCH  21  23
ENDBRANCH  18  19
ENDBRANCH  17  18
ENDBRANCH   3  17
TORSDOF 6
