REMARK  Name = ZINC12897745
REMARK  7 active torsions:
REMARK  status: ('A' for Active; 'I' for Inactive)
REMARK    1  A    between atoms: C_1  and  C_2
REMARK    2  A    between atoms: C_3  and  C_30
REMARK    3  A    between atoms: C_9  and  C_29
REMARK    4  A    between atoms: C_10  and  C_16
REMARK    5  A    between atoms: C_16  and  C_17
REMARK    6  A    between atoms: C_17  and  C_18
REMARK    7  A    between atoms: N_20  and  C_21
REMARK                            x       y       z     vdW  Elec       q    Type
REMARK                         _______ _______ _______ _____ _____    ______ ____
ROOT
ATOM      1  C   UNL     1      -0.013   1.086   0.008  0.00  0.00    +0.048 C 
ATOM      2  C   UNL     1      -0.718   1.572   1.248  0.00  0.00    -0.002 A 
ATOM      3  C   UNL     1      -0.162   1.841   2.436  0.00  0.00    +0.106 A 
ATOM      4  O   UNL     1      -1.101   2.253   3.307  0.00  0.00    -0.460 OA
ATOM      5  C   UNL     1      -2.320   2.273   2.730  0.00  0.00    +0.139 A 
ATOM      6  C   UNL     1      -2.153   1.851   1.395  0.00  0.00    +0.024 A 
ATOM      7  C   UNL     1      -3.246   1.761   0.544  0.00  0.00    +0.023 A 
ATOM      8  C   UNL     1      -4.512   2.107   1.019  0.00  0.00    +0.022 A 
ATOM      9  C   UNL     1      -5.687   2.031   0.145  0.00  0.00    -0.030 A 
ATOM     10  C   UNL     1      -6.893   2.379   0.661  0.00  0.00    +0.041 A 
ATOM     11  C   UNL     1      -6.987   2.799   2.005  0.00  0.00    +0.341 A 
ATOM     12  O   UNL     1      -8.075   3.108   2.455  0.00  0.00    -0.245 OA
ATOM     13  O   UNL     1      -5.909   2.866   2.801  0.00  0.00    -0.422 OA
ATOM     14  C   UNL     1      -4.677   2.535   2.353  0.00  0.00    +0.143 A 
ATOM     15  C   UNL     1      -3.581   2.614   3.195  0.00  0.00    +0.093 A 
ATOM     16  C   UNL     1      -5.559   1.579  -1.287  0.00  0.00    +0.045 C 
ATOM     17  C   UNL     1       1.305   1.704   2.751  0.00  0.00    +0.086 C 
ENDROOT
BRANCH  10  18
ATOM     18  C   UNL     1      -8.129   2.318  -0.199  0.00  0.00    +0.052 C 
BRANCH  18  19
ATOM     19  C   UNL     1      -8.328   3.663  -0.901  0.00  0.00    +0.100 C 
BRANCH  19  20
ATOM     20  C   UNL     1      -9.564   3.602  -1.762  0.00  0.00    +0.214 C 
ATOM     21  O   UNL     1     -10.220   2.584  -1.809  0.00  0.00    -0.276 OA
ATOM     22  N   UNL     1      -9.939   4.680  -2.479  0.00  0.00    -0.307 N 
ATOM     23  H   UNL     1      -9.414   5.495  -2.441  0.00  0.00    +0.149 HD
BRANCH  22  24
ATOM     24  C   UNL     1     -11.141   4.621  -3.315  0.00  0.00    +0.119 C 
ATOM     25  C   UNL     1     -10.988   5.611  -4.500  0.00  0.00    +0.197 C 
ATOM     26  S   UNL     1     -11.908   7.041  -3.790  0.00  0.00    -0.008 S 
ATOM     27  O   UNL     1     -12.843   7.562  -4.725  0.00  0.00    -0.170 OA
ATOM     28  O   UNL     1     -11.041   7.893  -3.054  0.00  0.00    -0.170 OA
ATOM     29  C   UNL     1     -12.872   6.158  -2.576  0.00  0.00    +0.132 C 
ATOM     30  C   UNL     1     -12.335   4.969  -2.487  0.00  0.00    +0.015 C 
ENDBRANCH  22  24
ENDBRANCH  19  20
ENDBRANCH  18  19
ENDBRANCH  10  18
TORSDOF 4
