REMARK  Name = ZINC23629443
REMARK  8 active torsions:
REMARK  status: ('A' for Active; 'I' for Inactive)
REMARK    1  A    between atoms: C_1  and  C_2
REMARK    2  A    between atoms: C_8  and  N_10
REMARK    3  A    between atoms: C_14  and  C_16
REMARK    4  A    between atoms: C_16  and  O_17
REMARK    5  A    between atoms: O_17  and  C_18
REMARK    6  A    between atoms: C_18  and  C_20
REMARK    7  A    between atoms: C_24  and  S_26
REMARK    8  A    between atoms: S_26  and  N_29
REMARK                            x       y       z     vdW  Elec       q    Type
REMARK                         _______ _______ _______ _____ _____    ______ ____
ROOT
ATOM      1  C   UNL     1      -1.265  -0.763   0.010  0.00  0.00    +0.340 C 
ATOM      2  O   UNL     1      -1.246  -1.978   0.003  0.00  0.00    -0.245 OA
ENDROOT
BRANCH   1   3
ATOM      3  C   UNL     1       0.002  -0.004   0.002  0.00  0.00    +0.061 A 
ATOM      4  C   UNL     1      -0.017   1.392   0.010  0.00  0.00    +0.015 A 
ATOM      5  C   UNL     1       1.170   2.095   0.002  0.00  0.00    +0.003 A 
ATOM      6  C   UNL     1       2.378   1.419  -0.013  0.00  0.00    +0.029 A 
ATOM      7  C   UNL     1       2.404   0.036  -0.021  0.00  0.00    +0.109 A 
ATOM      8  C   UNL     1       1.224  -0.679  -0.013  0.00  0.00    +0.043 A 
BRANCH   7   9
ATOM      9  S   UNL     1       3.947  -0.814  -0.040  0.00  0.00    +0.075 S 
ATOM     10  O   UNL     1       4.909   0.078   0.506  0.00  0.00    -0.150 OA
ATOM     11  O   UNL     1       3.707  -2.104   0.506  0.00  0.00    -0.150 OA
BRANCH   9  12
ATOM     12  N   UNL     1       4.361  -1.042  -1.627  0.00  0.00    -0.202 N 
ATOM     13  C   UNL     1       5.150  -0.105  -2.432  0.00  0.00    +0.136 C 
ATOM     14  C   UNL     1       5.261  -0.760  -3.818  0.00  0.00    +0.058 C 
ATOM     15  C   UNL     1       4.500  -2.060  -3.687  0.00  0.00    -0.023 A 
ATOM     16  C   UNL     1       4.014  -2.156  -2.392  0.00  0.00    +0.054 A 
ATOM     17  C   UNL     1       3.277  -3.285  -2.028  0.00  0.00    +0.025 A 
ATOM     18  C   UNL     1       3.042  -4.288  -2.944  0.00  0.00    +0.002 A 
ATOM     19  C   UNL     1       3.535  -4.184  -4.232  0.00  0.00    +0.000 A 
ATOM     20  C   UNL     1       4.258  -3.065  -4.603  0.00  0.00    +0.005 A 
ENDBRANCH   9  12
ENDBRANCH   7   9
ENDBRANCH   1   3
BRANCH   1  21
ATOM     21  O   UNL     1      -2.442  -0.109   0.024  0.00  0.00    -0.452 OA
BRANCH  21  22
ATOM     22  C   UNL     1      -3.647  -0.919   0.030  0.00  0.00    +0.328 C 
BRANCH  22  27
ATOM     23  N   UNL     1      -8.413  -0.288   0.078  0.00  0.00    -0.296 N 
ATOM     24  C   UNL     1      -7.176   0.248   0.069  0.00  0.00    +0.306 C 
ATOM     25  O   UNL     1      -7.036   1.455   0.074  0.00  0.00    -0.252 OA
ATOM     26  N   UNL     1      -6.094  -0.556   0.055  0.00  0.00    -0.237 N 
ATOM     27  C   UNL     1      -4.857  -0.021   0.046  0.00  0.00    +0.258 C 
ATOM     28  O   UNL     1      -4.718   1.184   0.052  0.00  0.00    -0.272 OA
ATOM     29  H   UNL     1      -8.539  -1.380   0.073  0.00  0.00    +0.151 HD
ATOM     30  H   UNL     1      -6.220  -1.649   0.050  0.00  0.00    +0.159 HD
BRANCH  23  37
ATOM     31  C   UNL     1     -10.424  -0.576   2.141  0.00  0.00    +0.009 C 
ATOM     32  C   UNL     1     -10.772  -0.163   0.710  0.00  0.00    +0.006 C 
ATOM     33  C   UNL     1     -12.000   0.749   0.726  0.00  0.00    +0.005 C 
ATOM     34  C   UNL     1     -12.348   1.162  -0.706  0.00  0.00    +0.000 C 
ATOM     35  C   UNL     1     -11.165   1.911  -1.322  0.00  0.00    +0.002 C 
ATOM     36  C   UNL     1      -9.936   0.999  -1.339  0.00  0.00    +0.022 C 
ATOM     37  C   UNL     1      -9.589   0.586   0.093  0.00  0.00    +0.077 C 
ENDBRANCH  23  37
ENDBRANCH  22  27
ENDBRANCH  21  22
ENDBRANCH   1  21
TORSDOF 7
