REMARK  Name = ZINC01831444
REMARK  8 active torsions:
REMARK  status: ('A' for Active; 'I' for Inactive)
REMARK    1  A    between atoms: C_1  and  C_2
REMARK    2  A    between atoms: C_2  and  C_3
REMARK    3  A    between atoms: C_3  and  N_4
REMARK    4  A    between atoms: C_14  and  C_16
REMARK    5  A    between atoms: C_19  and  O_24
REMARK    6  A    between atoms: C_21  and  O_22
REMARK    7  A    between atoms: O_22  and  C_23
REMARK    8  A    between atoms: O_24  and  C_25
REMARK                            x       y       z     vdW  Elec       q    Type
REMARK                         _______ _______ _______ _____ _____    ______ ____
ROOT
ATOM      1  N   UNL     1       0.762  -1.980   1.234  0.00  0.00    +0.380 N 
ATOM      2  C   UNL     1      -0.610  -2.487   1.355  0.00  0.00    -0.074 C 
ATOM      3  C   UNL     1      -0.603  -4.014   1.270  0.00  0.00    +0.048 C 
ATOM      4  C   UNL     1       0.249  -4.579   2.413  0.00  0.00    +0.177 C 
ATOM      5  C   UNL     1       1.661  -3.989   2.310  0.00  0.00    +0.048 C 
ATOM      6  C   UNL     1       1.573  -2.463   2.357  0.00  0.00    -0.074 C 
ATOM      7  N   UNL     1       0.296  -6.018   2.347  0.00  0.00    -0.177 NA
ATOM      8  C   UNL     1      -1.050  -6.595   2.649  0.00  0.00    +0.138 C 
ATOM      9  C   UNL     1      -0.838  -8.031   2.254  0.00  0.00    +0.023 C 
ATOM     10  C   UNL     1       0.227  -8.020   1.428  0.00  0.00    +0.050 C 
ATOM     11  N   UNL     1       0.692  -6.700   1.259  0.00  0.00    -0.273 N 
ATOM     12  C   UNL     1      -1.215  -6.335   4.117  0.00  0.00    +0.018 A 
ATOM     13  C   UNL     1      -1.727  -7.245   5.001  0.00  0.00    +0.024 A 
ATOM     14  C   UNL     1      -1.827  -6.916   6.344  0.00  0.00    +0.018 A 
ATOM     15  C   UNL     1      -1.407  -5.671   6.780  0.00  0.00    +0.019 A 
ATOM     16  C   UNL     1      -0.896  -4.750   5.887  0.00  0.00    +0.047 A 
ATOM     17  C   UNL     1      -0.798  -5.067   4.541  0.00  0.00    +0.128 A 
ATOM     18  O   UNL     1      -0.329  -4.171   3.661  0.00  0.00    -0.469 OA
ATOM     19 BR   UNL     1      -2.534  -8.163   7.577  0.00  0.00    -0.050 Br
ATOM     20  H   UNL     1       1.196  -6.353   0.507  0.00  0.00    +0.167 HD
ATOM     21  H   UNL     1       1.163  -2.305   0.366  0.00  0.00    -0.082 HD
ENDROOT
BRANCH  10  22
ATOM     22  C   UNL     1       0.821  -9.217   0.792  0.00  0.00    +0.039 A 
ATOM     23  C   UNL     1       1.931  -9.088  -0.043  0.00  0.00    +0.017 A 
ATOM     24  C   UNL     1       2.482 -10.206  -0.633  0.00  0.00    +0.046 A 
ATOM     25  C   UNL     1       1.935 -11.461  -0.399  0.00  0.00    +0.124 A 
ATOM     26  C   UNL     1       0.832 -11.599   0.430  0.00  0.00    +0.091 A 
ATOM     27  C   UNL     1       0.275 -10.484   1.032  0.00  0.00    +0.132 A 
BRANCH  27  28
ATOM     28  O   UNL     1      -0.802 -10.617   1.848  0.00  0.00    -0.494 OA
ATOM     29  C   UNL     1      -1.306 -11.940   2.047  0.00  0.00    +0.277 C 
ENDBRANCH  27  28
BRANCH  25  30
ATOM     30  O   UNL     1       2.483 -12.558  -0.985  0.00  0.00    -0.495 OA
ATOM     31  C   UNL     1       3.618 -12.345  -1.827  0.00  0.00    +0.277 C 
ENDBRANCH  25  30
ENDBRANCH  10  22
BRANCH   1  32
ATOM     32  C   UNL     1       0.742  -0.511   1.242  0.00  0.00    -0.079 C 
BRANCH  32  34
ATOM     33  C   UNL     1      -0.019   1.526   0.010  0.00  0.00    +0.002 C 
ATOM     34  C   UNL     1       0.002  -0.004   0.002  0.00  0.00    -0.022 C 
ENDBRANCH  32  34
ENDBRANCH   1  32
TORSDOF 5
