REMARK  Name = ZINC63856909
REMARK  10 active torsions:
REMARK  status: ('A' for Active; 'I' for Inactive)
REMARK    1  A    between atoms: C_1  and  C_2
REMARK    2  A    between atoms: C_4  and  C_27
REMARK    3  A    between atoms: N_5  and  C_9
REMARK    4  A    between atoms: C_9  and  C_10
REMARK    5  A    between atoms: C_10  and  N_11
REMARK    6  A    between atoms: N_11  and  C_12
REMARK    7  A    between atoms: C_12  and  C_13
REMARK    8  A    between atoms: N_15  and  C_22
REMARK    9  A    between atoms: C_22  and  C_23
REMARK   10  A    between atoms: C_23  and  C_24
REMARK                            x       y       z     vdW  Elec       q    Type
REMARK                         _______ _______ _______ _____ _____    ______ ____
ROOT
ATOM      1  C   UNL     1       0.276  -8.125  -2.874  0.00  0.00    -0.039 A 
ATOM      2  C   UNL     1       1.373  -8.875  -3.065  0.00  0.00    +0.088 A 
ATOM      3  N   UNL     1       1.047 -10.203  -3.006  0.00  0.00    -0.346 N 
ATOM      4  C   UNL     1      -0.302 -10.343  -2.768  0.00  0.00    +0.049 A 
ATOM      5  C   UNL     1      -0.843  -9.048  -2.669  0.00  0.00    +0.001 A 
ATOM      6  C   UNL     1      -2.207  -8.880  -2.423  0.00  0.00    +0.010 A 
ATOM      7  C   UNL     1      -3.010  -9.976  -2.275  0.00  0.00    +0.001 A 
ATOM      8  C   UNL     1      -2.480 -11.255  -2.368  0.00  0.00    +0.002 A 
ATOM      9  C   UNL     1      -1.139 -11.444  -2.620  0.00  0.00    +0.026 A 
ENDROOT
BRANCH   1  10
ATOM     10  C   UNL     1       0.210  -6.620  -2.865  0.00  0.00    -0.045 C 
BRANCH  10  11
ATOM     11  N   UNL     1       0.195  -6.138  -1.477  0.00  0.00    +0.383 N 
ATOM     12  H   UNL     1       1.035  -6.441  -1.007  0.00  0.00    -0.085 HD
ATOM     13  H   UNL     1      -0.611  -6.514  -1.000  0.00  0.00    -0.085 HD
BRANCH  11  14
ATOM     14  C   UNL     1       0.130  -4.671  -1.468  0.00  0.00    -0.060 C 
BRANCH  14  15
ATOM     15  C   UNL     1       0.115  -4.170  -0.023  0.00  0.00    +0.107 C 
BRANCH  15  20
ATOM     16  C   UNL     1      -0.018   1.503   0.010  0.00  0.00    +0.066 C 
ATOM     17  C   UNL     1       0.002  -0.004   0.002  0.00  0.00    +0.045 A 
ATOM     18  C   UNL     1      -1.198  -0.721   0.004  0.00  0.00    +0.044 A 
ATOM     19  C   UNL     1      -1.156  -2.081  -0.004  0.00  0.00    +0.022 A 
ATOM     20  N   UNL     1       0.050  -2.706  -0.014  0.00  0.00    -0.298 N 
ATOM     21  C   UNL     1       1.186  -1.984  -0.015  0.00  0.00    +0.349 A 
ATOM     22  O   UNL     1       2.263  -2.557  -0.023  0.00  0.00    -0.244 OA
ATOM     23  N   UNL     1       1.151  -0.649  -0.012  0.00  0.00    -0.198 NA
ATOM     24  C   UNL     1      -2.431  -2.884  -0.002  0.00  0.00    +0.064 C 
ENDBRANCH  15  20
ENDBRANCH  14  15
ENDBRANCH  11  14
ENDBRANCH  10  11
ENDBRANCH   1  10
BRANCH   3  25
ATOM     25  C   UNL     1       1.992 -11.309  -3.170  0.00  0.00    +0.131 C 
BRANCH  25  26
ATOM     26  C   UNL     1       1.980 -11.779  -4.626  0.00  0.00    +0.117 C 
BRANCH  26  27
ATOM     27  C   UNL     1       2.953 -12.918  -4.795  0.00  0.00    +0.212 C 
ATOM     28  O   UNL     1       3.593 -13.315  -3.844  0.00  0.00    -0.276 OA
ATOM     29  N   UNL     1       3.111 -13.495  -6.002  0.00  0.00    -0.329 N 
ATOM     30  H   UNL     1       2.599 -13.178  -6.762  0.00  0.00    +0.145 HD
ATOM     31  H   UNL     1       3.737 -14.228  -6.111  0.00  0.00    +0.145 HD
ENDBRANCH  26  27
ENDBRANCH  25  26
ENDBRANCH   3  25
TORSDOF 8
