REMARK  Name = ZINC45454626
REMARK  12 active torsions:
REMARK  status: ('A' for Active; 'I' for Inactive)
REMARK    1  A    between atoms: C_1  and  C_2
REMARK    2  A    between atoms: N_5  and  C_11
REMARK    3  A    between atoms: C_7  and  C_10
REMARK    4  A    between atoms: C_11  and  C_12
REMARK    5  A    between atoms: C_12  and  C_13
REMARK    6  A    between atoms: C_13  and  N_14
REMARK    7  A    between atoms: C_20  and  N_23
REMARK    8  A    between atoms: C_24  and  O_26
REMARK    9  A    between atoms: O_26  and  C_27
REMARK   10  A    between atoms: C_27  and  C_28
REMARK   11  A    between atoms: C_27  and  C_29
REMARK   12  A    between atoms: C_27  and  C_30
REMARK                            x       y       z     vdW  Elec       q    Type
REMARK                         _______ _______ _______ _____ _____    ______ ____
ROOT
ATOM      1  N   UNL     1       6.708  -0.587  -5.835  0.00  0.00    -0.299 N 
ATOM      2  C   UNL     1       7.078   0.246  -4.841  0.00  0.00    +0.302 C 
ATOM      3  O   UNL     1       6.292   0.520  -3.954  0.00  0.00    -0.253 OA
ATOM      4  N   UNL     1       8.318   0.774  -4.831  0.00  0.00    -0.286 N 
ATOM      5  C   UNL     1       8.774   1.589  -3.697  0.00  0.00    +0.111 C 
ATOM      6  C   UNL     1      10.094   1.012  -3.175  0.00  0.00    +0.041 C 
ATOM      7  C   UNL     1      11.097   0.920  -4.327  0.00  0.00    +0.079 C 
ATOM      8  C   UNL     1      10.552  -0.019  -5.406  0.00  0.00    +0.041 C 
ATOM      9  C   UNL     1       9.240   0.541  -5.950  0.00  0.00    +0.111 C 
ATOM     10  H   UNL     1       7.308  -0.748  -6.580  0.00  0.00    +0.150 HD
ENDROOT
BRANCH   7  11
ATOM     11  N   UNL     1      12.371   0.399  -3.825  0.00  0.00    -0.278 N 
ATOM     12  C   UNL     1      13.518   0.685  -4.472  0.00  0.00    +0.401 C 
ATOM     13  O   UNL     1      13.496   1.374  -5.472  0.00  0.00    -0.226 OA
ATOM     14  H   UNL     1      12.389  -0.151  -3.026  0.00  0.00    +0.152 HD
BRANCH  12  15
ATOM     15  O   UNL     1      14.689   0.206  -4.010  0.00  0.00    -0.445 OA
BRANCH  15  16
ATOM     16  C   UNL     1      15.865   0.549  -4.746  0.00  0.00    +0.107 C 
ATOM     17  C   UNL     1      16.025   2.070  -4.773  0.00  0.00    +0.055 C 
ATOM     18  C   UNL     1      17.087  -0.080  -4.075  0.00  0.00    +0.055 C 
ATOM     19  C   UNL     1      15.742   0.023  -6.177  0.00  0.00    +0.055 C 
ENDBRANCH  15  16
ENDBRANCH  12  15
ENDBRANCH   7  11
BRANCH   1  20
ATOM     20  C   UNL     1       5.402  -1.248  -5.788  0.00  0.00    +0.107 C 
BRANCH  20  21
ATOM     21  C   UNL     1       5.233  -2.131  -7.026  0.00  0.00    +0.034 C 
BRANCH  21  22
ATOM     22  C   UNL     1       3.869  -2.822  -6.978  0.00  0.00    +0.086 C 
BRANCH  22  26
ATOM     23  C   UNL     1       3.641  -6.360  -9.323  0.00  0.00    +0.039 C 
ATOM     24  C   UNL     1       2.423  -5.436  -9.273  0.00  0.00    +0.130 C 
ATOM     25  C   UNL     1       2.520  -4.529  -8.043  0.00  0.00    +0.115 C 
ATOM     26  N   UNL     1       3.707  -3.670  -8.166  0.00  0.00    -0.297 NA
ATOM     27  C   UNL     1       3.636  -2.856  -9.389  0.00  0.00    +0.115 C 
ATOM     28  C   UNL     1       3.528  -3.780 -10.605  0.00  0.00    +0.130 C 
ATOM     29  O   UNL     1       2.387  -4.629 -10.453  0.00  0.00    -0.371 OA
ATOM     30  C   UNL     1       3.375  -2.938 -11.873  0.00  0.00    +0.039 C 
ENDBRANCH  22  26
ENDBRANCH  21  22
ENDBRANCH  20  21
ENDBRANCH   1  20
TORSDOF 7
