REMARK  Name = ZINC35191054
REMARK  10 active torsions:
REMARK  status: ('A' for Active; 'I' for Inactive)
REMARK    1  A    between atoms: C_1  and  C_2
REMARK    2  A    between atoms: C_2  and  C_39
REMARK    3  A    between atoms: C_7  and  C_11
REMARK    4  A    between atoms: C_11  and  S_12
REMARK    5  A    between atoms: S_12  and  O_15
REMARK    6  A    between atoms: O_15  and  C_16
REMARK    7  A    between atoms: C_19  and  C_22
REMARK    8  A    between atoms: C_23  and  N_31
REMARK    9  A    between atoms: N_31  and  C_32
REMARK   10  A    between atoms: C_32  and  C_33
REMARK                            x       y       z     vdW  Elec       q    Type
REMARK                         _______ _______ _______ _____ _____    ______ ____
ROOT
ATOM      1  C   UNL     1       4.598   0.681   3.240  0.00  0.00    +0.156 A 
ATOM      2  C   UNL     1       4.622   1.673   2.270  0.00  0.00    +0.049 A 
ATOM      3  C   UNL     1       4.841   2.987   2.630  0.00  0.00    +0.014 A 
ATOM      4  C   UNL     1       5.038   3.317   3.970  0.00  0.00    +0.004 A 
ATOM      5  C   UNL     1       5.013   2.317   4.942  0.00  0.00    +0.014 A 
ATOM      6  C   UNL     1       4.788   1.006   4.575  0.00  0.00    +0.049 A 
ENDROOT
BRANCH   4   7
ATOM      7  C   UNL     1       5.274   4.727   4.361  0.00  0.00    +0.112 A 
ATOM      8  C   UNL     1       4.843   5.328   5.524  0.00  0.00    +0.131 A 
ATOM      9  N   UNL     1       5.274   6.625   5.483  0.00  0.00    -0.288 N 
ATOM     10  C   UNL     1       5.138   7.670   6.357  0.00  0.00    +0.094 A 
ATOM     11  C   UNL     1       5.670   8.876   6.073  0.00  0.00    +0.018 A 
ATOM     12  C   UNL     1       6.375   9.076   4.873  0.00  0.00    +0.005 A 
ATOM     13  C   UNL     1       6.519   8.049   3.994  0.00  0.00    +0.047 A 
ATOM     14  C   UNL     1       5.958   6.792   4.301  0.00  0.00    +0.140 A 
ATOM     15  N   UNL     1       5.952   5.643   3.645  0.00  0.00    -0.226 NA
BRANCH   8  16
ATOM     16  N   UNL     1       4.106   4.728   6.548  0.00  0.00    -0.324 N 
ATOM     17  H   UNL     1       3.849   3.795   6.477  0.00  0.00    +0.148 HD
BRANCH  16  18
ATOM     18  C   UNL     1       3.722   5.507   7.727  0.00  0.00    +0.138 C 
BRANCH  18  19
ATOM     19  C   UNL     1       2.940   4.633   8.673  0.00  0.00    -0.030 A 
ATOM     20  C   UNL     1       1.565   4.549   8.560  0.00  0.00    +0.005 A 
ATOM     21  C   UNL     1       0.848   3.747   9.428  0.00  0.00    +0.000 A 
ATOM     22  C   UNL     1       1.505   3.029  10.409  0.00  0.00    +0.000 A 
ATOM     23  C   UNL     1       2.881   3.112  10.522  0.00  0.00    +0.000 A 
ATOM     24  C   UNL     1       3.598   3.911   9.651  0.00  0.00    +0.005 A 
ENDBRANCH  18  19
ENDBRANCH  16  18
ENDBRANCH   8  16
ENDBRANCH   4   7
BRANCH   1  25
ATOM     25  O   UNL     1       4.383  -0.613   2.881  0.00  0.00    -0.346 OA
BRANCH  25  26
ATOM     26  S   UNL     1       2.915  -1.015   2.867  0.00  0.00    +0.122 S 
ATOM     27  O   UNL     1       2.360  -0.403   4.024  0.00  0.00    -0.137 OA
ATOM     28  O   UNL     1       2.928  -2.429   2.732  0.00  0.00    -0.137 OA
BRANCH  26  29
ATOM     29  C   UNL     1       2.236  -0.250   1.369  0.00  0.00    +0.225 C 
BRANCH  29  35
ATOM     30  C   UNL     1      -0.019   1.526   0.010  0.00  0.00    +0.012 C 
ATOM     31  C   UNL     1       0.002  -0.004   0.002  0.00  0.00    -0.018 C 
ATOM     32  C   UNL     1      -1.400  -0.616   0.356  0.00  0.00    +0.003 C 
ATOM     33  C   UNL     1      -1.598  -0.063   1.801  0.00  0.00    +0.005 C 
ATOM     34  C   UNL     1      -0.174  -0.040   2.404  0.00  0.00    +0.017 C 
ATOM     35  C   UNL     1       0.749  -0.591   1.251  0.00  0.00    +0.057 C 
ATOM     36  C   UNL     1       0.397  -2.080   1.125  0.00  0.00    +0.142 C 
ATOM     37  O   UNL     1       1.089  -3.024   1.423  0.00  0.00    -0.297 OA
ATOM     38  C   UNL     1      -1.009  -2.114   0.545  0.00  0.00    +0.079 C 
ATOM     39  C   UNL     1       0.557  -0.556  -1.312  0.00  0.00    +0.012 C 
ENDBRANCH  29  35
ENDBRANCH  26  29
ENDBRANCH  25  26
ENDBRANCH   1  25
TORSDOF 8
