REMARK  Name = ZINC58949896
REMARK  6 active torsions:
REMARK  status: ('A' for Active; 'I' for Inactive)
REMARK    1  A    between atoms: C_1  and  C_2
REMARK    2  A    between atoms: C_2  and  C_26
REMARK    3  A    between atoms: C_6  and  C_15
REMARK    4  A    between atoms: C_8  and  C_12
REMARK    5  A    between atoms: C_9  and  N_11
REMARK    6  A    between atoms: C_18  and  N_20
REMARK                            x       y       z     vdW  Elec       q    Type
REMARK                         _______ _______ _______ _____ _____    ______ ____
ROOT
ATOM      1  C   UNL     1      -0.037   1.530  -0.045  0.00  0.00    +0.012 C 
ATOM      2  C   UNL     1      -0.005   0.000  -0.017  0.00  0.00    -0.021 C 
ATOM      3  C   UNL     1       0.747  -0.521  -1.243  0.00  0.00    +0.081 C 
ATOM      4  C   UNL     1       2.169  -0.015  -1.220  0.00  0.00    +0.115 C 
ATOM      5  C   UNL     1       2.800   0.211  -0.053  0.00  0.00    +0.046 C 
ATOM      6  C   UNL     1       4.224   0.711  -0.033  0.00  0.00    +0.102 C 
ATOM      7  C   UNL     1       4.587   1.301  -1.367  0.00  0.00    +0.083 C 
ATOM      8  C   UNL     1       3.850   1.016  -2.470  0.00  0.00    +0.193 C 
ATOM      9  O   UNL     1       2.784   0.201  -2.399  0.00  0.00    -0.446 OA
ATOM     10  C   UNL     1       2.156  -0.006   1.180  0.00  0.00    +0.164 C 
ATOM     11  O   UNL     1       2.764   0.190   2.213  0.00  0.00    -0.292 OA
ATOM     12  C   UNL     1       0.728  -0.477   1.241  0.00  0.00    +0.086 C 
ATOM     13  C   UNL     1      -1.435  -0.544  -0.016  0.00  0.00    +0.012 C 
ENDROOT
BRANCH   7  14
ATOM     14  C   UNL     1       5.699   2.156  -1.472  0.00  0.00    +0.243 C 
ATOM     15  O   UNL     1       5.609   3.319  -1.120  0.00  0.00    -0.271 OA
ATOM     16  N   UNL     1       6.864   1.689  -1.963  0.00  0.00    -0.325 N 
ATOM     17  H   UNL     1       6.936   0.763  -2.243  0.00  0.00    +0.145 HD
ATOM     18  H   UNL     1       7.631   2.278  -2.035  0.00  0.00    +0.145 HD
ENDBRANCH   7  14
BRANCH   6  19
ATOM     19  C   UNL     1       5.152  -0.438   0.270  0.00  0.00    +0.004 A 
ATOM     20  C   UNL     1       6.012  -0.590   1.306  0.00  0.00    +0.014 A 
ATOM     21  C   UNL     1       6.773  -1.741   1.382  0.00  0.00    +0.041 A 
ATOM     22  C   UNL     1       6.637  -2.684   0.418  0.00  0.00    +0.164 A 
ATOM     23  S   UNL     1       5.397  -1.955  -0.640  0.00  0.00    -0.069 S 
BRANCH  22  24
ATOM     24  N   UNL     1       7.333  -3.984   0.280  0.00  0.00    +0.063 N 
ATOM     25  O   UNL     1       8.150  -4.322   1.103  0.00  0.00    -0.126 OA
ATOM     26  O   UNL     1       7.083  -4.707  -0.656  0.00  0.00    -0.126 OA
ENDBRANCH  22  24
ENDBRANCH   6  19
BRANCH   8  27
ATOM     27  N   UNL     1       4.197   1.568  -3.674  0.00  0.00    -0.329 N 
ATOM     28  H   UNL     1       5.008   2.096  -3.750  0.00  0.00    +0.145 HD
ATOM     29  H   UNL     1       3.633   1.431  -4.451  0.00  0.00    +0.145 HD
ENDBRANCH   8  27
TORSDOF 4
