REMARK  Name = ZINC15952280
REMARK  5 active torsions:
REMARK  status: ('A' for Active; 'I' for Inactive)
REMARK    1  A    between atoms: C_1  and  N_2
REMARK    2  A    between atoms: N_7  and  C_10
REMARK    3  A    between atoms: C_13  and  C_14
REMARK    4  A    between atoms: N_15  and  C_16
REMARK    5  A    between atoms: N_25  and  C_26
REMARK                            x       y       z     vdW  Elec       q    Type
REMARK                         _______ _______ _______ _____ _____    ______ ____
ROOT
ATOM      1  C   UNL     1      -0.018   1.460   0.010  0.00  0.00    +0.155 C 
ATOM      2  N   UNL     1       0.002  -0.004   0.002  0.00  0.00    -0.282 N 
ATOM      3  C   UNL     1      -1.126  -0.767  -0.001  0.00  0.00    +0.136 A 
ATOM      4  C   UNL     1      -0.985  -2.100  -0.446  0.00  0.00    +0.128 A 
ATOM      5  C   UNL     1       0.359  -2.644  -0.656  0.00  0.00    +0.269 A 
ATOM      6  O   UNL     1       0.524  -3.768  -1.090  0.00  0.00    -0.267 OA
ATOM      7  N   UNL     1       1.417  -1.863  -0.344  0.00  0.00    -0.263 N 
ATOM      8  C   UNL     1       1.224  -0.581  -0.013  0.00  0.00    +0.333 A 
ATOM      9  O   UNL     1       2.182   0.102   0.291  0.00  0.00    -0.246 OA
ATOM     10  C   UNL     1       2.770  -2.422  -0.372  0.00  0.00    +0.157 C 
ATOM     11  C   UNL     1      -2.124  -2.878  -0.736  0.00  0.00    +0.208 A 
ATOM     12  O   UNL     1      -2.001  -4.156  -1.160  0.00  0.00    -0.286 OA
ATOM     13  C   UNL     1      -3.392  -2.300  -0.575  0.00  0.00    +0.105 A 
ATOM     14  C   UNL     1      -3.469  -0.996  -0.032  0.00  0.00    +0.265 A 
ATOM     15  O   UNL     1      -4.540  -0.425   0.045  0.00  0.00    -0.267 OA
ATOM     16  N   UNL     1      -2.352  -0.382   0.418  0.00  0.00    -0.296 N 
ATOM     17  C   UNL     1      -2.553   0.634   1.457  0.00  0.00    +0.154 C 
ENDROOT
BRANCH  13  18
ATOM     18  C   UNL     1      -4.603  -3.039  -0.928  0.00  0.00    +0.128 C 
ATOM     19  N   UNL     1      -5.776  -2.484  -0.771  0.00  0.00    -0.255 NA
BRANCH  19  20
ATOM     20  C   UNL     1      -6.910  -3.176  -1.101  0.00  0.00    +0.064 A 
ATOM     21  C   UNL     1      -6.971  -3.892  -2.299  0.00  0.00    +0.030 A 
ATOM     22  C   UNL     1      -8.116  -4.588  -2.626  0.00  0.00    +0.040 A 
ATOM     23  C   UNL     1      -9.205  -4.577  -1.770  0.00  0.00    +0.124 A 
ATOM     24  C   UNL     1      -9.151  -3.868  -0.580  0.00  0.00    +0.040 A 
ATOM     25  C   UNL     1      -8.009  -3.174  -0.239  0.00  0.00    +0.030 A 
ATOM     26  F   UNL     1     -10.324  -5.260  -2.095  0.00  0.00    -0.205 F 
ENDBRANCH  19  20
ENDBRANCH  13  18
TORSDOF 2
