REMARK  Name = ZINC11786521
REMARK  10 active torsions:
REMARK  status: ('A' for Active; 'I' for Inactive)
REMARK    1  A    between atoms: C_1  and  C_2
REMARK    2  A    between atoms: C_2  and  C_17
REMARK    3  A    between atoms: N_5  and  C_9
REMARK    4  A    between atoms: C_9  and  C_10
REMARK    5  A    between atoms: C_22  and  C_23
REMARK    6  A    between atoms: C_22  and  N_67
REMARK    7  A    between atoms: C_24  and  C_25
REMARK    8  A    between atoms: C_28  and  N_31
REMARK    9  A    between atoms: N_31  and  C_32
REMARK   10  A    between atoms: N_31  and  C_33
REMARK                            x       y       z     vdW  Elec       q    Type
REMARK                         _______ _______ _______ _____ _____    ______ ____
ROOT
ATOM      1  C   UNL     1      -2.085   1.831  -1.241  0.00  0.00    +0.018 C 
ATOM      2  C   UNL     1      -1.247   2.154  -2.482  0.00  0.00    -0.013 C 
ATOM      3  C   UNL     1      -2.117   2.004  -3.732  0.00  0.00    -0.078 C 
ATOM      4  C   UNL     1      -4.110   2.594  -2.487  0.00  0.00    -0.078 C 
ATOM      5  C   UNL     1      -3.300   2.762  -1.199  0.00  0.00    -0.013 C 
ATOM      6  N   UNL     1      -3.255   2.943  -3.641  0.00  0.00    +0.382 N 
ATOM      7  H   UNL     1      -2.892   3.895  -3.510  0.00  0.00    -0.081 HD
ENDROOT
BRANCH   1   9
ATOM      8  C   UNL     1      -2.074   1.800   1.275  0.00  0.00    +0.042 C 
ATOM      9  C   UNL     1      -1.238   2.039   0.016  0.00  0.00    +0.112 C 
ATOM     10  C   UNL     1      -0.027   1.128  -0.000  0.00  0.00    +0.247 C 
ATOM     11  O   UNL     1      -0.023  -0.085  -0.016  0.00  0.00    -0.273 OA
ATOM     12  N   UNL     1       1.044   1.946   0.000  0.00  0.00    -0.220 N 
ATOM     13  C   UNL     1       0.681   3.233   0.019  0.00  0.00    +0.310 C 
ATOM     14  O   UNL     1       1.471   4.157   0.023  0.00  0.00    -0.252 OA
ATOM     15  N   UNL     1      -0.654   3.391   0.033  0.00  0.00    -0.285 N 
ATOM     16  H   UNL     1      -1.139   4.231   0.047  0.00  0.00    +0.151 HD
BRANCH  12  17
ATOM     17  C   UNL     1       2.434   1.482  -0.019  0.00  0.00    +0.153 C 
BRANCH  17  18
ATOM     18  C   UNL     1       2.897   1.341  -1.446  0.00  0.00    -0.029 A 
ATOM     19  C   UNL     1       2.735   0.139  -2.109  0.00  0.00    +0.008 A 
ATOM     20  C   UNL     1       3.154   0.011  -3.420  0.00  0.00    +0.038 A 
ATOM     21  C   UNL     1       3.747   1.083  -4.065  0.00  0.00    +0.123 A 
ATOM     22  C   UNL     1       3.913   2.285  -3.398  0.00  0.00    +0.038 A 
ATOM     23  C   UNL     1       3.488   2.413  -2.089  0.00  0.00    +0.008 A 
ATOM     24  F   UNL     1       4.163   0.956  -5.344  0.00  0.00    -0.205 F 
ENDBRANCH  17  18
ENDBRANCH  12  17
ENDBRANCH   1   9
BRANCH   6  25
ATOM     25  C   UNL     1      -4.046   2.899  -4.888  0.00  0.00    -0.051 C 
BRANCH  25  26
ATOM     26  C   UNL     1      -3.114   2.987  -6.068  0.00  0.00    -0.045 C 
ATOM     27  C   UNL     1      -3.161   2.066  -7.021  0.00  0.00    +0.002 C 
BRANCH  27  28
ATOM     28  C   UNL     1      -2.247   2.153  -8.178  0.00  0.00    -0.025 A 
ATOM     29  C   UNL     1      -1.336   3.207  -8.273  0.00  0.00    +0.010 A 
ATOM     30  C   UNL     1      -0.482   3.283  -9.351  0.00  0.00    +0.023 A 
ATOM     31  C   UNL     1      -0.532   2.316 -10.350  0.00  0.00    +0.029 A 
ATOM     32  C   UNL     1      -1.442   1.268 -10.261  0.00  0.00    +0.023 A 
ATOM     33  C   UNL     1      -2.295   1.184  -9.182  0.00  0.00    +0.010 A 
BRANCH  31  34
ATOM     34  N   UNL     1       0.330   2.399 -11.443  0.00  0.00    -0.336 N 
ATOM     35  C   UNL     1       0.366   1.318 -12.431  0.00  0.00    +0.129 C 
ATOM     36  C   UNL     1       1.200   3.567 -11.603  0.00  0.00    +0.129 C 
ENDBRANCH  31  34
ENDBRANCH  27  28
ENDBRANCH  25  26
ENDBRANCH   6  25
TORSDOF 7
