REMARK  Name = ZINC06410268
REMARK  9 active torsions:
REMARK  status: ('A' for Active; 'I' for Inactive)
REMARK    1  A    between atoms: C_1  and  C_2
REMARK    2  A    between atoms: C_7  and  C_15
REMARK    3  A    between atoms: C_13  and  C_14
REMARK    4  A    between atoms: C_15  and  N_64
REMARK    5  A    between atoms: C_16  and  C_17
REMARK    6  A    between atoms: C_16  and  N_64
REMARK    7  A    between atoms: N_21  and  C_22
REMARK    8  A    between atoms: C_27  and  C_28
REMARK    9  A    between atoms: C_27  and  N_64
REMARK                            x       y       z     vdW  Elec       q    Type
REMARK                         _______ _______ _______ _____ _____    ______ ____
ROOT
ATOM      1  N   UNL     1      -2.251   3.545   3.193  0.00  0.00    +0.389 N 
ATOM      2  H   UNL     1      -1.641   4.223   2.722  0.00  0.00    -0.081 HD
ENDROOT
BRANCH   1   3
ATOM      3  C   UNL     1      -3.276   4.276   3.967  0.00  0.00    -0.037 C 
BRANCH   3  10
ATOM      4  C   UNL     1      -6.686   9.784  -0.686  0.00  0.00    +0.044 C 
ATOM      5  C   UNL     1      -6.221   8.606   0.131  0.00  0.00    -0.046 A 
ATOM      6  C   UNL     1      -6.965   7.434   0.133  0.00  0.00    +0.004 A 
ATOM      7  C   UNL     1      -6.561   6.355   0.867  0.00  0.00    +0.010 A 
ATOM      8  C   UNL     1      -5.387   6.432   1.623  0.00  0.00    -0.001 A 
ATOM      9  C   UNL     1      -4.925   5.295   2.421  0.00  0.00    +0.017 A 
ATOM     10  C   UNL     1      -3.779   5.427   3.135  0.00  0.00    +0.001 A 
ATOM     11  C   UNL     1      -3.060   6.641   3.106  0.00  0.00    +0.251 A 
ATOM     12  O   UNL     1      -2.035   6.740   3.758  0.00  0.00    -0.268 OA
ATOM     13  N   UNL     1      -3.473   7.689   2.371  0.00  0.00    -0.322 N 
ATOM     14  H   UNL     1      -2.953   8.507   2.371  0.00  0.00    +0.169 HD
ATOM     15  C   UNL     1      -4.630   7.619   1.624  0.00  0.00    +0.052 A 
ATOM     16  C   UNL     1      -5.061   8.704   0.869  0.00  0.00    -0.024 A 
ATOM     17  C   UNL     1      -4.264   9.983   0.858  0.00  0.00    +0.046 C 
ENDBRANCH   3  10
ENDBRANCH   1   3
BRANCH   1  18
ATOM     18  C   UNL     1      -1.432   2.712   4.099  0.00  0.00    +0.001 C 
BRANCH  18  19
ATOM     19  C   UNL     1      -0.238   2.196   3.338  0.00  0.00    +0.135 A 
ATOM     20  N   UNL     1      -0.183   1.105   2.614  0.00  0.00    -0.115 NA
ATOM     21  N   UNL     1       1.005   1.011   2.125  0.00  0.00    -0.023 NA
ATOM     22  N   UNL     1       1.712   2.011   2.524  0.00  0.00    -0.044 NA
ATOM     23  N   UNL     1       0.981   2.764   3.274  0.00  0.00    -0.228 N 
BRANCH  23  24
ATOM     24  C   UNL     1       1.398   4.004   3.932  0.00  0.00    +0.111 C 
ATOM     25  C   UNL     1       1.903   5.016   2.882  0.00  0.00    +0.027 C 
ATOM     26  C   UNL     1       3.088   5.728   3.582  0.00  0.00    +0.002 C 
ATOM     27  C   UNL     1       3.760   4.579   4.373  0.00  0.00    +0.002 C 
ATOM     28  C   UNL     1       2.578   3.727   4.880  0.00  0.00    +0.027 C 
ENDBRANCH  23  24
ENDBRANCH  18  19
ENDBRANCH   1  18
BRANCH   1  29
ATOM     29  C   UNL     1      -2.900   2.694   2.173  0.00  0.00    -0.046 C 
BRANCH  29  30
ATOM     30  C   UNL     1      -3.709   1.579   2.840  0.00  0.00    +0.102 C 
ATOM     31  C   UNL     1      -4.239   0.581   1.780  0.00  0.00    +0.032 C 
ATOM     32  C   UNL     1      -5.473  -0.024   2.494  0.00  0.00    +0.030 C 
ATOM     33  C   UNL     1      -5.831   1.014   3.575  0.00  0.00    +0.160 C 
ATOM     34  O   UNL     1      -4.912   2.111   3.438  0.00  0.00    -0.378 OA
ENDBRANCH  29  30
ENDBRANCH   1  29
TORSDOF 7
