REMARK  Name = ZINC35918073
REMARK  15 active torsions:
REMARK  status: ('A' for Active; 'I' for Inactive)
REMARK    1  A    between atoms: C_1  and  C_2
REMARK    2  A    between atoms: C_2  and  C_3
REMARK    3  A    between atoms: C_2  and  C_4
REMARK    4  A    between atoms: C_4  and  N_5
REMARK    5  A    between atoms: N_5  and  C_6
REMARK    6  A    between atoms: C_6  and  C_7
REMARK    7  A    between atoms: N_10  and  C_22
REMARK    8  A    between atoms: C_12  and  C_14
REMARK    9  A    between atoms: C_19  and  O_20
REMARK   10  A    between atoms: O_20  and  C_21
REMARK   11  A    between atoms: C_22  and  C_23
REMARK   12  A    between atoms: C_28  and  O_29
REMARK   13  A    between atoms: C_30  and  C_32
REMARK   14  A    between atoms: C_32  and  C_33
REMARK   15  A    between atoms: C_32  and  C_34
REMARK                            x       y       z     vdW  Elec       q    Type
REMARK                         _______ _______ _______ _____ _____    ______ ____
ROOT
ATOM      1  C   UNL     1      -0.319  -1.291   5.131  0.00  0.00    -0.005 C 
ATOM      2  C   UNL     1       0.017  -0.081   6.029  0.00  0.00    -0.073 C 
ATOM      3  N   UNL     1      -1.137   0.027   6.959  0.00  0.00    +0.383 N 
ATOM      4  C   UNL     1      -1.471  -1.382   7.291  0.00  0.00    -0.070 C 
ATOM      5  C   UNL     1      -1.297  -2.149   5.960  0.00  0.00    +0.009 C 
ATOM      6  H   UNL     1      -1.917   0.476   6.503  0.00  0.00    -0.081 HD
ENDROOT
BRANCH   5   7
ATOM      7  C   UNL     1      -0.710  -3.514   6.212  0.00  0.00    -0.004 A 
ATOM      8  C   UNL     1       0.481  -3.638   6.901  0.00  0.00    +0.007 A 
ATOM      9  C   UNL     1       1.020  -4.890   7.133  0.00  0.00    +0.001 A 
ATOM     10  C   UNL     1       0.368  -6.021   6.677  0.00  0.00    +0.004 A 
ATOM     11  C   UNL     1      -0.823  -5.902   5.988  0.00  0.00    +0.046 A 
ATOM     12  C   UNL     1      -1.369  -4.647   5.758  0.00  0.00    +0.123 A 
BRANCH  12  13
ATOM     13  O   UNL     1      -2.543  -4.529   5.086  0.00  0.00    -0.495 OA
ATOM     14  C   UNL     1      -3.166  -5.738   4.648  0.00  0.00    +0.277 C 
ENDBRANCH  12  13
ENDBRANCH   5   7
BRANCH   1  15
ATOM     15  C   UNL     1      -0.988  -0.822   3.837  0.00  0.00    +0.110 C 
BRANCH  15  16
ATOM     16  N   UNL     1      -0.018  -0.082   3.026  0.00  0.00    -0.301 N 
ATOM     17  C   UNL     1       0.109   1.251   3.178  0.00  0.00    +0.218 C 
ATOM     18  O   UNL     1      -0.666   1.857   3.887  0.00  0.00    -0.275 OA
BRANCH  17  19
ATOM     19  C   UNL     1       1.214   1.989   2.466  0.00  0.00    +0.069 C 
ATOM     20  C   UNL     1       0.728   2.421   1.081  0.00  0.00    +0.017 C 
ATOM     21  C   UNL     1       1.607   3.224   3.277  0.00  0.00    +0.017 C 
ENDBRANCH  17  19
BRANCH  16  22
ATOM     22  C   UNL     1       0.814  -0.791   2.051  0.00  0.00    +0.110 C 
BRANCH  22  24
ATOM     23  C   UNL     1      -0.919  -0.463   0.281  0.00  0.00    +0.009 C 
ATOM     24  C   UNL     1      -0.084  -1.500   1.034  0.00  0.00    +0.000 C 
ATOM     25  C   UNL     1       0.784  -2.276   0.041  0.00  0.00    +0.009 C 
ENDBRANCH  22  24
ENDBRANCH  16  22
ENDBRANCH  15  16
ENDBRANCH   1  15
BRANCH   3  26
ATOM     26  C   UNL     1      -0.753   0.763   8.171  0.00  0.00    -0.039 C 
BRANCH  26  27
ATOM     27  C   UNL     1      -1.967   0.966   9.041  0.00  0.00    -0.022 A 
ATOM     28  C   UNL     1      -2.633   2.176   9.027  0.00  0.00    +0.005 A 
ATOM     29  C   UNL     1      -3.747   2.363   9.825  0.00  0.00    +0.000 A 
ATOM     30  C   UNL     1      -4.196   1.339  10.639  0.00  0.00    +0.004 A 
ATOM     31  C   UNL     1      -3.534   0.127  10.656  0.00  0.00    +0.045 A 
ATOM     32  C   UNL     1      -2.420  -0.064   9.852  0.00  0.00    +0.118 A 
BRANCH  32  33
ATOM     33  O   UNL     1      -1.770  -1.258   9.863  0.00  0.00    -0.507 OA
ATOM     34  H   UNL     1      -1.063  -1.315  10.521  0.00  0.00    +0.292 HD
ENDBRANCH  32  33
ENDBRANCH  26  27
ENDBRANCH   3  26
TORSDOF 10
