REMARK  Name = ZINC49334155
REMARK  9 active torsions:
REMARK  status: ('A' for Active; 'I' for Inactive)
REMARK    1  A    between atoms: C_1  and  C_2
REMARK    2  A    between atoms: C_2  and  C_3
REMARK    3  A    between atoms: C_2  and  C_4
REMARK    4  A    between atoms: C_2  and  O_5
REMARK    5  A    between atoms: O_5  and  C_6
REMARK    6  A    between atoms: N_8  and  C_9
REMARK    7  A    between atoms: C_15  and  N_17
REMARK    8  A    between atoms: N_17  and  S_18
REMARK    9  A    between atoms: S_18  and  C_21
REMARK                            x       y       z     vdW  Elec       q    Type
REMARK                         _______ _______ _______ _____ _____    ______ ____
ROOT
ATOM      1  C   UNL     1       4.035  -0.071  -2.601  0.00  0.00    +0.095 C 
ATOM      2  C   UNL     1       4.953  -1.035  -1.847  0.00  0.00    +0.024 C 
ATOM      3  C   UNL     1       6.409  -0.603  -2.032  0.00  0.00    +0.002 C 
ATOM      4  C   UNL     1       6.761  -0.624  -3.521  0.00  0.00    +0.002 C 
ATOM      5  C   UNL     1       5.843   0.340  -4.275  0.00  0.00    +0.022 C 
ATOM      6  C   UNL     1       4.388  -0.092  -4.090  0.00  0.00    +0.096 C 
ENDROOT
BRANCH   1   9
ATOM      7  C   UNL     1       1.952  -0.085  -1.337  0.00  0.00    +0.401 C 
ATOM      8  O   UNL     1       2.488   0.619  -0.503  0.00  0.00    -0.226 OA
ATOM      9  N   UNL     1       2.641  -0.485  -2.424  0.00  0.00    -0.277 N 
ATOM     10  H   UNL     1       2.213  -1.047  -3.089  0.00  0.00    +0.152 HD
BRANCH   7  11
ATOM     11  O   UNL     1       0.671  -0.465  -1.174  0.00  0.00    -0.445 OA
BRANCH  11  13
ATOM     12  C   UNL     1      -0.019   1.526   0.010  0.00  0.00    +0.055 C 
ATOM     13  C   UNL     1       0.002  -0.004   0.002  0.00  0.00    +0.107 C 
ATOM     14  C   UNL     1       0.742  -0.511   1.242  0.00  0.00    +0.055 C 
ATOM     15  C   UNL     1      -1.433  -0.534   0.013  0.00  0.00    +0.055 C 
ENDBRANCH  11  13
ENDBRANCH   7  11
ENDBRANCH   1   9
BRANCH   6  16
ATOM     16  N   UNL     1       3.509   0.831  -4.813  0.00  0.00    -0.190 NA
ATOM     17  H   UNL     1       3.220   1.656  -4.392  0.00  0.00    +0.148 HD
BRANCH  16  18
ATOM     18  S   UNL     1       3.008   0.466  -6.348  0.00  0.00    +0.027 S 
ATOM     19  O   UNL     1       2.206   1.572  -6.741  0.00  0.00    -0.158 OA
ATOM     20  O   UNL     1       4.200   0.150  -7.053  0.00  0.00    -0.158 OA
ATOM     21  C   UNL     1       1.979  -1.017  -6.163  0.00  0.00    +0.214 C 
ENDBRANCH  16  18
ENDBRANCH   6  16
TORSDOF 5
