REMARK  Name = ZINC20520986
REMARK  6 active torsions:
REMARK  status: ('A' for Active; 'I' for Inactive)
REMARK    1  A    between atoms: C_1  and  C_2
REMARK    2  A    between atoms: C_3  and  S_9
REMARK    3  A    between atoms: C_4  and  C_8
REMARK    4  A    between atoms: S_9  and  N_12
REMARK    5  A    between atoms: N_12  and  C_13
REMARK    6  A    between atoms: C_18  and  N_19
REMARK                            x       y       z     vdW  Elec       q    Type
REMARK                         _______ _______ _______ _____ _____    ______ ____
ROOT
ATOM      1  N   UNL     1      -2.427   1.038   0.019  0.00  0.00    -0.214 N 
ATOM      2  H   UNL     1      -3.279   1.411  -0.567  0.00  0.00    +0.174 HD
ENDROOT
BRANCH   1   3
ATOM      3  C   UNL     1      -1.279   1.826   0.166  0.00  0.00    +0.069 A 
ATOM      4  C   UNL     1      -0.027   1.231   0.199  0.00  0.00    +0.027 A 
ATOM      5  C   UNL     1       1.106   2.011   0.338  0.00  0.00    +0.017 A 
ATOM      6  C   UNL     1       0.995   3.386   0.451  0.00  0.00    +0.020 A 
ATOM      7  C   UNL     1      -0.251   3.986   0.425  0.00  0.00    +0.040 A 
ATOM      8  C   UNL     1      -1.392   3.211   0.286  0.00  0.00    +0.048 A 
ATOM      9 BR   UNL     1       2.549   4.446   0.641  0.00  0.00    -0.050 Br
BRANCH   8  10
ATOM     10  N   UNL     1      -2.654   3.817   0.260  0.00  0.00    -0.356 N 
ATOM     11  H   UNL     1      -2.742   4.909   0.355  0.00  0.00    +0.142 HD
ATOM     12  H   UNL     1      -3.558   3.200   0.145  0.00  0.00    +0.142 HD
ENDBRANCH   8  10
ENDBRANCH   1   3
BRANCH   1  13
ATOM     13  S   UNL     1      -2.502  -0.457   0.729  0.00  0.00    +0.076 S 
ATOM     14  O   UNL     1      -3.811  -0.955   0.489  0.00  0.00    -0.150 OA
ATOM     15  O   UNL     1      -1.334  -1.157   0.323  0.00  0.00    -0.150 OA
BRANCH  13  18
ATOM     16  C   UNL     1      -4.855   0.036   2.967  0.00  0.00    +0.067 C 
ATOM     17  C   UNL     1      -3.392  -0.017   3.328  0.00  0.00    +0.060 A 
ATOM     18  C   UNL     1      -2.366  -0.215   2.469  0.00  0.00    +0.151 A 
ATOM     19  C   UNL     1      -1.178  -0.200   3.207  0.00  0.00    +0.087 A 
ATOM     20  N   UNL     1      -1.480   0.009   4.463  0.00  0.00    -0.177 NA
ATOM     21  N   UNL     1      -2.872   0.124   4.565  0.00  0.00    -0.280 N 
ATOM     22  H   UNL     1      -3.537   0.296   5.424  0.00  0.00    +0.189 HD
ATOM     23  C   UNL     1       0.210  -0.388   2.651  0.00  0.00    +0.069 C 
ENDBRANCH  13  18
ENDBRANCH   1  13
TORSDOF 4
