REMARK  Name = ZINC05122814
REMARK  5 active torsions:
REMARK  status: ('A' for Active; 'I' for Inactive)
REMARK    1  A    between atoms: C_1  and  C_2
REMARK    2  A    between atoms: C_9  and  N_14
REMARK    3  A    between atoms: C_10  and  C_11
REMARK    4  A    between atoms: C_20  and  S_24
REMARK    5  A    between atoms: S_24  and  C_25
REMARK                            x       y       z     vdW  Elec       q    Type
REMARK                         _______ _______ _______ _____ _____    ______ ____
ROOT
ATOM      1  C   UNL     1      -5.403  -0.738  -4.662  0.00  0.00    +0.008 C 
ATOM      2  C   UNL     1      -4.740  -0.020  -3.484  0.00  0.00    -0.009 C 
ATOM      3  C   UNL     1      -3.218  -0.087  -3.634  0.00  0.00    +0.008 C 
ATOM      4  C   UNL     1      -2.554   0.831  -2.605  0.00  0.00    +0.037 C 
ATOM      5  C   UNL     1      -3.100   0.495  -1.223  0.00  0.00    -0.023 A 
ATOM      6  C   UNL     1      -4.253  -0.193  -1.079  0.00  0.00    -0.004 A 
ATOM      7  S   UNL     1      -4.477  -0.341   0.670  0.00  0.00    -0.077 S 
ATOM      8  C   UNL     1      -3.057   0.494   1.206  0.00  0.00    +0.084 A 
ATOM      9  C   UNL     1      -2.446   0.874   0.018  0.00  0.00    +0.068 A 
ATOM     10  C   UNL     1      -5.139  -0.709  -2.171  0.00  0.00    +0.046 C 
ENDROOT
BRANCH   8  11
ATOM     11  N   UNL     1      -2.634   0.727   2.503  0.00  0.00    -0.288 N 
ATOM     12  C   UNL     1      -3.385   0.265   3.569  0.00  0.00    +0.164 A 
ATOM     13  N   UNL     1      -4.516  -0.401   3.551  0.00  0.00    -0.225 NA
ATOM     14  C   UNL     1      -5.143  -0.797   4.682  0.00  0.00    +0.080 A 
ATOM     15  C   UNL     1      -6.353  -1.519   4.801  0.00  0.00    +0.030 A 
ATOM     16  C   UNL     1      -6.861  -1.837   6.021  0.00  0.00    +0.017 A 
ATOM     17  C   UNL     1      -6.213  -1.469   7.199  0.00  0.00    +0.009 A 
ATOM     18  C   UNL     1      -5.021  -0.759   7.123  0.00  0.00    +0.032 A 
ATOM     19  C   UNL     1      -4.507  -0.436   5.892  0.00  0.00    +0.042 A 
ATOM     20  S   UNL     1      -3.066   0.430   5.320  0.00  0.00    -0.052 S 
ATOM     21  H   UNL     1      -1.811   1.214   2.665  0.00  0.00    +0.155 HD
BRANCH  17  22
ATOM     22  S   UNL     1      -6.898  -1.897   8.765  0.00  0.00    -0.129 S 
ATOM     23  C   UNL     1      -8.418  -2.796   8.349  0.00  0.00    +0.090 C 
ENDBRANCH  17  22
ENDBRANCH   8  11
BRANCH   9  24
ATOM     24  C   UNL     1      -1.187   1.624   0.017  0.00  0.00    +0.244 C 
ATOM     25  O   UNL     1      -1.204   2.841   0.023  0.00  0.00    -0.270 OA
ATOM     26  N   UNL     1      -0.011   0.966   0.007  0.00  0.00    -0.325 N 
ATOM     27  H   UNL     1       0.002  -0.004   0.002  0.00  0.00    +0.145 HD
ATOM     28  H   UNL     1       0.822   1.462   0.002  0.00  0.00    +0.145 HD
ENDBRANCH   9  24
TORSDOF 3
