REMARK  Name = ZINC43222833
REMARK  8 active torsions:
REMARK  status: ('A' for Active; 'I' for Inactive)
REMARK    1  A    between atoms: C_1  and  C_2
REMARK    2  A    between atoms: C_2  and  C_4
REMARK    3  A    between atoms: C_2  and  N_10
REMARK    4  A    between atoms: C_11  and  C_13
REMARK    5  A    between atoms: C_18  and  C_20
REMARK    6  A    between atoms: N_22  and  C_23
REMARK    7  A    between atoms: C_23  and  C_24
REMARK    8  A    between atoms: C_24  and  C_25
REMARK                            x       y       z     vdW  Elec       q    Type
REMARK                         _______ _______ _______ _____ _____    ______ ____
ROOT
ATOM      1  C   UNL     1       2.783  -1.099   2.395  0.00  0.00    +0.068 C 
ATOM      2  C   UNL     1       2.362  -2.549   2.715  0.00  0.00    -0.069 C 
ATOM      3  N   UNL     1       3.395  -3.392   2.060  0.00  0.00    +0.380 N 
ATOM      4  C   UNL     1       4.666  -2.662   2.298  0.00  0.00    -0.069 C 
ATOM      5  C   UNL     1       4.299  -1.171   2.121  0.00  0.00    +0.068 C 
ATOM      6  H   UNL     1       3.427  -4.306   2.487  0.00  0.00    -0.086 HD
ATOM      7  H   UNL     1       3.212  -3.470   1.071  0.00  0.00    -0.086 HD
ENDROOT
BRANCH   1   9
ATOM      8  N   UNL     1       0.711  -0.489   1.189  0.00  0.00    -0.312 N 
ATOM      9  C   UNL     1       2.054  -0.600   1.174  0.00  0.00    +0.215 C 
ATOM     10  O   UNL     1       2.676  -0.297   0.177  0.00  0.00    -0.276 OA
ATOM     11  H   UNL     1       0.213  -0.731   1.986  0.00  0.00    +0.149 HD
BRANCH   8  13
ATOM     12  C   UNL     1      -0.019   1.526   0.010  0.00  0.00    +0.028 C 
ATOM     13  C   UNL     1       0.002  -0.004   0.002  0.00  0.00    +0.073 C 
BRANCH  13  14
ATOM     14  C   UNL     1      -1.433  -0.534   0.013  0.00  0.00    +0.009 C 
ATOM     15  C   UNL     1      -1.413  -2.063   0.004  0.00  0.00    +0.005 C 
ATOM     16  C   UNL     1      -2.848  -2.593   0.015  0.00  0.00    +0.000 C 
ATOM     17  C   UNL     1      -3.588  -2.086  -1.224  0.00  0.00    +0.000 C 
ATOM     18  C   UNL     1      -3.609  -0.556  -1.216  0.00  0.00    +0.000 C 
ATOM     19  C   UNL     1      -2.173  -0.027  -1.227  0.00  0.00    +0.005 C 
ENDBRANCH  13  14
ENDBRANCH   8  13
ENDBRANCH   1   9
BRANCH   5  20
ATOM     20  C   UNL     1       5.051  -0.323   3.115  0.00  0.00    +0.215 C 
ATOM     21  O   UNL     1       4.446   0.288   3.970  0.00  0.00    -0.276 OA
ATOM     22  N   UNL     1       6.395  -0.245   3.054  0.00  0.00    -0.315 N 
ATOM     23  H   UNL     1       6.878  -0.734   2.370  0.00  0.00    +0.149 HD
BRANCH  22  24
ATOM     24  C   UNL     1       7.125   0.579   4.021  0.00  0.00    +0.109 C 
BRANCH  24  25
ATOM     25  C   UNL     1       8.626   0.494   3.732  0.00  0.00    +0.055 C 
BRANCH  25  26
ATOM     26  C   UNL     1       9.377   1.341   4.726  0.00  0.00    -0.028 A 
ATOM     27  C   UNL     1       9.719   2.642   4.407  0.00  0.00    +0.005 A 
ATOM     28  C   UNL     1      10.408   3.419   5.319  0.00  0.00    +0.000 A 
ATOM     29  C   UNL     1      10.756   2.896   6.550  0.00  0.00    +0.001 A 
ATOM     30  C   UNL     1      10.415   1.596   6.871  0.00  0.00    +0.020 A 
ATOM     31  C   UNL     1       9.720   0.819   5.961  0.00  0.00    +0.044 A 
ATOM     32 CL   UNL     1       9.285  -0.812   6.365  0.00  0.00    -0.083 Cl
ENDBRANCH  25  26
ENDBRANCH  24  25
ENDBRANCH  22  24
ENDBRANCH   5  20
TORSDOF 7
