REMARK  Name = ZINC06446395
REMARK  6 active torsions:
REMARK  status: ('A' for Active; 'I' for Inactive)
REMARK    1  A    between atoms: C_4  and  C_7
REMARK    2  A    between atoms: C_7  and  C_8
REMARK    3  A    between atoms: C_13  and  C_15
REMARK    4  A    between atoms: C_13  and  C_30
REMARK    5  A    between atoms: C_13  and  N_73
REMARK    6  A    between atoms: N_34  and  C_35
REMARK                            x       y       z     vdW  Elec       q    Type
REMARK                         _______ _______ _______ _____ _____    ______ ____
ROOT
ATOM      1  C   UNL     1       3.510   0.737  -0.027  0.00  0.00    +0.039 C 
ENDROOT
BRANCH   1   2
ATOM      2  C   UNL     1       3.990   1.125  -1.402  0.00  0.00    +0.011 A 
ATOM      3  C   UNL     1       4.701   0.239  -2.145  0.00  0.00    +0.017 A 
ATOM      4  C   UNL     1       5.152   0.645  -3.475  0.00  0.00    +0.002 A 
ATOM      5  C   UNL     1       5.888  -0.229  -4.286  0.00  0.00    +0.059 A 
ATOM      6  C   UNL     1       6.298   0.182  -5.535  0.00  0.00    +0.167 A 
ATOM      7  C   UNL     1       5.983   1.467  -5.995  0.00  0.00    +0.168 A 
ATOM      8  C   UNL     1       5.257   2.336  -5.200  0.00  0.00    +0.075 A 
ATOM      9  C   UNL     1       4.835   1.937  -3.939  0.00  0.00    +0.053 A 
ATOM     10  N   UNL     1       4.109   2.790  -3.133  0.00  0.00    -0.322 N 
ATOM     11  H   UNL     1       3.891   3.679  -3.453  0.00  0.00    +0.169 HD
ATOM     12  C   UNL     1       3.694   2.404  -1.914  0.00  0.00    +0.251 A 
ATOM     13  O   UNL     1       3.049   3.182  -1.232  0.00  0.00    -0.268 OA
ATOM     14  O   UNL     1       6.502   1.618  -7.248  0.00  0.00    -0.453 OA
ATOM     15  C   UNL     1       6.778   0.284  -7.714  0.00  0.00    +0.466 C 
ATOM     16  O   UNL     1       7.012  -0.462  -6.505  0.00  0.00    -0.453 OA
ENDBRANCH   1   2
BRANCH   1  22
ATOM     17  C   UNL     1       5.438   2.685   3.255  0.00  0.00    -0.010 C 
ATOM     18  C   UNL     1       3.918   2.498   3.276  0.00  0.00    -0.015 C 
ATOM     19  C   UNL     1       3.534   1.377   2.307  0.00  0.00    -0.077 C 
ATOM     20  C   UNL     1       5.444   1.862   0.898  0.00  0.00    -0.077 C 
ATOM     21  C   UNL     1       5.886   2.997   1.824  0.00  0.00    -0.015 C 
ATOM     22  N   UNL     1       3.971   1.750   0.945  0.00  0.00    +0.389 N 
ATOM     23  H   UNL     1       3.559   2.658   0.700  0.00  0.00    -0.080 HD
BRANCH  17  24
ATOM     24  C   UNL     1       5.823   3.844   4.177  0.00  0.00    +0.038 C 
BRANCH  24  28
ATOM     25  C   UNL     1      10.079   4.142   4.388  0.00  0.00    +0.000 A 
ATOM     26  C   UNL     1       9.384   4.840   3.417  0.00  0.00    +0.000 A 
ATOM     27  C   UNL     1       8.007   4.743   3.349  0.00  0.00    +0.003 A 
ATOM     28  C   UNL     1       7.324   3.949   4.251  0.00  0.00    -0.047 A 
ATOM     29  C   UNL     1       8.019   3.254   5.224  0.00  0.00    +0.003 A 
ATOM     30  C   UNL     1       9.396   3.347   5.290  0.00  0.00    +0.000 A 
ENDBRANCH  24  28
ENDBRANCH  17  24
ENDBRANCH   1  22
BRANCH   1  31
ATOM     31  C   UNL     1       2.004   0.697  -0.013  0.00  0.00    +0.143 A 
ATOM     32  N   UNL     1       1.194   1.728  -0.000  0.00  0.00    -0.115 NA
ATOM     33  N   UNL     1      -0.015   1.283   0.009  0.00  0.00    -0.023 NA
ATOM     34  N   UNL     1       0.002  -0.004   0.002  0.00  0.00    -0.044 NA
ATOM     35  N   UNL     1       1.229  -0.403  -0.012  0.00  0.00    -0.227 N 
BRANCH  35  36
ATOM     36  C   UNL     1       1.691  -1.793  -0.024  0.00  0.00    +0.111 C 
ATOM     37  C   UNL     1       1.156  -2.498  -1.272  0.00  0.00    +0.027 C 
ATOM     38  C   UNL     1       1.639  -3.950  -1.285  0.00  0.00    +0.002 C 
ATOM     39  C   UNL     1       1.128  -4.668  -0.035  0.00  0.00    +0.000 C 
ATOM     40  C   UNL     1       1.663  -3.964   1.213  0.00  0.00    +0.002 C 
ATOM     41  C   UNL     1       1.180  -2.512   1.226  0.00  0.00    +0.027 C 
ENDBRANCH  35  36
ENDBRANCH   1  31
TORSDOF 6
