REMARK  Name = ZINC25597116
REMARK  4 active torsions:
REMARK  status: ('A' for Active; 'I' for Inactive)
REMARK    1  A    between atoms: N_6  and  C_7
REMARK    2  A    between atoms: C_14  and  C_16
REMARK    3  A    between atoms: C_16  and  C_17
REMARK    4  A    between atoms: C_20  and  C_22
REMARK                            x       y       z     vdW  Elec       q    Type
REMARK                         _______ _______ _______ _____ _____    ______ ____
ROOT
ATOM      1  C   UNL     1       2.393   0.019  -0.035  0.00  0.00    +0.005 A 
ATOM      2  C   UNL     1       1.169  -0.676  -0.004  0.00  0.00    +0.018 A 
ATOM      3  C   UNL     1       0.002  -0.004   0.029  0.00  0.00    +0.096 A 
ATOM      4  N   UNL     1      -0.017   1.367   0.034  0.00  0.00    -0.273 N 
ATOM      5  C   UNL     1       1.169   2.076   0.005  0.00  0.00    +0.114 A 
ATOM      6  N   UNL     1       1.154   3.390   0.010  0.00  0.00    -0.368 N 
ATOM      7  C   UNL     1       2.399   1.376  -0.030  0.00  0.00    +0.044 A 
ATOM      8  C   UNL     1      -1.193   2.023   0.062  0.00  0.00    +0.239 C 
ATOM      9  O   UNL     1      -1.211   3.235   0.066  0.00  0.00    -0.272 OA
ATOM     10  H   UNL     1       0.198   3.929  -0.063  0.00  0.00    +0.161 HD
ENDROOT
BRANCH   6  11
ATOM     11  C   UNL     1       2.410   4.136   0.112  0.00  0.00    +0.081 C 
ATOM     12  C   UNL     1       2.437   4.912   1.431  0.00  0.00    +0.024 C 
ATOM     13  C   UNL     1       3.749   5.691   1.538  0.00  0.00    +0.002 C 
ATOM     14  C   UNL     1       3.857   6.671   0.368  0.00  0.00    +0.000 C 
ATOM     15  C   UNL     1       3.831   5.895  -0.951  0.00  0.00    +0.002 C 
ATOM     16  C   UNL     1       2.519   5.116  -1.058  0.00  0.00    +0.024 C 
ENDBRANCH   6  11
BRANCH   8  17
ATOM     17  C   UNL     1      -2.487   1.251   0.088  0.00  0.00    +0.155 C 
BRANCH  17  18
ATOM     18  C   UNL     1      -3.646   2.213   0.117  0.00  0.00    +0.058 A 
ATOM     19  C   UNL     1      -4.619   2.135  -0.829  0.00  0.00    +0.071 A 
ATOM     20  S   UNL     1      -5.692   3.469  -0.312  0.00  0.00    -0.072 S 
ATOM     21  C   UNL     1      -4.726   3.991   1.099  0.00  0.00    +0.144 A 
ATOM     22  N   UNL     1      -3.715   3.132   1.052  0.00  0.00    -0.240 NA
BRANCH  21  23
ATOM     23  C   UNL     1      -4.982   5.080   2.054  0.00  0.00    +0.160 A 
ATOM     24  C   UNL     1      -6.050   5.926   2.036  0.00  0.00    +0.052 A 
ATOM     25  C   UNL     1      -5.891   6.804   3.125  0.00  0.00    +0.042 A 
ATOM     26  C   UNL     1      -4.747   6.456   3.749  0.00  0.00    +0.196 A 
ATOM     27  O   UNL     1      -4.204   5.412   3.103  0.00  0.00    -0.461 OA
ENDBRANCH  21  23
ENDBRANCH  17  18
ENDBRANCH   8  17
TORSDOF 4
