REMARK  Name = ZINC22861581
REMARK  8 active torsions:
REMARK  status: ('A' for Active; 'I' for Inactive)
REMARK    1  A    between atoms: C_1  and  C_2
REMARK    2  A    between atoms: C_4  and  C_22
REMARK    3  A    between atoms: C_6  and  C_8
REMARK    4  A    between atoms: C_8  and  O_9
REMARK    5  A    between atoms: O_9  and  C_10
REMARK    6  A    between atoms: C_10  and  C_12
REMARK    7  A    between atoms: C_15  and  N_21
REMARK    8  A    between atoms: C_16  and  N_18
REMARK                            x       y       z     vdW  Elec       q    Type
REMARK                         _______ _______ _______ _____ _____    ______ ____
ROOT
ATOM      1  C   UNL     1       1.622  -3.620   4.048  0.00  0.00    +0.340 C 
ATOM      2  O   UNL     1       0.669  -3.744   4.791  0.00  0.00    -0.245 OA
ENDROOT
BRANCH   1   3
ATOM      3  C   UNL     1       2.977  -3.948   4.526  0.00  0.00    +0.061 A 
ATOM      4  C   UNL     1       4.076  -3.801   3.674  0.00  0.00    +0.017 A 
ATOM      5  C   UNL     1       5.331  -4.105   4.117  0.00  0.00    +0.026 A 
ATOM      6  C   UNL     1       5.523  -4.563   5.418  0.00  0.00    +0.055 A 
ATOM      7  C   UNL     1       4.435  -4.713   6.274  0.00  0.00    +0.147 A 
ATOM      8  C   UNL     1       3.167  -4.403   5.835  0.00  0.00    +0.049 A 
BRANCH   7   9
ATOM      9  N   UNL     1       4.641  -5.200   7.656  0.00  0.00    +0.058 N 
ATOM     10  O   UNL     1       3.831  -5.940   8.164  0.00  0.00    -0.126 OA
ATOM     11  O   UNL     1       5.620  -4.858   8.278  0.00  0.00    -0.126 OA
ENDBRANCH   7   9
BRANCH   6  12
ATOM     12  N   UNL     1       6.803  -4.871   5.864  0.00  0.00    -0.356 N 
ATOM     13  H   UNL     1       7.572  -4.661   5.312  0.00  0.00    +0.142 HD
ATOM     14  H   UNL     1       6.927  -5.295   6.727  0.00  0.00    +0.142 HD
ENDBRANCH   6  12
ENDBRANCH   1   3
BRANCH   1  15
ATOM     15  O   UNL     1       1.441  -3.182   2.786  0.00  0.00    -0.456 OA
BRANCH  15  16
ATOM     16  C   UNL     1       0.101  -2.882   2.390  0.00  0.00    +0.268 C 
BRANCH  16  22
ATOM     17  C   UNL     1       0.376   0.834  -0.950  0.00  0.00    +0.044 C 
ATOM     18  C   UNL     1       0.224  -0.633  -0.639  0.00  0.00    -0.050 A 
ATOM     19  C   UNL     1       0.079  -1.546  -1.667  0.00  0.00    +0.006 A 
ATOM     20  C   UNL     1      -0.060  -2.892  -1.382  0.00  0.00    -0.050 A 
ATOM     21  C   UNL     1      -0.052  -3.324  -0.069  0.00  0.00    +0.010 A 
ATOM     22  C   UNL     1       0.094  -2.411   0.959  0.00  0.00    -0.010 A 
ATOM     23  C   UNL     1       0.237  -1.066   0.673  0.00  0.00    +0.010 A 
ATOM     24  C   UNL     1      -0.219  -3.887  -2.502  0.00  0.00    +0.044 C 
ENDBRANCH  16  22
ENDBRANCH  15  16
ENDBRANCH   1  15
TORSDOF 6
