REMARK  Name = ZINC62038765
REMARK  10 active torsions:
REMARK  status: ('A' for Active; 'I' for Inactive)
REMARK    1  A    between atoms: C_1  and  C_2
REMARK    2  A    between atoms: C_5  and  C_9
REMARK    3  A    between atoms: C_6  and  C_8
REMARK    4  A    between atoms: C_17  and  S_19
REMARK    5  A    between atoms: S_19  and  C_20
REMARK    6  A    between atoms: C_20  and  C_22
REMARK    7  A    between atoms: C_20  and  C_23
REMARK    8  A    between atoms: N_25  and  C_26
REMARK    9  A    between atoms: C_28  and  C_33
REMARK   10  A    between atoms: C_31  and  O_32
REMARK                            x       y       z     vdW  Elec       q    Type
REMARK                         _______ _______ _______ _____ _____    ______ ____
ROOT
ATOM      1  C   UNL     1       0.097  -4.277   0.034  0.00  0.00    +0.004 A 
ATOM      2  C   UNL     1       1.163  -4.954  -0.456  0.00  0.00    +0.056 A 
ATOM      3  S   UNL     1       0.693  -6.661  -0.246  0.00  0.00    -0.078 S 
ATOM      4  C   UNL     1      -0.903  -6.422   0.487  0.00  0.00    +0.093 A 
ATOM      5  C   UNL     1      -1.035  -5.035   0.558  0.00  0.00    +0.080 A 
ATOM      6  C   UNL     1      -2.303  -4.547   1.147  0.00  0.00    +0.283 A 
ATOM      7  O   UNL     1      -2.515  -3.349   1.248  0.00  0.00    -0.265 OA
ATOM      8  N   UNL     1      -3.213  -5.431   1.567  0.00  0.00    -0.185 NA
ATOM      9  C   UNL     1      -3.026  -6.731   1.477  0.00  0.00    +0.171 A 
ATOM     10  N   UNL     1      -1.888  -7.249   0.936  0.00  0.00    -0.328 N 
ATOM     11  H   UNL     1      -1.774  -8.210   0.880  0.00  0.00    +0.168 HD
ENDROOT
BRANCH   1  16
ATOM     12  C   UNL     1       0.042   1.481   0.075  0.00  0.00    +0.044 C 
ATOM     13  C   UNL     1       0.056  -0.026   0.064  0.00  0.00    -0.050 A 
ATOM     14  C   UNL     1       0.066  -0.707  -1.140  0.00  0.00    +0.004 A 
ATOM     15  C   UNL     1       0.079  -2.086  -1.156  0.00  0.00    +0.009 A 
ATOM     16  C   UNL     1       0.083  -2.795   0.045  0.00  0.00    -0.014 A 
ATOM     17  C   UNL     1       0.074  -2.104   1.255  0.00  0.00    -0.042 A 
ATOM     18  C   UNL     1       0.066  -0.723   1.259  0.00  0.00    +0.007 A 
ATOM     19  C   UNL     1       0.079  -2.862   2.558  0.00  0.00    +0.044 C 
ENDBRANCH   1  16
BRANCH   9  20
ATOM     20  S   UNL     1      -4.281  -7.824   2.056  0.00  0.00    -0.075 S 
BRANCH  20  21
ATOM     21  C   UNL     1      -5.582  -6.716   2.664  0.00  0.00    +0.137 C 
ATOM     22  C   UNL     1      -6.160  -5.918   1.493  0.00  0.00    +0.029 C 
BRANCH  21  23
ATOM     23  C   UNL     1      -6.676  -7.530   3.306  0.00  0.00    +0.230 C 
ATOM     24  O   UNL     1      -6.786  -8.710   3.046  0.00  0.00    -0.274 OA
ATOM     25  N   UNL     1      -7.531  -6.947   4.169  0.00  0.00    -0.282 N 
ATOM     26  H   UNL     1      -7.404  -6.021   4.427  0.00  0.00    +0.155 HD
BRANCH  25  27
ATOM     27  C   UNL     1      -8.605  -7.680   4.694  0.00  0.00    +0.076 A 
ATOM     28  C   UNL     1      -8.457  -9.028   4.959  0.00  0.00    +0.038 A 
ATOM     29  C   UNL     1      -9.532  -9.756   5.483  0.00  0.00    +0.016 A 
ATOM     30  C   UNL     1     -10.750  -9.114   5.736  0.00  0.00    +0.015 A 
ATOM     31  C   UNL     1     -10.889  -7.771   5.469  0.00  0.00    +0.048 A 
ATOM     32  C   UNL     1      -9.821  -7.047   4.954  0.00  0.00    +0.138 A 
BRANCH  32  33
ATOM     33  O   UNL     1      -9.963  -5.721   4.699  0.00  0.00    -0.505 OA
ATOM     34  H   UNL     1     -10.276  -5.524   3.805  0.00  0.00    +0.292 HD
ENDBRANCH  32  33
BRANCH  29  35
ATOM     35  C   UNL     1      -9.382 -11.189   5.767  0.00  0.00    +0.258 C 
ATOM     36  O   UNL     1     -10.315 -11.818   6.221  0.00  0.00    -0.296 OA
ENDBRANCH  29  35
ENDBRANCH  25  27
ENDBRANCH  21  23
ENDBRANCH  20  21
ENDBRANCH   9  20
TORSDOF 7
