REMARK  Name = ZINC36490998
REMARK  10 active torsions:
REMARK  status: ('A' for Active; 'I' for Inactive)
REMARK    1  A    between atoms: C_3  and  C_10
REMARK    2  A    between atoms: C_5  and  N_7
REMARK    3  A    between atoms: N_12  and  C_13
REMARK    4  A    between atoms: N_12  and  C_19
REMARK    5  A    between atoms: C_19  and  C_21
REMARK    6  A    between atoms: C_19  and  C_30
REMARK    7  A    between atoms: C_22  and  O_29
REMARK    8  A    between atoms: C_24  and  O_28
REMARK    9  A    between atoms: C_26  and  O_27
REMARK   10  A    between atoms: N_32  and  C_33
REMARK                            x       y       z     vdW  Elec       q    Type
REMARK                         _______ _______ _______ _____ _____    ______ ____
ROOT
ATOM      1  C   UNL     1       4.997   4.069  -0.057  0.00  0.00    +0.200 C 
ENDROOT
BRANCH   1   2
ATOM      2  C   UNL     1       4.627   4.991  -1.191  0.00  0.00    +0.065 A 
ATOM      3  C   UNL     1       4.775   6.362  -1.047  0.00  0.00    +0.129 A 
ATOM      4  C   UNL     1       4.434   7.210  -2.090  0.00  0.00    +0.091 A 
ATOM      5  C   UNL     1       3.946   6.686  -3.278  0.00  0.00    +0.124 A 
ATOM      6  C   UNL     1       3.800   5.314  -3.422  0.00  0.00    +0.091 A 
ATOM      7  C   UNL     1       4.144   4.467  -2.381  0.00  0.00    +0.129 A 
BRANCH   7   8
ATOM      8  O   UNL     1       4.005   3.122  -2.524  0.00  0.00    -0.506 OA
ATOM      9  H   UNL     1       3.140   2.786  -2.254  0.00  0.00    +0.292 HD
ENDBRANCH   7   8
BRANCH   5  10
ATOM     10  O   UNL     1       3.612   7.516  -4.300  0.00  0.00    -0.507 OA
ATOM     11  H   UNL     1       4.339   7.702  -4.910  0.00  0.00    +0.292 HD
ENDBRANCH   5  10
BRANCH   3  12
ATOM     12  O   UNL     1       5.253   6.875   0.117  0.00  0.00    -0.506 OA
ATOM     13  H   UNL     1       6.209   7.018   0.121  0.00  0.00    +0.292 HD
ENDBRANCH   3  12
ENDBRANCH   1   2
BRANCH   1  14
ATOM     14  C   UNL     1       5.239   4.880   1.190  0.00  0.00    +0.239 C 
ATOM     15  O   UNL     1       4.387   4.937   2.051  0.00  0.00    -0.273 OA
ATOM     16  N   UNL     1       6.403   5.542   1.348  0.00  0.00    -0.311 N 
ATOM     17  H   UNL     1       7.053   5.560   0.628  0.00  0.00    +0.149 HD
BRANCH  16  18
ATOM     18  C   UNL     1       6.686   6.234   2.608  0.00  0.00    +0.073 C 
ATOM     19  C   UNL     1       6.066   7.632   2.573  0.00  0.00    +0.022 C 
ATOM     20  C   UNL     1       6.362   8.355   3.888  0.00  0.00    +0.002 C 
ATOM     21  C   UNL     1       7.876   8.474   4.075  0.00  0.00    +0.000 C 
ATOM     22  C   UNL     1       8.496   7.076   4.111  0.00  0.00    +0.002 C 
ATOM     23  C   UNL     1       8.200   6.353   2.795  0.00  0.00    +0.022 C 
ENDBRANCH  16  18
ENDBRANCH   1  14
BRANCH   1  26
ATOM     24  C   UNL     1       4.128   1.798   0.085  0.00  0.00    +0.248 C 
ATOM     25  O   UNL     1       5.266   1.376   0.022  0.00  0.00    -0.270 OA
ATOM     26  N   UNL     1       3.904   3.123   0.180  0.00  0.00    -0.279 N 
BRANCH  24  29
ATOM     27  C   UNL     1       0.696   0.348   0.565  0.00  0.00    +0.003 A 
ATOM     28  C   UNL     1       1.756   1.232   0.593  0.00  0.00    +0.013 A 
ATOM     29  C   UNL     1       2.988   0.856   0.058  0.00  0.00    +0.039 A 
ATOM     30  C   UNL     1       3.141  -0.413  -0.503  0.00  0.00    +0.045 A 
ATOM     31  C   UNL     1       2.074  -1.287  -0.526  0.00  0.00    +0.127 A 
ATOM     32  C   UNL     1       0.854  -0.908   0.007  0.00  0.00    +0.033 A 
BRANCH  31  33
ATOM     33  N   UNL     1       2.234  -2.632  -1.121  0.00  0.00    +0.056 N 
ATOM     34  O   UNL     1       3.299  -2.965  -1.587  0.00  0.00    -0.126 OA
ATOM     35  O   UNL     1       1.299  -3.399  -1.141  0.00  0.00    -0.126 OA
ENDBRANCH  31  33
ENDBRANCH  24  29
BRANCH  26  36
ATOM     36  C   UNL     1       2.568   3.618   0.521  0.00  0.00    +0.077 C 
ATOM     37  C   UNL     1       2.441   5.081   0.091  0.00  0.00    +0.022 C 
ATOM     38  C   UNL     1       1.046   5.598   0.447  0.00  0.00    +0.002 C 
ATOM     39  C   UNL     1       0.832   5.490   1.958  0.00  0.00    +0.000 C 
ATOM     40  C   UNL     1       0.958   4.027   2.388  0.00  0.00    +0.002 C 
ATOM     41  C   UNL     1       2.354   3.510   2.032  0.00  0.00    +0.022 C 
ENDBRANCH  26  36
ENDBRANCH   1  26
TORSDOF 10
