REMARK  Name = ZINC63571753
REMARK  2 active torsions:
REMARK  status: ('A' for Active; 'I' for Inactive)
REMARK    1  A    between atoms: C_8  and  C_26
REMARK    2  A    between atoms: N_18  and  C_19
REMARK                            x       y       z     vdW  Elec       q    Type
REMARK                         _______ _______ _______ _____ _____    ______ ____
ROOT
ATOM      1  C   UNL     1      -1.345   0.380   0.506  0.00  0.00    +0.001 A 
ATOM      2  C   UNL     1      -0.358   1.149   1.138  0.00  0.00    +0.002 A 
ATOM      3  C   UNL     1       0.864   0.661   1.437  0.00  0.00    +0.026 A 
ATOM      4  C   UNL     1       1.204  -0.681   1.114  0.00  0.00    +0.043 A 
ATOM      5  N   UNL     1       2.312  -1.365   1.280  0.00  0.00    -0.375 N 
ATOM      6  C   UNL     1       2.083  -2.736   0.831  0.00  0.00    +0.131 C 
ATOM      7  C   UNL     1       3.076  -3.154  -0.260  0.00  0.00    +0.134 C 
ATOM      8  N   UNL     1       2.539  -4.351  -0.925  0.00  0.00    -0.276 N 
ATOM      9  C   UNL     1       1.236  -4.310  -1.598  0.00  0.00    +0.114 C 
ATOM     10  C   UNL     1       0.153  -3.896  -0.585  0.00  0.00    +0.052 C 
ATOM     11  C   UNL     1       0.696  -2.732   0.213  0.00  0.00    -0.035 C 
ATOM     12  C   UNL     1       0.179  -1.515   0.438  0.00  0.00    -0.001 A 
ATOM     13  C   UNL     1      -1.126  -0.906   0.153  0.00  0.00    +0.010 A 
ATOM     14  C   UNL     1       3.250  -5.496  -0.917  0.00  0.00    +0.307 C 
ATOM     15  O   UNL     1       4.282  -5.566  -0.277  0.00  0.00    -0.252 OA
ATOM     16  N   UNL     1       2.819  -6.563  -1.618  0.00  0.00    -0.268 N 
ATOM     17  H   UNL     1       2.031  -6.488  -2.179  0.00  0.00    +0.156 HD
ATOM     18  H   UNL     1       3.143  -1.018   1.641  0.00  0.00    +0.160 HD
ENDROOT
BRANCH  16  19
ATOM     19  C   UNL     1       3.506  -7.779  -1.536  0.00  0.00    +0.049 A 
ATOM     20  C   UNL     1       4.871  -7.791  -1.282  0.00  0.00    +0.024 A 
ATOM     21  C   UNL     1       5.547  -8.993  -1.201  0.00  0.00    +0.002 A 
ATOM     22  C   UNL     1       4.866 -10.184  -1.372  0.00  0.00    +0.001 A 
ATOM     23  C   UNL     1       3.507 -10.176  -1.625  0.00  0.00    +0.017 A 
ATOM     24  C   UNL     1       2.823  -8.977  -1.702  0.00  0.00    +0.039 A 
ATOM     25 BR   UNL     1       0.963  -8.968  -2.041  0.00  0.00    -0.048 Br
ENDBRANCH  16  19
BRANCH   7  26
ATOM     26  C   UNL     1       3.232  -2.039  -1.262  0.00  0.00    -0.025 A 
ATOM     27  C   UNL     1       2.136  -1.599  -1.982  0.00  0.00    +0.008 A 
ATOM     28  C   UNL     1       2.278  -0.577  -2.900  0.00  0.00    +0.038 A 
ATOM     29  C   UNL     1       3.517   0.008  -3.099  0.00  0.00    +0.123 A 
ATOM     30  C   UNL     1       4.613  -0.432  -2.377  0.00  0.00    +0.038 A 
ATOM     31  C   UNL     1       4.468  -1.452  -1.456  0.00  0.00    +0.008 A 
ATOM     32  F   UNL     1       3.656   1.008  -3.997  0.00  0.00    -0.205 F 
ENDBRANCH   7  26
TORSDOF 2
