REMARK  Name = ZINC38776773
REMARK  12 active torsions:
REMARK  status: ('A' for Active; 'I' for Inactive)
REMARK    1  A    between atoms: C_1  and  C_2
REMARK    2  A    between atoms: C_2  and  O_3
REMARK    3  A    between atoms: O_3  and  C_4
REMARK    4  A    between atoms: C_9  and  O_10
REMARK    5  A    between atoms: O_10  and  C_11
REMARK    6  A    between atoms: C_15  and  C_17
REMARK    7  A    between atoms: C_20  and  O_24
REMARK    8  A    between atoms: C_22  and  O_23
REMARK    9  A    between atoms: O_24  and  C_25
REMARK   10  A    between atoms: C_25  and  C_26
REMARK   11  A    between atoms: C_29  and  O_32
REMARK   12  A    between atoms: O_32  and  C_33
REMARK                            x       y       z     vdW  Elec       q    Type
REMARK                         _______ _______ _______ _____ _____    ______ ____
ROOT
ATOM      1  C   UNL     1       2.335  -0.836   6.417  0.00  0.00    +0.025 A 
ATOM      2  C   UNL     1       1.824  -1.437   7.552  0.00  0.00    +0.013 A 
ATOM      3  C   UNL     1       0.912  -0.764   8.342  0.00  0.00    +0.046 A 
ATOM      4  C   UNL     1       0.507   0.518   7.997  0.00  0.00    +0.124 A 
ATOM      5  C   UNL     1       1.018   1.123   6.859  0.00  0.00    +0.091 A 
ATOM      6  C   UNL     1       1.937   0.447   6.072  0.00  0.00    +0.126 A 
ENDROOT
BRANCH   1  11
ATOM      7  C   UNL     1       2.648  -2.172   4.339  0.00  0.00    +0.154 C 
ATOM      8  C   UNL     1       2.847  -3.499   4.483  0.00  0.00    +0.176 C 
ATOM      9  N   UNL     1       3.535  -3.756   5.601  0.00  0.00    -0.182 NA
ATOM     10  N   UNL     1       3.844  -2.761   6.261  0.00  0.00    -0.294 N 
ATOM     11  C   UNL     1       3.329  -1.574   5.558  0.00  0.00    +0.199 C 
ATOM     12  H   UNL     1       4.340  -2.761   7.095  0.00  0.00    +0.184 HD
BRANCH   7  13
ATOM     13  O   UNL     1       2.001  -1.528   3.345  0.00  0.00    -0.453 OA
BRANCH  13  19
ATOM     14  C   UNL     1       2.095   0.033   1.546  0.00  0.00    +0.162 A 
ATOM     15  C   UNL     1       2.844   0.843   0.708  0.00  0.00    +0.049 A 
ATOM     16  C   UNL     1       4.220   0.883   0.833  0.00  0.00    +0.004 A 
ATOM     17  C   UNL     1       4.853   0.115   1.793  0.00  0.00    +0.004 A 
ATOM     18  C   UNL     1       4.112  -0.696   2.632  0.00  0.00    +0.050 A 
ATOM     19  C   UNL     1       2.731  -0.736   2.516  0.00  0.00    +0.170 A 
BRANCH  14  20
ATOM     20  O   UNL     1       0.742  -0.008   1.424  0.00  0.00    -0.489 OA
BRANCH  20  22
ATOM     21  C   UNL     1      -1.363   0.631   0.421  0.00  0.00    +0.048 C 
ATOM     22  C   UNL     1       0.157   0.807   0.406  0.00  0.00    +0.226 C 
ENDBRANCH  20  22
ENDBRANCH  14  20
ENDBRANCH  13  19
ENDBRANCH   7  13
ENDBRANCH   1  11
BRANCH   6  23
ATOM     23  O   UNL     1       2.445   1.040   4.959  0.00  0.00    -0.506 OA
ATOM     24  H   UNL     1       1.930   0.877   4.157  0.00  0.00    +0.292 HD
ENDBRANCH   6  23
BRANCH   4  25
ATOM     25  O   UNL     1      -0.391   1.180   8.774  0.00  0.00    -0.487 OA
BRANCH  25  26
ATOM     26  C   UNL     1      -0.876   0.496   9.931  0.00  0.00    +0.264 C 
BRANCH  26  27
ATOM     27  C   UNL     1      -1.854   1.378  10.663  0.00  0.00    -0.010 A 
ATOM     28  C   UNL     1      -1.403   2.244  11.642  0.00  0.00    +0.010 A 
ATOM     29  C   UNL     1      -2.297   3.054  12.315  0.00  0.00    +0.046 A 
ATOM     30  C   UNL     1      -3.649   2.998  12.008  0.00  0.00    +0.120 A 
ATOM     31  C   UNL     1      -4.099   2.128  11.025  0.00  0.00    +0.046 A 
ATOM     32  C   UNL     1      -3.200   1.325  10.351  0.00  0.00    +0.010 A 
BRANCH  30  33
ATOM     33  O   UNL     1      -4.530   3.793  12.669  0.00  0.00    -0.495 OA
ATOM     34  C   UNL     1      -5.907   3.682  12.300  0.00  0.00    +0.277 C 
ENDBRANCH  30  33
ENDBRANCH  26  27
ENDBRANCH  25  26
ENDBRANCH   4  25
TORSDOF 10
