REMARK  Name = ZINC16730438
REMARK  7 active torsions:
REMARK  status: ('A' for Active; 'I' for Inactive)
REMARK    1  A    between atoms: C_1  and  N_2
REMARK    2  A    between atoms: C_3  and  C_23
REMARK    3  A    between atoms: C_6  and  S_7
REMARK    4  A    between atoms: S_7  and  C_8
REMARK    5  A    between atoms: C_8  and  C_9
REMARK    6  A    between atoms: N_11  and  C_12
REMARK    7  A    between atoms: C_13  and  C_20
REMARK                            x       y       z     vdW  Elec       q    Type
REMARK                         _______ _______ _______ _____ _____    ______ ____
ROOT
ATOM      1  C   UNL     1      -5.120   3.163  -0.067  0.00  0.00    +0.228 C 
ATOM      2  O   UNL     1      -5.577   2.050  -0.217  0.00  0.00    -0.275 OA
ATOM      3  N   UNL     1      -5.946   4.223   0.038  0.00  0.00    -0.279 N 
ATOM      4  H   UNL     1      -5.580   5.113   0.158  0.00  0.00    +0.155 HD
ENDROOT
BRANCH   3   5
ATOM      5  C   UNL     1      -7.319   4.040  -0.025  0.00  0.00    +0.084 A 
ATOM      6  C   UNL     1      -8.319   4.993   0.067  0.00  0.00    +0.068 A 
ATOM      7  C   UNL     1      -9.704   4.534  -0.035  0.00  0.00    -0.023 A 
ATOM      8  C   UNL     1      -9.855   3.208  -0.203  0.00  0.00    -0.004 A 
ATOM      9  S   UNL     1      -8.200   2.564  -0.232  0.00  0.00    -0.077 S 
ATOM     10  C   UNL     1     -11.304   2.812  -0.297  0.00  0.00    +0.043 C 
ATOM     11  C   UNL     1     -12.048   4.132  -0.599  0.00  0.00    +0.010 C 
ATOM     12  C   UNL     1     -11.090   5.178   0.004  0.00  0.00    +0.037 C 
BRANCH   6  13
ATOM     13  C   UNL     1      -8.001   6.412   0.257  0.00  0.00    +0.244 C 
ATOM     14  O   UNL     1      -7.840   7.134  -0.709  0.00  0.00    -0.270 OA
ATOM     15  N   UNL     1      -7.888   6.916   1.502  0.00  0.00    -0.325 N 
ATOM     16  H   UNL     1      -8.017   6.340   2.272  0.00  0.00    +0.145 HD
ATOM     17  H   UNL     1      -7.678   7.854   1.628  0.00  0.00    +0.145 HD
ENDBRANCH   6  13
ENDBRANCH   3   5
BRANCH   1  18
ATOM     18  C   UNL     1      -3.628   3.361   0.001  0.00  0.00    +0.173 C 
BRANCH  18  19
ATOM     19  S   UNL     1      -2.798   1.762  -0.170  0.00  0.00    -0.077 S 
BRANCH  19  25
ATOM     20  C   UNL     1       0.006   0.015  -0.300  0.00  0.00    +0.153 C 
ATOM     21  N   UNL     1      -0.016   1.469  -0.123  0.00  0.00    -0.305 N 
ATOM     22  C   UNL     1       1.067   2.308   0.005  0.00  0.00    +0.167 A 
ATOM     23  N   UNL     1       0.598   3.526   0.143  0.00  0.00    -0.128 NA
ATOM     24  N   UNL     1      -0.687   3.507   0.110  0.00  0.00    -0.122 NA
ATOM     25  C   UNL     1      -1.116   2.276  -0.057  0.00  0.00    +0.192 A 
BRANCH  22  26
ATOM     26  C   UNL     1       2.491   1.911  -0.009  0.00  0.00    +0.054 A 
ATOM     27  C   UNL     1       2.926   0.829   0.757  0.00  0.00    +0.014 A 
ATOM     28  C   UNL     1       4.256   0.464   0.739  0.00  0.00    +0.001 A 
ATOM     29  C   UNL     1       5.160   1.168  -0.036  0.00  0.00    +0.003 A 
ATOM     30  C   UNL     1       4.739   2.243  -0.798  0.00  0.00    +0.039 A 
ATOM     31  C   UNL     1       3.408   2.616  -0.794  0.00  0.00    +0.134 A 
ATOM     32  F   UNL     1       2.995   3.662  -1.543  0.00  0.00    -0.205 F 
ENDBRANCH  22  26
ENDBRANCH  19  25
ENDBRANCH  18  19
ENDBRANCH   1  18
TORSDOF 6
