REMARK  Name = ZINC10785903
REMARK  3 active torsions:
REMARK  status: ('A' for Active; 'I' for Inactive)
REMARK    1  A    between atoms: C_3  and  S_6
REMARK    2  A    between atoms: S_6  and  N_9
REMARK    3  A    between atoms: C_14  and  C_16
REMARK                            x       y       z     vdW  Elec       q    Type
REMARK                         _______ _______ _______ _____ _____    ______ ____
ROOT
ATOM      1  C   UNL     1      -0.123   3.508   2.726  0.00  0.00    +0.235 C 
ATOM      2  O   UNL     1      -0.256   4.681   2.446  0.00  0.00    -0.274 OA
ATOM      3  N   UNL     1      -0.145   2.576   1.753  0.00  0.00    -0.297 N 
ATOM      4  C   UNL     1       0.160   1.168   2.050  0.00  0.00    +0.127 C 
ATOM      5  C   UNL     1       1.227   0.683   1.062  0.00  0.00    +0.126 C 
ATOM      6  N   UNL     1       0.774   0.945  -0.311  0.00  0.00    -0.307 N 
ATOM      7  C   UNL     1       0.618   2.385  -0.555  0.00  0.00    +0.126 C 
ATOM      8  C   UNL     1      -0.474   2.940   0.366  0.00  0.00    +0.127 C 
ATOM      9  C   UNL     1       1.632   0.378  -1.231  0.00  0.00    +0.162 A 
ATOM     10  N   UNL     1       2.729  -0.312  -1.019  0.00  0.00    -0.225 NA
ATOM     11  C   UNL     1       3.477  -0.816  -2.026  0.00  0.00    +0.080 A 
ATOM     12  C   UNL     1       4.667  -1.574  -1.935  0.00  0.00    +0.030 A 
ATOM     13  C   UNL     1       5.310  -2.007  -3.065  0.00  0.00    +0.022 A 
ATOM     14  C   UNL     1       4.821  -1.720  -4.332  0.00  0.00    +0.042 A 
ATOM     15  C   UNL     1       3.658  -0.980  -4.458  0.00  0.00    +0.037 A 
ATOM     16  C   UNL     1       3.008  -0.543  -3.331  0.00  0.00    +0.042 A 
ATOM     17  S   UNL     1       1.538   0.403  -3.016  0.00  0.00    -0.052 S 
ATOM     18 CL   UNL     1       5.659  -2.284  -5.744  0.00  0.00    -0.084 Cl
ENDROOT
BRANCH   1  24
ATOM     19  N   UNL     1      -1.038   3.620   4.977  0.00  0.00    -0.164 NA
ATOM     20  C   UNL     1      -0.976   3.463   6.436  0.00  0.00    +0.110 C 
ATOM     21  C   UNL     1       0.357   4.027   6.940  0.00  0.00    +0.017 C 
ATOM     22  C   UNL     1       1.507   3.356   6.186  0.00  0.00    +0.003 C 
ATOM     23  C   UNL     1       1.387   3.662   4.691  0.00  0.00    +0.030 C 
ATOM     24  C   UNL     1       0.066   3.094   4.162  0.00  0.00    +0.166 C 
BRANCH  19  25
ATOM     25  S   UNL     1      -2.325   4.379   4.263  0.00  0.00    +0.068 S 
ATOM     26  O   UNL     1      -2.366   3.929   2.916  0.00  0.00    -0.152 OA
ATOM     27  O   UNL     1      -3.425   4.233   5.150  0.00  0.00    -0.152 OA
BRANCH  25  30
ATOM     28  C   UNL     1      -1.264   8.191   3.356  0.00  0.00    +0.010 A 
ATOM     29  C   UNL     1      -1.486   6.839   3.169  0.00  0.00    +0.036 A 
ATOM     30  C   UNL     1      -1.949   6.100   4.207  0.00  0.00    +0.143 A 
ATOM     31  S   UNL     1      -2.070   7.320   5.505  0.00  0.00    -0.077 S 
ATOM     32  C   UNL     1      -1.504   8.735   4.574  0.00  0.00    +0.047 A 
ENDBRANCH  25  30
ENDBRANCH  19  25
ENDBRANCH   1  24
TORSDOF 3
