REMARK  Name = ZINC03309928
REMARK  6 active torsions:
REMARK  status: ('A' for Active; 'I' for Inactive)
REMARK    1  A    between atoms: C_1  and  C_2
REMARK    2  A    between atoms: C_2  and  C_32
REMARK    3  A    between atoms: C_13  and  C_15
REMARK    4  A    between atoms: C_15  and  S_16
REMARK    5  A    between atoms: S_16  and  C_17
REMARK    6  A    between atoms: C_20  and  C_22
REMARK                            x       y       z     vdW  Elec       q    Type
REMARK                         _______ _______ _______ _____ _____    ______ ____
ROOT
ATOM      1  C   UNL     1       1.737  -0.635   1.728  0.00  0.00    +0.175 C 
ENDROOT
BRANCH   1  14
ATOM      2  C   UNL     1       5.008   1.120  -0.230  0.00  0.00    +0.042 C 
ATOM      3  C   UNL     1       3.705   1.909  -0.369  0.00  0.00    +0.113 C 
ATOM      4  C   UNL     1       3.906   3.309   0.151  0.00  0.00    +0.241 C 
ATOM      5  O   UNL     1       4.996   3.833   0.059  0.00  0.00    -0.273 OA
ATOM      6  N   UNL     1       2.889   3.987   0.718  0.00  0.00    -0.282 N 
ATOM      7  C   UNL     1       1.635   3.389   0.882  0.00  0.00    +0.055 A 
ATOM      8  C   UNL     1       0.521   4.152   1.192  0.00  0.00    +0.025 A 
ATOM      9  C   UNL     1      -0.708   3.540   1.357  0.00  0.00    +0.002 A 
ATOM     10  C   UNL     1      -0.833   2.171   1.209  0.00  0.00    +0.002 A 
ATOM     11  C   UNL     1       0.275   1.401   0.904  0.00  0.00    +0.025 A 
ATOM     12  C   UNL     1       1.507   2.006   0.736  0.00  0.00    +0.059 A 
ATOM     13  N   UNL     1       2.647   1.254   0.415  0.00  0.00    -0.255 N 
ATOM     14  C   UNL     1       2.768  -0.029   0.811  0.00  0.00    +0.231 C 
ATOM     15  O   UNL     1       3.707  -0.695   0.430  0.00  0.00    -0.274 OA
ATOM     16  C   UNL     1       3.293   1.962  -1.841  0.00  0.00    +0.042 C 
ATOM     17  H   UNL     1       3.028   4.900   1.015  0.00  0.00    +0.155 HD
ENDBRANCH   1  14
BRANCH   1  18
ATOM     18  S   UNL     1       2.440  -2.085   2.551  0.00  0.00    -0.056 S 
BRANCH  18  19
ATOM     19  C   UNL     1       1.062  -2.579   3.531  0.00  0.00    +0.278 A 
ATOM     20  N   UNL     1      -0.110  -1.988   3.578  0.00  0.00    -0.101 NA
ATOM     21  N   UNL     1      -0.875  -2.617   4.398  0.00  0.00    -0.106 NA
ATOM     22  C   UNL     1      -0.224  -3.636   4.909  0.00  0.00    +0.257 A 
ATOM     23  O   UNL     1       1.015  -3.636   4.365  0.00  0.00    -0.410 OA
BRANCH  22  24
ATOM     24  C   UNL     1      -0.746  -4.603   5.886  0.00  0.00    +0.095 A 
ATOM     25  C   UNL     1      -1.979  -4.641   6.455  0.00  0.00    +0.068 A 
ATOM     26  C   UNL     1      -2.284  -5.700   7.402  0.00  0.00    +0.008 A 
ATOM     27  C   UNL     1      -3.490  -5.936   8.106  0.00  0.00    +0.010 A 
ATOM     28  C   UNL     1      -3.599  -6.982   8.967  0.00  0.00    +0.001 A 
ATOM     29  C   UNL     1      -2.540  -7.854   9.187  0.00  0.00    +0.001 A 
ATOM     30  C   UNL     1      -1.347  -7.658   8.520  0.00  0.00    +0.016 A 
ATOM     31  C   UNL     1      -1.222  -6.601   7.644  0.00  0.00    +0.021 A 
ATOM     32  S   UNL     1       0.089  -6.000   6.612  0.00  0.00    -0.082 S 
ATOM     33 CL   UNL     1      -3.173  -3.446   6.055  0.00  0.00    -0.082 Cl
ENDBRANCH  22  24
ENDBRANCH  18  19
ENDBRANCH   1  18
TORSDOF 4
