REMARK  Name = ZINC12659598
REMARK  12 active torsions:
REMARK  status: ('A' for Active; 'I' for Inactive)
REMARK    1  A    between atoms: C_1  and  N_60
REMARK    2  A    between atoms: C_8  and  O_30
REMARK    3  A    between atoms: C_10  and  C_12
REMARK    4  A    between atoms: C_12  and  C_13
REMARK    5  A    between atoms: C_13  and  C_16
REMARK    6  A    between atoms: N_14  and  O_15
REMARK    7  A    between atoms: C_17  and  O_29
REMARK    8  A    between atoms: C_18  and  O_27
REMARK    9  A    between atoms: C_21  and  O_22
REMARK   10  A    between atoms: O_22  and  C_23
REMARK   11  A    between atoms: O_27  and  C_28
REMARK   12  A    between atoms: O_30  and  C_31
REMARK                            x       y       z     vdW  Elec       q    Type
REMARK                         _______ _______ _______ _____ _____    ______ ____
ROOT
ATOM      1  C   UNL     1       1.127  -0.349  -2.481  0.00  0.00    +0.093 C 
ATOM      2  N   UNL     1       1.973  -1.187  -2.991  0.00  0.00    -0.091 NA
ENDROOT
BRANCH   1   3
ATOM      3  C   UNL     1       1.260   1.091  -2.756  0.00  0.00    +0.087 A 
ATOM      4  C   UNL     1       1.934   1.923  -1.845  0.00  0.00    +0.175 A 
ATOM      5  C   UNL     1       2.068   3.276  -2.099  0.00  0.00    +0.205 A 
ATOM      6  C   UNL     1       1.524   3.829  -3.257  0.00  0.00    +0.183 A 
ATOM      7  C   UNL     1       0.845   3.004  -4.168  0.00  0.00    +0.066 A 
ATOM      8  C   UNL     1       0.711   1.636  -3.920  0.00  0.00    +0.144 A 
ATOM      9  C   UNL     1       0.409   3.893  -5.254  0.00  0.00    +0.053 A 
ATOM     10  C   UNL     1       0.839   5.119  -4.927  0.00  0.00    +0.196 A 
ATOM     11  O   UNL     1       1.494   5.083  -3.753  0.00  0.00    -0.459 OA
BRANCH   8  12
ATOM     12  O   UNL     1       0.053   0.842  -4.803  0.00  0.00    -0.494 OA
ATOM     13  C   UNL     1      -1.371   0.797  -4.699  0.00  0.00    +0.277 C 
ENDBRANCH   8  12
BRANCH   5  14
ATOM     14  O   UNL     1       2.728   4.071  -1.212  0.00  0.00    -0.488 OA
ATOM     15  C   UNL     1       1.950   4.667  -0.172  0.00  0.00    +0.277 C 
ENDBRANCH   5  14
BRANCH   4  16
ATOM     16  O   UNL     1       2.462   1.393  -0.710  0.00  0.00    -0.503 OA
ATOM     17  H   UNL     1       3.374   1.089  -0.805  0.00  0.00    +0.292 HD
ENDBRANCH   4  16
ENDBRANCH   1   3
BRANCH   2  18
ATOM     18  O   UNL     1       3.026  -0.717  -3.813  0.00  0.00    -0.409 OA
ATOM     19  H   UNL     1       3.606  -1.415  -4.147  0.00  0.00    +0.328 HD
ENDBRANCH   2  18
BRANCH   1  20
ATOM     20  C   UNL     1       0.006  -0.849  -1.607  0.00  0.00    +0.049 C 
BRANCH  20  30
ATOM     21  C   UNL     1       1.301  -1.934   0.761  0.00  0.00    -0.095 C 
ATOM     22  C   UNL     1       1.705  -3.993  -0.452  0.00  0.00    -0.074 C 
ATOM     23  C   UNL     1       2.169  -4.502  -1.817  0.00  0.00    +0.017 C 
ATOM     24  C   UNL     1       1.193  -4.077  -2.884  0.00  0.00    -0.040 A 
ATOM     25  C   UNL     1       1.234  -4.723  -4.111  0.00  0.00    +0.053 A 
ATOM     26  C   UNL     1       0.360  -4.365  -5.123  0.00  0.00    +0.170 A 
ATOM     27  C   UNL     1      -0.565  -3.349  -4.908  0.00  0.00    +0.208 A 
ATOM     28  C   UNL     1      -0.605  -2.706  -3.680  0.00  0.00    +0.167 A 
ATOM     29  C   UNL     1       0.275  -3.071  -2.665  0.00  0.00    -0.012 A 
ATOM     30  C   UNL     1       0.190  -2.346  -1.348  0.00  0.00    -0.028 C 
ATOM     31  O   UNL     1      -1.303  -3.183  -6.045  0.00  0.00    -0.449 OA
ATOM     32  C   UNL     1      -1.096  -4.381  -6.816  0.00  0.00    +0.467 C 
ATOM     33  O   UNL     1       0.202  -4.838  -6.394  0.00  0.00    -0.452 OA
ATOM     34  N   UNL     1       1.430  -2.546  -0.580  0.00  0.00    +0.383 N 
ATOM     35  H   UNL     1       2.208  -2.099  -1.077  0.00  0.00    -0.081 HD
BRANCH  28  36
ATOM     36  O   UNL     1      -1.508  -1.712  -3.466  0.00  0.00    -0.491 OA
ATOM     37  C   UNL     1      -2.782  -2.095  -2.942  0.00  0.00    +0.277 C 
ENDBRANCH  28  36
ENDBRANCH  20  30
ENDBRANCH   1  20
TORSDOF 8
