REMARK  Name = ZINC04395990
REMARK  9 active torsions:
REMARK  status: ('A' for Active; 'I' for Inactive)
REMARK    1  A    between atoms: C_1  and  C_2
REMARK    2  A    between atoms: C_5  and  C_7
REMARK    3  A    between atoms: C_9  and  C_32
REMARK    4  A    between atoms: C_10  and  S_21
REMARK    5  A    between atoms: C_17  and  C_19
REMARK    6  A    between atoms: C_17  and  C_20
REMARK    7  A    between atoms: S_21  and  C_22
REMARK    8  A    between atoms: C_22  and  C_23
REMARK    9  A    between atoms: N_25  and  C_26
REMARK                            x       y       z     vdW  Elec       q    Type
REMARK                         _______ _______ _______ _____ _____    ______ ____
ROOT
ATOM      1  C   UNL     1      -6.520   2.271   0.049  0.00  0.00    +0.113 C 
ATOM      2  C   UNL     1      -5.330   1.354   0.042  0.00  0.00    +0.161 C 
ATOM      3  C   UNL     1      -4.064   1.850   0.039  0.00  0.00    +0.093 C 
ATOM      4  N   UNL     1      -3.855   3.209   0.041  0.00  0.00    -0.248 NA
ATOM      5  C   UNL     1      -4.845   4.066   0.440  0.00  0.00    +0.050 C 
ATOM      6  C   UNL     1      -6.131   3.663   0.479  0.00  0.00    +0.028 C 
ATOM      7  C   UNL     1      -7.149   4.528   0.917  0.00  0.00    +0.162 C 
ATOM      8  O   UNL     1      -8.300   4.137   0.926  0.00  0.00    -0.292 OA
ATOM      9  C   UNL     1      -6.842   5.928   1.372  0.00  0.00    +0.086 C 
ATOM     10  C   UNL     1      -5.417   5.969   1.934  0.00  0.00    -0.023 C 
ATOM     11  C   UNL     1      -4.456   5.466   0.851  0.00  0.00    +0.062 C 
ATOM     12  C   UNL     1      -5.324   5.067   3.167  0.00  0.00    +0.011 C 
ATOM     13  C   UNL     1      -5.052   7.404   2.318  0.00  0.00    +0.011 C 
ENDROOT
BRANCH   1  18
ATOM     14  C   UNL     1      -6.979   3.074  -4.909  0.00  0.00    +0.086 C 
ATOM     15  C   UNL     1      -7.308   2.678  -3.493  0.00  0.00    +0.102 A 
ATOM     16  C   UNL     1      -8.479   2.169  -3.071  0.00  0.00    +0.044 A 
ATOM     17  C   UNL     1      -8.349   1.939  -1.682  0.00  0.00    +0.045 A 
ATOM     18  C   UNL     1      -7.109   2.329  -1.337  0.00  0.00    +0.114 A 
ATOM     19  O   UNL     1      -6.481   2.772  -2.439  0.00  0.00    -0.464 OA
ENDBRANCH   1  18
BRANCH   2  20
ATOM     20  C   UNL     1      -5.532  -0.063   0.041  0.00  0.00    +0.074 C 
ATOM     21  N   UNL     1      -5.693  -1.188   0.041  0.00  0.00    -0.196 NA
ENDBRANCH   2  20
BRANCH   3  22
ATOM     22  S   UNL     1      -2.689   0.748   0.031  0.00  0.00    -0.100 S 
BRANCH  22  23
ATOM     23  C   UNL     1      -1.329   1.943   0.029  0.00  0.00    +0.171 C 
BRANCH  23  24
ATOM     24  C   UNL     1      -0.014   1.208   0.022  0.00  0.00    +0.223 C 
ATOM     25  O   UNL     1       0.003  -0.005   0.019  0.00  0.00    -0.275 OA
ATOM     26  N   UNL     1       1.144   1.897   0.013  0.00  0.00    -0.312 N 
ATOM     27  H   UNL     1       1.131   2.867   0.016  0.00  0.00    +0.149 HD
BRANCH  26  28
ATOM     28  C   UNL     1       2.423   1.182   0.001  0.00  0.00    +0.073 C 
ATOM     29  C   UNL     1       2.819   0.820   1.433  0.00  0.00    +0.022 C 
ATOM     30  C   UNL     1       4.154   0.073   1.420  0.00  0.00    +0.002 C 
ATOM     31  C   UNL     1       5.232   0.967   0.803  0.00  0.00    +0.000 C 
ATOM     32  C   UNL     1       4.836   1.329  -0.629  0.00  0.00    +0.002 C 
ATOM     33  C   UNL     1       3.501   2.076  -0.616  0.00  0.00    +0.022 C 
ENDBRANCH  26  28
ENDBRANCH  23  24
ENDBRANCH  22  23
ENDBRANCH   3  22
TORSDOF 6
