REMARK  Name = ZINC67271188
REMARK  8 active torsions:
REMARK  status: ('A' for Active; 'I' for Inactive)
REMARK    1  A    between atoms: C_1  and  C_2
REMARK    2  A    between atoms: N_5  and  C_8
REMARK    3  A    between atoms: C_8  and  C_10
REMARK    4  A    between atoms: C_8  and  C_11
REMARK    5  A    between atoms: C_11  and  N_12
REMARK    6  A    between atoms: C_13  and  C_15
REMARK    7  A    between atoms: N_17  and  C_24
REMARK    8  A    between atoms: C_18  and  C_21
REMARK                            x       y       z     vdW  Elec       q    Type
REMARK                         _______ _______ _______ _____ _____    ______ ____
ROOT
ATOM      1  C   UNL     1      -5.123  -3.749  -0.711  0.00  0.00    +0.123 C 
ATOM      2  N   UNL     1      -4.655  -3.170  -1.770  0.00  0.00    -0.178 NA
ATOM      3  N   UNL     1      -5.624  -2.861  -2.723  0.00  0.00    -0.212 N 
ATOM      4  C   UNL     1      -6.938  -3.298  -2.226  0.00  0.00    +0.189 C 
ATOM      5  C   UNL     1      -6.620  -3.916  -0.850  0.00  0.00    +0.096 C 
ENDROOT
BRANCH   3   6
ATOM      6  C   UNL     1      -5.386  -2.237  -3.949  0.00  0.00    +0.052 A 
ATOM      7  C   UNL     1      -6.442  -1.976  -4.814  0.00  0.00    +0.025 A 
ATOM      8  C   UNL     1      -6.204  -1.359  -6.026  0.00  0.00    +0.002 A 
ATOM      9  C   UNL     1      -4.915  -1.001  -6.379  0.00  0.00    +0.000 A 
ATOM     10  C   UNL     1      -3.862  -1.260  -5.521  0.00  0.00    +0.002 A 
ATOM     11  C   UNL     1      -4.094  -1.871  -4.305  0.00  0.00    +0.025 A 
ENDBRANCH   3   6
BRANCH   4  12
ATOM     12  C   UNL     1      -7.534  -4.333  -3.145  0.00  0.00    +0.233 C 
ATOM     13  O   UNL     1      -6.824  -4.933  -3.925  0.00  0.00    -0.274 OA
ATOM     14  N   UNL     1      -8.855  -4.593  -3.100  0.00  0.00    -0.328 N 
ATOM     15  H   UNL     1      -9.423  -4.114  -2.476  0.00  0.00    +0.145 HD
ATOM     16  H   UNL     1      -9.239  -5.260  -3.691  0.00  0.00    +0.145 HD
ENDBRANCH   4  12
BRANCH   1  18
ATOM     17  N   UNL     1      -2.996  -3.977   0.450  0.00  0.00    -0.312 N 
ATOM     18  C   UNL     1      -4.328  -4.179   0.438  0.00  0.00    +0.260 C 
ATOM     19  O   UNL     1      -4.870  -4.721   1.384  0.00  0.00    -0.269 OA
ATOM     20  H   UNL     1      -2.564  -3.545  -0.304  0.00  0.00    +0.149 HD
BRANCH  17  21
ATOM     21  C   UNL     1      -2.199  -4.408   1.601  0.00  0.00    +0.089 C 
BRANCH  21  22
ATOM     22  C   UNL     1      -0.753  -3.942   1.424  0.00  0.00    -0.054 C 
ATOM     23  C   UNL     1       0.052  -4.288   2.679  0.00  0.00    -0.012 C 
BRANCH  22  28
ATOM     24  C   UNL     1       0.082   1.699   1.509  0.00  0.00    +0.007 C 
ATOM     25  C   UNL     1       0.143   0.204   1.830  0.00  0.00    -0.018 C 
ATOM     26  C   UNL     1       0.659  -0.561   0.608  0.00  0.00    -0.016 C 
ATOM     27  C   UNL     1       0.642  -2.062   0.909  0.00  0.00    -0.078 C 
ATOM     28  N   UNL     1      -0.729  -2.488   1.213  0.00  0.00    +0.382 N 
ATOM     29  C   UNL     1      -1.204  -1.811   2.425  0.00  0.00    -0.078 C 
ATOM     30  C   UNL     1      -1.259  -0.301   2.183  0.00  0.00    -0.016 C 
ATOM     31  H   UNL     1      -1.333  -2.253   0.439  0.00  0.00    -0.081 HD
ENDBRANCH  22  28
ENDBRANCH  21  22
ENDBRANCH  17  21
ENDBRANCH   1  18
TORSDOF 6
