REMARK  Name = ZINC05442990
REMARK  4 active torsions:
REMARK  status: ('A' for Active; 'I' for Inactive)
REMARK    1  A    between atoms: C_1  and  C_2
REMARK    2  A    between atoms: C_5  and  C_8
REMARK    3  A    between atoms: C_11  and  C_13
REMARK    4  A    between atoms: C_19  and  C_26
REMARK                            x       y       z     vdW  Elec       q    Type
REMARK                         _______ _______ _______ _____ _____    ______ ____
ROOT
ATOM      1  C   UNL     1      -0.101  -7.217   2.249  0.00  0.00    +0.117 C 
ATOM      2  C   UNL     1      -1.306  -8.123   2.082  0.00  0.00    +0.080 C 
ATOM      3  N   UNL     1      -2.295  -8.103   2.913  0.00  0.00    -0.390 N 
ATOM      4  N   UNL     1      -1.287  -8.972   0.988  0.00  0.00    -0.298 N 
ATOM      5  C   UNL     1      -0.076  -9.536   0.635  0.00  0.00    +0.091 C 
ATOM      6  C   UNL     1       1.085  -9.146   1.216  0.00  0.00    +0.065 C 
ATOM      7  C   UNL     1       1.150  -8.101   2.297  0.00  0.00    +0.023 C 
ATOM      8  C   UNL     1       1.231  -8.783   3.665  0.00  0.00    +0.013 C 
ATOM      9  C   UNL     1       1.287  -7.718   4.762  0.00  0.00    +0.001 C 
ATOM     10  C   UNL     1       2.524  -6.840   4.558  0.00  0.00    +0.000 C 
ATOM     11  C   UNL     1       2.448  -6.161   3.189  0.00  0.00    +0.001 C 
ATOM     12  C   UNL     1       2.391  -7.227   2.093  0.00  0.00    +0.013 C 
ATOM     13  S   UNL     1      -0.039 -10.792  -0.599  0.00  0.00    -0.034 SA
ATOM     14  H   UNL     1      -2.280  -7.496   3.670  0.00  0.00    +0.157 HD
ATOM     15  H   UNL     1      -2.095  -9.165   0.488  0.00  0.00    +0.154 HD
ATOM     16  H   UNL     1      -3.052  -8.694   2.780  0.00  0.00    +0.157 HD
ENDROOT
BRANCH   1  20
ATOM     17  C   UNL     1       0.059  -4.256  -0.021  0.00  0.00    +0.078 A 
ATOM     18  C   UNL     1       0.170  -4.968  -1.185  0.00  0.00    +0.075 A 
ATOM     19  S   UNL     1       0.137  -6.638  -0.553  0.00  0.00    -0.079 S 
ATOM     20  C   UNL     1      -0.011  -6.268   1.081  0.00  0.00    +0.090 A 
ATOM     21  N   UNL     1      -0.024  -4.960   1.098  0.00  0.00    -0.243 NA
BRANCH  17  26
ATOM     22  C   UNL     1      -0.018   1.503   0.010  0.00  0.00    +0.044 C 
ATOM     23  C   UNL     1       0.002  -0.004   0.002  0.00  0.00    -0.050 A 
ATOM     24  C   UNL     1       0.006  -0.686  -1.201  0.00  0.00    +0.004 A 
ATOM     25  C   UNL     1       0.024  -2.066  -1.215  0.00  0.00    +0.010 A 
ATOM     26  C   UNL     1       0.040  -2.772  -0.013  0.00  0.00    +0.001 A 
ATOM     27  C   UNL     1       0.036  -2.079   1.196  0.00  0.00    +0.010 A 
ATOM     28  C   UNL     1       0.023  -0.700   1.198  0.00  0.00    +0.004 A 
ENDBRANCH  17  26
ENDBRANCH   1  20
BRANCH   6  29
ATOM     29  C   UNL     1       2.305  -9.756   0.782  0.00  0.00    +0.098 C 
ATOM     30  N   UNL     1       3.273 -10.241   0.438  0.00  0.00    -0.191 NA
ENDBRANCH   6  29
TORSDOF 3
