REMARK  Name = ZINC34699066
REMARK  10 active torsions:
REMARK  status: ('A' for Active; 'I' for Inactive)
REMARK    1  A    between atoms: C_1  and  C_2
REMARK    2  A    between atoms: C_2  and  C_3
REMARK    3  A    between atoms: C_2  and  N_4
REMARK    4  A    between atoms: N_4  and  C_5
REMARK    5  A    between atoms: C_5  and  C_6
REMARK    6  A    between atoms: N_9  and  C_20
REMARK    7  A    between atoms: C_11  and  C_13
REMARK    8  A    between atoms: C_20  and  C_21
REMARK    9  A    between atoms: C_26  and  O_27
REMARK   10  A    between atoms: C_28  and  C_30
REMARK                            x       y       z     vdW  Elec       q    Type
REMARK                         _______ _______ _______ _____ _____    ______ ____
ROOT
ATOM      1  C   UNL     1      -2.256  -1.909   1.688  0.00  0.00    -0.005 C 
ATOM      2  C   UNL     1      -1.158  -2.990   1.779  0.00  0.00    -0.073 C 
ATOM      3  N   UNL     1      -1.771  -4.080   2.581  0.00  0.00    +0.383 N 
ATOM      4  C   UNL     1      -3.175  -4.142   2.100  0.00  0.00    -0.070 C 
ATOM      5  C   UNL     1      -3.584  -2.664   1.900  0.00  0.00    +0.005 C 
ATOM      6  H   UNL     1      -1.744  -3.852   3.564  0.00  0.00    -0.081 HD
ENDROOT
BRANCH   5   7
ATOM      7  C   UNL     1      -4.466  -2.524   0.686  0.00  0.00    -0.046 A 
ATOM      8  C   UNL     1      -5.516  -1.625   0.695  0.00  0.00    +0.006 A 
ATOM      9  C   UNL     1      -6.325  -1.496  -0.418  0.00  0.00    +0.038 A 
ATOM     10  C   UNL     1      -6.083  -2.266  -1.542  0.00  0.00    +0.123 A 
ATOM     11  C   UNL     1      -5.031  -3.166  -1.551  0.00  0.00    +0.038 A 
ATOM     12  C   UNL     1      -4.220  -3.290  -0.439  0.00  0.00    +0.006 A 
ATOM     13  F   UNL     1      -6.874  -2.140  -2.631  0.00  0.00    -0.205 F 
ENDBRANCH   5   7
BRANCH   1  14
ATOM     14  C   UNL     1      -2.236  -1.246   0.309  0.00  0.00    +0.110 C 
BRANCH  14  15
ATOM     15  N   UNL     1      -1.085  -0.344   0.217  0.00  0.00    -0.295 N 
ATOM     16  C   UNL     1      -1.210   0.946   0.587  0.00  0.00    +0.247 C 
ATOM     17  O   UNL     1      -2.246   1.543   0.370  0.00  0.00    -0.270 OA
BRANCH  16  18
ATOM     18  C   UNL     1      -0.086   1.635   1.254  0.00  0.00    +0.037 A 
ATOM     19  C   UNL     1       1.229   1.245   0.994  0.00  0.00    +0.016 A 
ATOM     20  C   UNL     1       2.274   1.891   1.619  0.00  0.00    +0.039 A 
ATOM     21  C   UNL     1       2.021   2.926   2.506  0.00  0.00    +0.123 A 
ATOM     22  C   UNL     1       0.717   3.318   2.768  0.00  0.00    +0.039 A 
ATOM     23  C   UNL     1      -0.335   2.683   2.143  0.00  0.00    +0.016 A 
ATOM     24  F   UNL     1       3.048   3.556   3.117  0.00  0.00    -0.205 F 
ENDBRANCH  16  18
BRANCH  15  26
ATOM     25  C   UNL     1       0.849   0.212  -1.173  0.00  0.00    +0.028 C 
ATOM     26  C   UNL     1       0.200  -0.844  -0.276  0.00  0.00    +0.070 C 
ATOM     27  C   UNL     1       1.121  -1.140   0.910  0.00  0.00    +0.028 C 
ENDBRANCH  15  26
ENDBRANCH  14  15
ENDBRANCH   1  14
BRANCH   3  28
ATOM     28  C   UNL     1      -1.084  -5.353   2.328  0.00  0.00    -0.039 C 
BRANCH  28  29
ATOM     29  C   UNL     1      -1.641  -6.415   3.241  0.00  0.00    -0.022 A 
ATOM     30  C   UNL     1      -0.961  -6.763   4.392  0.00  0.00    +0.005 A 
ATOM     31  C   UNL     1      -1.471  -7.737   5.230  0.00  0.00    +0.000 A 
ATOM     32  C   UNL     1      -2.663  -8.365   4.918  0.00  0.00    +0.004 A 
ATOM     33  C   UNL     1      -3.347  -8.021   3.769  0.00  0.00    +0.045 A 
ATOM     34  C   UNL     1      -2.840  -7.040   2.929  0.00  0.00    +0.118 A 
BRANCH  34  35
ATOM     35  O   UNL     1      -3.513  -6.695   1.800  0.00  0.00    -0.507 OA
ATOM     36  H   UNL     1      -3.269  -7.214   1.022  0.00  0.00    +0.292 HD
ENDBRANCH  34  35
ENDBRANCH  28  29
ENDBRANCH   3  28
TORSDOF 8
