REMARK  Name = ZINC04256400
REMARK  6 active torsions:
REMARK  status: ('A' for Active; 'I' for Inactive)
REMARK    1  A    between atoms: C_1  and  O_2
REMARK    2  A    between atoms: O_2  and  C_3
REMARK    3  A    between atoms: C_6  and  C_9
REMARK    4  A    between atoms: C_19  and  C_21
REMARK    5  A    between atoms: C_24  and  O_27
REMARK    6  A    between atoms: O_27  and  C_28
REMARK                            x       y       z     vdW  Elec       q    Type
REMARK                         _______ _______ _______ _____ _____    ______ ____
ROOT
ATOM      1  C   UNL     1       3.652   2.160  -0.021  0.00  0.00    +0.013 C 
ATOM      2  C   UNL     1       3.638   3.505  -0.116  0.00  0.00    -0.024 C 
ATOM      3  C   UNL     1       2.329   4.235  -0.105  0.00  0.00    +0.037 C 
ATOM      4  C   UNL     1       2.452   5.744  -0.047  0.00  0.00    +0.005 C 
ATOM      5  C   UNL     1       3.690   6.282  -0.763  0.00  0.00    +0.012 C 
ATOM      6  C   UNL     1       4.925   5.726  -0.054  0.00  0.00    +0.066 C 
ATOM      7  C   UNL     1       4.859   4.212  -0.230  0.00  0.00    +0.067 C 
ATOM      8  N   UNL     1       6.044   3.784  -0.493  0.00  0.00    -0.191 NA
ATOM      9  N   UNL     1       6.979   4.809  -0.687  0.00  0.00    -0.261 N 
ATOM     10  C   UNL     1       6.229   6.083  -0.784  0.00  0.00    +0.128 C 
ATOM     11  H   UNL     1       7.941   4.703  -0.748  0.00  0.00    +0.169 HD
ENDROOT
BRANCH   1  15
ATOM     12  C   UNL     1       0.012  -0.016  -0.166  0.00  0.00    +0.120 A 
ATOM     13  C   UNL     1       0.974  -0.338   0.783  0.00  0.00    +0.046 A 
ATOM     14  C   UNL     1       2.158   0.365   0.834  0.00  0.00    +0.011 A 
ATOM     15  C   UNL     1       2.389   1.405  -0.071  0.00  0.00    -0.024 A 
ATOM     16  C   UNL     1       1.417   1.726  -1.024  0.00  0.00    +0.011 A 
ATOM     17  C   UNL     1       0.237   1.017  -1.067  0.00  0.00    +0.046 A 
BRANCH  12  19
ATOM     18  C   UNL     1      -2.099  -0.329  -1.212  0.00  0.00    +0.277 C 
ATOM     19  O   UNL     1      -1.154  -0.713  -0.212  0.00  0.00    -0.495 OA
ENDBRANCH  12  19
ENDBRANCH   1  15
BRANCH  10  20
ATOM     20  C   UNL     1       6.959   7.195  -0.074  0.00  0.00    -0.025 A 
ATOM     21  C   UNL     1       7.720   6.916   1.046  0.00  0.00    +0.009 A 
ATOM     22  C   UNL     1       8.394   7.932   1.695  0.00  0.00    +0.046 A 
ATOM     23  C   UNL     1       8.299   9.235   1.228  0.00  0.00    +0.120 A 
ATOM     24  C   UNL     1       7.530   9.513   0.107  0.00  0.00    +0.046 A 
ATOM     25  C   UNL     1       6.862   8.493  -0.541  0.00  0.00    +0.009 A 
BRANCH  23  26
ATOM     26  O   UNL     1       8.957  10.237   1.868  0.00  0.00    -0.495 OA
ATOM     27  C   UNL     1       9.729   9.877   3.015  0.00  0.00    +0.277 C 
ENDBRANCH  23  26
ENDBRANCH  10  20
TORSDOF 4
