REMARK  Name = ZINC39688609
REMARK  8 active torsions:
REMARK  status: ('A' for Active; 'I' for Inactive)
REMARK    1  A    between atoms: C_1  and  C_2
REMARK    2  A    between atoms: C_2  and  C_4
REMARK    3  A    between atoms: C_2  and  N_12
REMARK    4  A    between atoms: C_4  and  C_5
REMARK    5  A    between atoms: C_13  and  C_15
REMARK    6  A    between atoms: C_26  and  C_28
REMARK    7  A    between atoms: C_28  and  O_29
REMARK    8  A    between atoms: O_29  and  C_30
REMARK                            x       y       z     vdW  Elec       q    Type
REMARK                         _______ _______ _______ _____ _____    ______ ____
ROOT
ATOM      1  C   UNL     1       2.684  -1.092   2.418  0.00  0.00    +0.100 C 
ATOM      2  C   UNL     1       2.338  -2.592   2.552  0.00  0.00    +0.121 C 
ATOM      3  N   UNL     1       3.472  -3.296   1.908  0.00  0.00    -0.297 N 
ATOM      4  C   UNL     1       4.668  -2.522   2.319  0.00  0.00    +0.115 C 
ATOM      5  C   UNL     1       4.214  -1.050   2.269  0.00  0.00    -0.004 C 
ATOM      6  C   UNL     1       4.836  -0.266   3.421  0.00  0.00    -0.010 C 
ATOM      7  C   UNL     1       6.352  -0.189   3.220  0.00  0.00    -0.082 C 
ATOM      8  N   UNL     1       6.645   0.468   1.940  0.00  0.00    +0.379 N 
ATOM      9  C   UNL     1       6.123  -0.342   0.831  0.00  0.00    -0.082 C 
ATOM     10  C   UNL     1       4.598  -0.425   0.931  0.00  0.00    -0.010 C 
ATOM     11  C   UNL     1       3.426  -4.392   1.125  0.00  0.00    +0.253 C 
ATOM     12  O   UNL     1       4.455  -4.908   0.743  0.00  0.00    -0.272 OA
ATOM     13  H   UNL     1       6.210   1.378   1.923  0.00  0.00    -0.086 HD
ATOM     14  H   UNL     1       7.643   0.572   1.837  0.00  0.00    -0.086 HD
ENDROOT
BRANCH   1  16
ATOM     15  N   UNL     1       1.708   0.802   1.161  0.00  0.00    -0.312 N 
ATOM     16  C   UNL     1       2.022  -0.508   1.196  0.00  0.00    +0.218 C 
ATOM     17  O   UNL     1       1.771  -1.217   0.245  0.00  0.00    -0.275 OA
ATOM     18  H   UNL     1       1.844   1.355   1.946  0.00  0.00    +0.149 HD
BRANCH  15  20
ATOM     19  C   UNL     1       2.310   1.847  -0.967  0.00  0.00    +0.028 C 
ATOM     20  C   UNL     1       1.162   1.392  -0.064  0.00  0.00    +0.074 C 
BRANCH  20  21
ATOM     21  C   UNL     1       0.287   2.595   0.295  0.00  0.00    +0.057 C 
BRANCH  21  22
ATOM     22  C   UNL     1      -0.915   2.127   1.073  0.00  0.00    -0.045 A 
ATOM     23  C   UNL     1      -2.030   1.656   0.405  0.00  0.00    +0.006 A 
ATOM     24  C   UNL     1      -3.134   1.227   1.117  0.00  0.00    +0.038 A 
ATOM     25  C   UNL     1      -3.123   1.268   2.501  0.00  0.00    +0.123 A 
ATOM     26  C   UNL     1      -2.006   1.740   3.170  0.00  0.00    +0.038 A 
ATOM     27  C   UNL     1      -0.901   2.164   2.455  0.00  0.00    +0.006 A 
ATOM     28  F   UNL     1      -4.201   0.849   3.198  0.00  0.00    -0.205 F 
ENDBRANCH  21  22
ENDBRANCH  20  21
ENDBRANCH  15  20
ENDBRANCH   1  16
BRANCH  11  29
ATOM     29  C   UNL     1       2.096  -4.976   0.724  0.00  0.00    +0.324 C 
BRANCH  29  30
ATOM     30  O   UNL     1       2.308  -6.191   0.002  0.00  0.00    -0.483 OA
BRANCH  30  31
ATOM     31  C   UNL     1       1.204  -6.833  -0.464  0.00  0.00    +0.123 A 
ATOM     32  C   UNL     1      -0.047  -6.248  -0.329  0.00  0.00    +0.046 A 
ATOM     33  C   UNL     1      -1.168  -6.902  -0.804  0.00  0.00    +0.005 A 
ATOM     34  C   UNL     1      -1.044  -8.137  -1.413  0.00  0.00    +0.020 A 
ATOM     35  C   UNL     1       0.202  -8.722  -1.548  0.00  0.00    +0.044 A 
ATOM     36  C   UNL     1       1.327  -8.069  -1.079  0.00  0.00    +0.065 A 
ATOM     37 CL   UNL     1       0.354 -10.273  -2.312  0.00  0.00    -0.083 Cl
ENDBRANCH  30  31
ENDBRANCH  29  30
ENDBRANCH  11  29
TORSDOF 7
