REMARK  Name = ZINC14990418
REMARK  11 active torsions:
REMARK  status: ('A' for Active; 'I' for Inactive)
REMARK    1  A    between atoms: C_1  and  C_2
REMARK    2  A    between atoms: C_4  and  C_7
REMARK    3  A    between atoms: C_14  and  C_16
REMARK    4  A    between atoms: C_16  and  C_17
REMARK    5  A    between atoms: C_17  and  O_18
REMARK    6  A    between atoms: O_18  and  C_19
REMARK    7  A    between atoms: C_23  and  C_25
REMARK    8  A    between atoms: C_25  and  N_71
REMARK    9  A    between atoms: C_26  and  N_71
REMARK   10  A    between atoms: C_27  and  C_28
REMARK   11  A    between atoms: C_27  and  N_71
REMARK                            x       y       z     vdW  Elec       q    Type
REMARK                         _______ _______ _______ _____ _____    ______ ____
ROOT
ATOM      1  C   UNL     1      -2.967   1.568  -6.038  0.00  0.00    +0.121 A 
ATOM      2  C   UNL     1      -2.020   0.581  -6.268  0.00  0.00    +0.045 A 
ATOM      3  C   UNL     1      -1.774   0.148  -7.556  0.00  0.00    +0.004 A 
ATOM      4  C   UNL     1      -2.471   0.697  -8.616  0.00  0.00    +0.002 A 
ATOM      5  C   UNL     1      -3.416   1.681  -8.390  0.00  0.00    -0.060 A 
ATOM      6  C   UNL     1      -3.669   2.114  -7.102  0.00  0.00    +0.047 A 
ENDROOT
BRANCH   1   7
ATOM      7  O   UNL     1      -3.210   1.996  -4.771  0.00  0.00    -0.492 OA
BRANCH   7   8
ATOM      8  C   UNL     1      -2.454   1.385  -3.723  0.00  0.00    +0.231 C 
BRANCH   8   9
ATOM      9  C   UNL     1      -2.863   1.991  -2.379  0.00  0.00    +0.063 C 
BRANCH   9  17
ATOM     10  C   UNL     1      -3.328   2.940   0.092  0.00  0.00    +0.266 C 
ATOM     11  O   UNL     1      -3.761   3.441  -0.928  0.00  0.00    -0.268 OA
ATOM     12  N   UNL     1      -2.381   1.983   0.024  0.00  0.00    -0.293 N 
ATOM     13  C   UNL     1      -1.746   1.470   1.245  0.00  0.00    +0.108 C 
ATOM     14  C   UNL     1      -1.876  -0.056   1.268  0.00  0.00    +0.019 C 
ATOM     15  C   UNL     1      -1.300  -0.630  -0.032  0.00  0.00    +0.003 C 
ATOM     16  C   UNL     1      -2.093  -0.093  -1.226  0.00  0.00    +0.023 C 
ATOM     17  C   UNL     1      -1.965   1.433  -1.274  0.00  0.00    +0.080 C 
BRANCH  10  21
ATOM     18  C   UNL     1      -4.012   2.393   4.998  0.00  0.00    +0.073 C 
ATOM     19  C   UNL     1      -4.112   3.059   3.650  0.00  0.00    +0.076 A 
ATOM     20  N   UNL     1      -3.654   2.642   2.498  0.00  0.00    -0.240 NA
ATOM     21  C   UNL     1      -3.837   3.379   1.402  0.00  0.00    +0.133 A 
ATOM     22  C   UNL     1      -4.524   4.559   1.539  0.00  0.00    +0.080 A 
ATOM     23  S   UNL     1      -4.869   4.563   3.239  0.00  0.00    -0.080 S 
ENDBRANCH  10  21
ENDBRANCH   9  17
ENDBRANCH   8   9
ENDBRANCH   7   8
ENDBRANCH   1   7
BRANCH   5  24
ATOM     24  C   UNL     1      -4.174   2.277  -9.547  0.00  0.00    -0.043 C 
BRANCH  24  26
ATOM     25  C   UNL     1      -5.080   0.140 -10.238  0.00  0.00    -0.095 C 
ATOM     26  N   UNL     1      -5.413   1.498  -9.758  0.00  0.00    +0.383 N 
ATOM     27  H   UNL     1      -5.915   1.423  -8.866  0.00  0.00    -0.081 HD
BRANCH  26  28
ATOM     28  C   UNL     1      -6.279   2.183 -10.741  0.00  0.00    -0.041 C 
BRANCH  28  29
ATOM     29  C   UNL     1      -7.618   1.492 -10.773  0.00  0.00    -0.038 A 
ATOM     30  C   UNL     1      -7.911   0.616 -11.772  0.00  0.00    +0.004 A 
ATOM     31  C   UNL     1      -9.143  -0.033 -11.821  0.00  0.00    +0.001 A 
ATOM     32  C   UNL     1     -10.089   0.191 -10.867  0.00  0.00    +0.010 A 
ATOM     33  C   UNL     1      -9.821   1.088  -9.821  0.00  0.00    +0.001 A 
ATOM     34  C   UNL     1      -8.566   1.746  -9.767  0.00  0.00    +0.072 A 
ATOM     35  N   UNL     1      -8.304   2.596  -8.769  0.00  0.00    -0.255 NA
ATOM     36  C   UNL     1      -9.185   2.836  -7.829  0.00  0.00    +0.111 A 
ATOM     37  C   UNL     1     -10.434   2.219  -7.819  0.00  0.00    +0.020 A 
ATOM     38  C   UNL     1     -10.771   1.348  -8.816  0.00  0.00    +0.011 A 
ENDBRANCH  28  29
ENDBRANCH  26  28
ENDBRANCH  24  26
ENDBRANCH   5  24
TORSDOF 9
