REMARK  Name = ZINC16844466
REMARK  10 active torsions:
REMARK  status: ('A' for Active; 'I' for Inactive)
REMARK    1  A    between atoms: C_1  and  C_2
REMARK    2  A    between atoms: C_2  and  O_3
REMARK    3  A    between atoms: O_3  and  C_4
REMARK    4  A    between atoms: C_4  and  C_6
REMARK    5  A    between atoms: C_10  and  N_11
REMARK    6  A    between atoms: C_12  and  C_14
REMARK    7  A    between atoms: C_14  and  C_15
REMARK    8  A    between atoms: N_19  and  C_24
REMARK    9  A    between atoms: N_21  and  C_22
REMARK   10  A    between atoms: C_26  and  C_30
REMARK                            x       y       z     vdW  Elec       q    Type
REMARK                         _______ _______ _______ _____ _____    ______ ____
ROOT
ATOM      1  C   UNL     1      -2.842  -2.416   0.016  0.00  0.00    +0.091 A 
ATOM      2  C   UNL     1      -3.548  -2.714  -1.219  0.00  0.00    -0.021 A 
ATOM      3  C   UNL     1      -4.777  -3.243  -1.039  0.00  0.00    -0.004 A 
ATOM      4  S   UNL     1      -4.974  -3.336   0.716  0.00  0.00    -0.077 S 
ATOM      5  C   UNL     1      -3.495  -2.708   1.205  0.00  0.00    +0.086 A 
ATOM      6  C   UNL     1      -5.743  -3.656  -2.106  0.00  0.00    +0.046 C 
ATOM      7  C   UNL     1      -4.984  -3.738  -3.439  0.00  0.00    -0.009 C 
ATOM      8  C   UNL     1      -4.148  -2.467  -3.612  0.00  0.00    +0.008 C 
ATOM      9  C   UNL     1      -2.989  -2.466  -2.612  0.00  0.00    +0.037 C 
ATOM     10  C   UNL     1      -5.983  -3.859  -4.591  0.00  0.00    +0.008 C 
ENDROOT
BRANCH   5  11
ATOM     11  N   UNL     1      -3.034  -2.523   2.498  0.00  0.00    -0.279 N 
ATOM     12  C   UNL     1      -3.809  -2.866   3.546  0.00  0.00    +0.219 C 
ATOM     13  O   UNL     1      -4.910  -3.338   3.357  0.00  0.00    -0.275 OA
ATOM     14  H   UNL     1      -2.153  -2.146   2.650  0.00  0.00    +0.155 HD
BRANCH  12  15
ATOM     15  C   UNL     1      -3.307  -2.665   4.953  0.00  0.00    +0.120 C 
BRANCH  15  16
ATOM     16  C   UNL     1      -4.372  -3.132   5.946  0.00  0.00    +0.149 C 
ATOM     17  C   UNL     1      -3.918  -2.920   7.381  0.00  0.00    +0.235 C 
ATOM     18  O   UNL     1      -3.683  -1.816   7.826  0.00  0.00    -0.274 OA
ATOM     19  N   UNL     1      -3.796  -4.012   8.115  0.00  0.00    -0.253 N 
ATOM     20  C   UNL     1      -4.063  -5.272   7.616  0.00  0.00    +0.158 C 
ATOM     21  N   UNL     1      -3.980  -6.417   8.234  0.00  0.00    -0.266 NA
ATOM     22  C   UNL     1      -4.308  -7.657   7.526  0.00  0.00    +0.173 C 
ATOM     23  S   UNL     1      -4.548  -4.964   5.923  0.00  0.00    -0.077 S 
ATOM     24  C   UNL     1      -3.362  -3.882   9.508  0.00  0.00    +0.140 C 
ENDBRANCH  15  16
ENDBRANCH  12  15
ENDBRANCH   5  11
BRANCH   1  25
ATOM     25  C   UNL     1      -1.497  -1.838   0.006  0.00  0.00    +0.342 C 
ATOM     26  O   UNL     1      -0.523  -2.566  -0.007  0.00  0.00    -0.245 OA
BRANCH  25  27
ATOM     27  O   UNL     1      -1.339  -0.499   0.012  0.00  0.00    -0.461 OA
BRANCH  27  29
ATOM     28  C   UNL     1      -0.019   1.526   0.010  0.00  0.00    +0.048 C 
ATOM     29  C   UNL     1       0.002  -0.004   0.002  0.00  0.00    +0.229 C 
ENDBRANCH  27  29
ENDBRANCH  25  27
ENDBRANCH   1  25
TORSDOF 6
