REMARK  Name = ZINC09377646
REMARK  10 active torsions:
REMARK  status: ('A' for Active; 'I' for Inactive)
REMARK    1  A    between atoms: C_1  and  C_2
REMARK    2  A    between atoms: C_2  and  C_4
REMARK    3  A    between atoms: C_2  and  N_57
REMARK    4  A    between atoms: C_7  and  S_16
REMARK    5  A    between atoms: N_8  and  C_9
REMARK    6  A    between atoms: S_16  and  C_17
REMARK    7  A    between atoms: C_17  and  C_18
REMARK    8  A    between atoms: N_24  and  C_25
REMARK    9  A    between atoms: C_32  and  N_57
REMARK   10  A    between atoms: C_33  and  N_57
REMARK                            x       y       z     vdW  Elec       q    Type
REMARK                         _______ _______ _______ _____ _____    ______ ____
ROOT
ATOM      1  S   UNL     1      -4.553   5.748  -1.402  0.00  0.00    -0.078 S 
ENDROOT
BRANCH   1   5
ATOM      2  C   UNL     1      -1.685   3.696   0.270  0.00  0.00    +0.125 A 
ATOM      3  N   UNL     1      -1.787   3.137  -0.903  0.00  0.00    -0.135 NA
ATOM      4  N   UNL     1      -2.712   3.709  -1.587  0.00  0.00    -0.122 NA
ATOM      5  C   UNL     1      -3.252   4.679  -0.885  0.00  0.00    +0.196 A 
ATOM      6  N   UNL     1      -2.612   4.702   0.324  0.00  0.00    -0.275 N 
BRANCH   6   7
ATOM      7  C   UNL     1      -2.856   5.574   1.396  0.00  0.00    +0.050 A 
ATOM      8  C   UNL     1      -3.350   5.080   2.595  0.00  0.00    +0.029 A 
ATOM      9  C   UNL     1      -3.584   5.939   3.651  0.00  0.00    +0.040 A 
ATOM     10  C   UNL     1      -3.336   7.294   3.510  0.00  0.00    +0.124 A 
ATOM     11  C   UNL     1      -2.848   7.789   2.312  0.00  0.00    +0.040 A 
ATOM     12  C   UNL     1      -2.608   6.932   1.256  0.00  0.00    +0.029 A 
ATOM     13  F   UNL     1      -3.571   8.134   4.542  0.00  0.00    -0.205 F 
ENDBRANCH   6   7
BRANCH   2  15
ATOM     14  C   UNL     1       0.683   3.803   1.000  0.00  0.00    -0.005 C 
ATOM     15  C   UNL     1      -0.720   3.311   1.361  0.00  0.00    -0.003 C 
BRANCH  15  18
ATOM     16  C   UNL     1      -0.148   1.206   0.308  0.00  0.00    -0.096 C 
ATOM     17  C   UNL     1       0.039   1.448   2.710  0.00  0.00    -0.096 C 
ATOM     18  N   UNL     1      -0.730   1.840   1.510  0.00  0.00    +0.382 N 
ATOM     19  H   UNL     1      -1.701   1.523   1.618  0.00  0.00    -0.082 HD
ENDBRANCH  15  18
ENDBRANCH   2  15
ENDBRANCH   1   5
BRANCH   1  20
ATOM     20  C   UNL     1      -4.848   5.102  -3.067  0.00  0.00    +0.153 C 
BRANCH  20  21
ATOM     21  C   UNL     1      -5.955   5.888  -3.722  0.00  0.00    +0.146 A 
ATOM     22  N   UNL     1      -7.210   5.493  -3.591  0.00  0.00    -0.199 NA
ATOM     23  C   UNL     1      -8.190   6.188  -4.164  0.00  0.00    +0.217 A 
ATOM     24  N   UNL     1      -7.905   7.272  -4.877  0.00  0.00    -0.181 NA
ATOM     25  C   UNL     1      -6.643   7.662  -5.011  0.00  0.00    +0.224 A 
ATOM     26  N   UNL     1      -5.668   6.965  -4.430  0.00  0.00    -0.198 NA
ATOM     27  N   UNL     1      -6.341   8.789  -5.750  0.00  0.00    -0.284 N 
ATOM     28  N   UNL     1      -9.501   5.779  -4.022  0.00  0.00    -0.327 N 
ATOM     29  H   UNL     1      -5.430   9.119  -5.782  0.00  0.00    +0.155 HD
ATOM     30  H   UNL     1     -10.214   6.283  -4.443  0.00  0.00    +0.145 HD
ATOM     31  H   UNL     1      -9.708   4.987  -3.502  0.00  0.00    +0.145 HD
BRANCH  27  32
ATOM     32  C   UNL     1      -7.350   9.454  -6.454  0.00  0.00    +0.034 A 
ATOM     33  C   UNL     1      -8.404   8.736  -7.004  0.00  0.00    +0.023 A 
ATOM     34  C   UNL     1      -9.402   9.396  -7.693  0.00  0.00    +0.002 A 
ATOM     35  C   UNL     1      -9.347  10.770  -7.846  0.00  0.00    +0.000 A 
ATOM     36  C   UNL     1      -8.296  11.487  -7.304  0.00  0.00    +0.002 A 
ATOM     37  C   UNL     1      -7.298  10.833  -6.609  0.00  0.00    +0.023 A 
ENDBRANCH  27  32
ENDBRANCH  20  21
ENDBRANCH   1  20
TORSDOF 7
