REMARK  Name = ZINC20642753
REMARK  14 active torsions:
REMARK  status: ('A' for Active; 'I' for Inactive)
REMARK    1  A    between atoms: C_1  and  C_2
REMARK    2  A    between atoms: C_2  and  C_3
REMARK    3  A    between atoms: C_3  and  C_4
REMARK    4  A    between atoms: C_4  and  N_5
REMARK    5  A    between atoms: C_6  and  C_8
REMARK    6  A    between atoms: C_8  and  C_9
REMARK    7  A    between atoms: C_9  and  C_10
REMARK    8  A    between atoms: C_24  and  S_25
REMARK    9  A    between atoms: S_25  and  C_26
REMARK   10  A    between atoms: C_26  and  C_28
REMARK   11  A    between atoms: C_26  and  C_30
REMARK   12  A    between atoms: C_28  and  C_29
REMARK   13  A    between atoms: N_32  and  C_33
REMARK   14  A    between atoms: C_33  and  C_34
REMARK                            x       y       z     vdW  Elec       q    Type
REMARK                         _______ _______ _______ _____ _____    ______ ____
ROOT
ATOM      1  C   UNL     1      -1.108   7.296   1.234  0.00  0.00    +0.194 C 
ATOM      2  C   UNL     1      -0.798   6.170   0.270  0.00  0.00    +0.251 C 
ATOM      3  O   UNL     1      -0.191   6.246  -0.776  0.00  0.00    -0.272 OA
ATOM      4  N   UNL     1      -1.340   5.061   0.823  0.00  0.00    -0.200 N 
ATOM      5  C   UNL     1      -1.958   5.375   2.022  0.00  0.00    +0.139 C 
ATOM      6  N   UNL     1      -1.857   6.641   2.315  0.00  0.00    -0.255 NA
ATOM      7  C   UNL     1      -2.607   4.270   2.759  0.00  0.00    +0.041 A 
ATOM      8  C   UNL     1      -3.250   4.486   3.973  0.00  0.00    +0.013 A 
ATOM      9  C   UNL     1      -3.844   3.425   4.627  0.00  0.00    +0.001 A 
ATOM     10  C   UNL     1      -3.803   2.150   4.080  0.00  0.00    +0.002 A 
ATOM     11  C   UNL     1      -3.170   1.917   2.879  0.00  0.00    +0.028 A 
ATOM     12  C   UNL     1      -2.563   2.976   2.200  0.00  0.00    +0.077 A 
ATOM     13  N   UNL     1      -1.933   2.784   1.014  0.00  0.00    -0.225 NA
ATOM     14  C   UNL     1      -1.360   3.760   0.364  0.00  0.00    +0.170 C 
ENDROOT
BRANCH   1  15
ATOM     15  C   UNL     1       0.185   7.910   1.774  0.00  0.00    +0.045 C 
BRANCH  15  16
ATOM     16  C   UNL     1      -0.154   9.060   2.724  0.00  0.00    +0.098 C 
BRANCH  16  18
ATOM     17  N   UNL     1       1.065  10.700   4.117  0.00  0.00    -0.315 N 
ATOM     18  C   UNL     1       1.119   9.665   3.256  0.00  0.00    +0.213 C 
ATOM     19  O   UNL     1       2.193   9.221   2.908  0.00  0.00    -0.276 OA
ATOM     20  H   UNL     1       0.092  11.104   4.432  0.00  0.00    +0.149 HD
BRANCH  17  21
ATOM     21  C   UNL     1       2.304  11.289   4.633  0.00  0.00    +0.104 C 
BRANCH  21  22
ATOM     22  C   UNL     1       1.964  12.439   5.584  0.00  0.00    +0.018 C 
BRANCH  22  24
ATOM     23  C   UNL     1       2.917  14.203   7.074  0.00  0.00    +0.004 C 
ATOM     24  C   UNL     1       3.257  13.053   6.123  0.00  0.00    -0.002 C 
ENDBRANCH  22  24
ENDBRANCH  21  22
ENDBRANCH  17  21
ENDBRANCH  16  18
ENDBRANCH  15  16
ENDBRANCH   1  15
BRANCH  14  25
ATOM     25  S   UNL     1      -0.569   3.399  -1.168  0.00  0.00    -0.077 S 
BRANCH  25  26
ATOM     26  C   UNL     1      -0.779   1.602  -1.214  0.00  0.00    +0.139 C 
BRANCH  26  27
ATOM     27  C   UNL     1      -2.237   1.272  -1.404  0.00  0.00    +0.227 C 
ATOM     28  O   UNL     1      -2.976   2.072  -1.938  0.00  0.00    -0.275 OA
ATOM     29  N   UNL     1      -2.720   0.086  -0.981  0.00  0.00    -0.307 N 
ATOM     30  H   UNL     1      -2.050  -0.640  -0.498  0.00  0.00    +0.149 HD
BRANCH  29  31
ATOM     31  C   UNL     1      -4.138  -0.235  -1.166  0.00  0.00    +0.178 C 
BRANCH  31  32
ATOM     32  C   UNL     1      -4.418  -1.607  -0.611  0.00  0.00    +0.122 A 
ATOM     33  C   UNL     1      -4.786  -1.885   0.653  0.00  0.00    +0.046 A 
ATOM     34  C   UNL     1      -4.944  -3.288   0.734  0.00  0.00    +0.041 A 
ATOM     35  C   UNL     1      -4.656  -3.784  -0.482  0.00  0.00    +0.195 A 
ATOM     36  O   UNL     1      -4.338  -2.762  -1.293  0.00  0.00    -0.466 OA
ENDBRANCH  31  32
ENDBRANCH  29  31
ENDBRANCH  26  27
BRANCH  26  37
ATOM     37  C   UNL     1       0.030   1.023  -2.376  0.00  0.00    +0.020 C 
ATOM     38  C   UNL     1       1.523   1.234  -2.113  0.00  0.00    +0.005 C 
ENDBRANCH  26  37
ENDBRANCH  25  26
ENDBRANCH  14  25
TORSDOF 12
