REMARK  Name = ZINC35967552
REMARK  12 active torsions:
REMARK  status: ('A' for Active; 'I' for Inactive)
REMARK    1  A    between atoms: C_1  and  C_2
REMARK    2  A    between atoms: C_2  and  N_3
REMARK    3  A    between atoms: C_6  and  C_11
REMARK    4  A    between atoms: C_16  and  C_17
REMARK    5  A    between atoms: N_23  and  C_25
REMARK    6  A    between atoms: C_25  and  C_27
REMARK    7  A    between atoms: C_25  and  C_34
REMARK    8  A    between atoms: C_27  and  C_28
REMARK    9  A    between atoms: N_36  and  C_37
REMARK   10  A    between atoms: C_37  and  C_38
REMARK   11  A    between atoms: C_38  and  C_39
REMARK   12  A    between atoms: C_38  and  C_40
REMARK                            x       y       z     vdW  Elec       q    Type
REMARK                         _______ _______ _______ _____ _____    ______ ____
ROOT
ATOM      1  N   UNL     1      -1.383  -0.503   0.075  0.00  0.00    -0.257 N 
ATOM      2  C   UNL     1      -2.067  -0.668   1.245  0.00  0.00    +0.042 C 
ATOM      3  C   UNL     1      -3.333  -1.133   1.255  0.00  0.00    +0.058 C 
ATOM      4  C   UNL     1      -3.971  -1.467  -0.079  0.00  0.00    +0.142 C 
ATOM      5  N   UNL     1      -3.150  -1.254  -1.282  0.00  0.00    -0.288 N 
ATOM      6  C   UNL     1      -1.899  -0.777  -1.130  0.00  0.00    +0.307 C 
ATOM      7  O   UNL     1      -1.215  -0.594  -2.119  0.00  0.00    -0.252 OA
ATOM      8  C   UNL     1      -3.816  -1.214   2.577  0.00  0.00    +0.247 C 
ATOM      9  O   UNL     1      -4.929  -1.602   2.880  0.00  0.00    -0.270 OA
ATOM     10  N   UNL     1      -2.886  -0.806   3.459  0.00  0.00    -0.280 N 
ATOM     11  C   UNL     1      -1.693  -0.424   2.690  0.00  0.00    +0.160 C 
ATOM     12  H   UNL     1      -3.503  -1.450  -2.165  0.00  0.00    +0.151 HD
ENDROOT
BRANCH   4  13
ATOM     13  C   UNL     1      -4.381  -2.917  -0.047  0.00  0.00    -0.011 A 
ATOM     14  C   UNL     1      -3.418  -3.909  -0.077  0.00  0.00    +0.006 A 
ATOM     15  C   UNL     1      -3.794  -5.239  -0.049  0.00  0.00    +0.000 A 
ATOM     16  C   UNL     1      -5.134  -5.577   0.010  0.00  0.00    +0.001 A 
ATOM     17  C   UNL     1      -6.096  -4.585   0.041  0.00  0.00    +0.013 A 
ATOM     18  C   UNL     1      -5.720  -3.255   0.017  0.00  0.00    +0.060 A 
BRANCH  18  19
ATOM     19  C   UNL     1      -6.769  -2.174   0.056  0.00  0.00    +0.418 C 
ATOM     20  F   UNL     1      -8.034  -2.757   0.191  0.00  0.00    -0.166 F 
ATOM     21  F   UNL     1      -6.527  -1.328   1.143  0.00  0.00    -0.166 F 
ATOM     22  F   UNL     1      -6.720  -1.434  -1.130  0.00  0.00    -0.166 F 
ENDBRANCH  18  19
ENDBRANCH   4  13
BRANCH   1  24
ATOM     23  C   UNL     1      -0.032   1.536   0.070  0.00  0.00    +0.025 C 
ATOM     24  C   UNL     1      -0.011   0.008   0.141  0.00  0.00    +0.111 C 
ENDBRANCH   1  24
BRANCH  10  25
ATOM     25  C   UNL     1      -3.034  -0.753   4.916  0.00  0.00    +0.167 C 
BRANCH  25  26
ATOM     26  C   UNL     1      -4.172   0.169   5.271  0.00  0.00    +0.234 C 
ATOM     27  O   UNL     1      -4.798   0.726   4.395  0.00  0.00    -0.274 OA
ATOM     28  N   UNL     1      -4.495   0.373   6.564  0.00  0.00    -0.314 N 
ATOM     29  H   UNL     1      -3.995  -0.072   7.265  0.00  0.00    +0.149 HD
BRANCH  28  30
ATOM     30  C   UNL     1      -5.601   1.269   6.910  0.00  0.00    +0.107 C 
BRANCH  30  31
ATOM     31  C   UNL     1      -5.756   1.325   8.431  0.00  0.00    -0.000 C 
ATOM     32  C   UNL     1      -6.828   2.354   8.797  0.00  0.00    +0.009 C 
ATOM     33  C   UNL     1      -6.173  -0.052   8.952  0.00  0.00    +0.009 C 
ENDBRANCH  30  31
ENDBRANCH  28  30
ENDBRANCH  25  26
BRANCH  25  34
ATOM     34  C   UNL     1      -3.328  -2.156   5.450  0.00  0.00    +0.067 C 
BRANCH  34  35
ATOM     35  C   UNL     1      -2.138  -3.047   5.203  0.00  0.00    -0.045 A 
ATOM     36  C   UNL     1      -2.042  -3.762   4.024  0.00  0.00    +0.004 A 
ATOM     37  C   UNL     1      -0.951  -4.579   3.797  0.00  0.00    +0.000 A 
ATOM     38  C   UNL     1       0.045  -4.681   4.750  0.00  0.00    +0.000 A 
ATOM     39  C   UNL     1      -0.049  -3.966   5.929  0.00  0.00    +0.000 A 
ATOM     40  C   UNL     1      -1.139  -3.146   6.154  0.00  0.00    +0.004 A 
ENDBRANCH  34  35
ENDBRANCH  25  34
ENDBRANCH  10  25
TORSDOF 9
