REMARK  Name = ZINC39923404
REMARK  9 active torsions:
REMARK  status: ('A' for Active; 'I' for Inactive)
REMARK    1  A    between atoms: C_1  and  O_2
REMARK    2  A    between atoms: O_2  and  C_3
REMARK    3  A    between atoms: C_6  and  C_9
REMARK    4  A    between atoms: C_13  and  S_21
REMARK    5  A    between atoms: N_14  and  C_15
REMARK    6  A    between atoms: S_21  and  C_22
REMARK    7  A    between atoms: C_22  and  C_23
REMARK    8  A    between atoms: N_25  and  N_26
REMARK    9  A    between atoms: C_27  and  C_28
REMARK                            x       y       z     vdW  Elec       q    Type
REMARK                         _______ _______ _______ _____ _____    ______ ____
ROOT
ATOM      1  C   UNL     1       2.503  -2.510  -4.395  0.00  0.00    +0.213 C 
ATOM      2  N   UNL     1       3.565  -1.645  -4.938  0.00  0.00    -0.242 N 
ATOM      3  N   UNL     1       4.762  -2.354  -4.782  0.00  0.00    -0.162 NA
ATOM      4  C   UNL     1       4.563  -3.503  -4.230  0.00  0.00    +0.180 C 
ATOM      5  N   UNL     1       3.218  -3.716  -3.947  0.00  0.00    -0.254 N 
ATOM      6  H   UNL     1       3.456  -0.763  -5.326  0.00  0.00    +0.170 HD
ENDROOT
BRANCH   1  10
ATOM      7  C   UNL     1       0.558  -0.607  -1.100  0.00  0.00    +0.120 A 
ATOM      8  C   UNL     1       1.156   0.159  -2.090  0.00  0.00    +0.046 A 
ATOM      9  C   UNL     1       1.784  -0.459  -3.155  0.00  0.00    +0.011 A 
ATOM     10  C   UNL     1       1.817  -1.839  -3.233  0.00  0.00    -0.008 A 
ATOM     11  C   UNL     1       1.222  -2.604  -2.247  0.00  0.00    +0.011 A 
ATOM     12  C   UNL     1       0.598  -1.991  -1.178  0.00  0.00    +0.046 A 
BRANCH   7  14
ATOM     13  C   UNL     1      -0.061   1.427  -0.037  0.00  0.00    +0.277 C 
ATOM     14  O   UNL     1      -0.060  -0.001  -0.052  0.00  0.00    -0.495 OA
ENDBRANCH   7  14
ENDBRANCH   1  10
BRANCH   5  15
ATOM     15  C   UNL     1       2.656  -4.849  -3.353  0.00  0.00    +0.038 A 
ATOM     16  C   UNL     1       1.770  -5.644  -4.071  0.00  0.00    +0.023 A 
ATOM     17  C   UNL     1       1.216  -6.763  -3.482  0.00  0.00    +0.002 A 
ATOM     18  C   UNL     1       1.542  -7.093  -2.179  0.00  0.00    +0.000 A 
ATOM     19  C   UNL     1       2.423  -6.304  -1.462  0.00  0.00    +0.002 A 
ATOM     20  C   UNL     1       2.985  -5.187  -2.047  0.00  0.00    +0.023 A 
ENDBRANCH   5  15
BRANCH   4  21
ATOM     21  S   UNL     1       5.841  -4.664  -3.878  0.00  0.00    -0.079 S 
BRANCH  21  22
ATOM     22  C   UNL     1       7.351  -3.845  -4.462  0.00  0.00    +0.174 C 
BRANCH  22  23
ATOM     23  C   UNL     1       8.536  -4.743  -4.218  0.00  0.00    +0.242 C 
ATOM     24  O   UNL     1       8.378  -5.828  -3.701  0.00  0.00    -0.273 OA
ATOM     25  N   UNL     1       9.772  -4.340  -4.574  0.00  0.00    -0.206 N 
ATOM     26  H   UNL     1       9.898  -3.471  -4.988  0.00  0.00    +0.177 HD
BRANCH  25  27
ATOM     27  N   UNL     1      10.874  -5.175  -4.347  0.00  0.00    -0.188 NA
ATOM     28  C   UNL     1      12.074  -4.783  -4.693  0.00  0.00    +0.136 C 
BRANCH  28  29
ATOM     29  C   UNL     1      13.177  -5.619  -4.466  0.00  0.00    +0.000 C 
ATOM     30  C   UNL     1      14.511  -5.353  -4.766  0.00  0.00    +0.004 A 
ATOM     31  C   UNL     1      15.153  -4.242  -5.355  0.00  0.00    +0.010 A 
ATOM     32  C   UNL     1      16.499  -4.258  -5.531  0.00  0.00    +0.001 A 
ATOM     33  C   UNL     1      17.276  -5.353  -5.143  0.00  0.00    +0.002 A 
ATOM     34  C   UNL     1      16.727  -6.452  -4.572  0.00  0.00    +0.026 A 
ATOM     35  C   UNL     1      15.325  -6.510  -4.355  0.00  0.00    +0.043 A 
ATOM     36  N   UNL     1      14.563  -7.446  -3.829  0.00  0.00    -0.380 N 
ATOM     37  C   UNL     1      13.168  -6.994  -3.836  0.00  0.00    +0.150 C 
ATOM     38  H   UNL     1      14.875  -8.298  -3.487  0.00  0.00    +0.160 HD
ENDBRANCH  28  29
ENDBRANCH  25  27
ENDBRANCH  22  23
ENDBRANCH  21  22
ENDBRANCH   4  21
TORSDOF 8
