REMARK  Name = ZINC43405545
REMARK  8 active torsions:
REMARK  status: ('A' for Active; 'I' for Inactive)
REMARK    1  A    between atoms: C_1  and  C_2
REMARK    2  A    between atoms: C_2  and  C_3
REMARK    3  A    between atoms: C_2  and  N_4
REMARK    4  A    between atoms: C_5  and  C_7
REMARK    5  A    between atoms: C_7  and  N_8
REMARK    6  A    between atoms: N_8  and  C_9
REMARK    7  A    between atoms: C_11  and  C_19
REMARK    8  A    between atoms: C_19  and  N_20
REMARK                            x       y       z     vdW  Elec       q    Type
REMARK                         _______ _______ _______ _____ _____    ______ ____
ROOT
ATOM      1  N   UNL     1      -3.862  -1.105  -2.572  0.00  0.00    -0.311 N 
ATOM      2  C   UNL     1      -2.434  -1.240  -2.870  0.00  0.00    +0.131 C 
ATOM      3  C   UNL     1      -4.606  -0.097  -3.174  0.00  0.00    +0.100 A 
ATOM      4  C   UNL     1      -5.161  -0.307  -4.433  0.00  0.00    -0.027 A 
ATOM      5  C   UNL     1      -5.897   0.707  -5.016  0.00  0.00    +0.010 A 
ATOM      6  C   UNL     1      -6.056   1.901  -4.323  0.00  0.00    -0.028 A 
ATOM      7  C   UNL     1      -5.478   2.044  -3.077  0.00  0.00    +0.021 A 
ATOM      8  N   UNL     1      -4.783   1.052  -2.544  0.00  0.00    -0.346 N 
ATOM      9  C   UNL     1      -5.790   3.421  -2.528  0.00  0.00    +0.054 C 
ATOM     10  C   UNL     1      -6.243   4.251  -3.748  0.00  0.00    +0.011 C 
ATOM     11  C   UNL     1      -6.793   3.166  -4.699  0.00  0.00    +0.037 C 
ATOM     12  H   UNL     1      -4.388   1.172  -1.666  0.00  0.00    +0.167 HD
ENDROOT
BRANCH   1  13
ATOM     13  C   UNL     1      -4.507  -2.034  -1.641  0.00  0.00    +0.201 C 
BRANCH  13  15
ATOM     14  N   UNL     1      -4.863  -2.222   0.800  0.00  0.00    -0.312 N 
ATOM     15  C   UNL     1      -4.346  -1.525  -0.232  0.00  0.00    +0.231 C 
ATOM     16  O   UNL     1      -3.751  -0.489  -0.026  0.00  0.00    -0.274 OA
ATOM     17  H   UNL     1      -5.339  -3.051   0.635  0.00  0.00    +0.149 HD
BRANCH  14  19
ATOM     18  C   UNL     1      -5.818  -0.724   2.481  0.00  0.00    +0.027 C 
ATOM     19  C   UNL     1      -4.706  -1.727   2.170  0.00  0.00    +0.067 C 
ATOM     20  C   UNL     1      -4.789  -2.900   3.148  0.00  0.00    +0.027 C 
ENDBRANCH  14  19
ENDBRANCH  13  15
ENDBRANCH   1  13
BRANCH   4  21
ATOM     21  C   UNL     1      -4.962  -1.619  -5.148  0.00  0.00    -0.047 C 
BRANCH  21  22
ATOM     22  N   UNL     1      -5.891  -2.619  -4.604  0.00  0.00    +0.381 N 
ATOM     23  H   UNL     1      -5.716  -3.512  -5.039  0.00  0.00    -0.090 HD
ATOM     24  H   UNL     1      -5.755  -2.697  -3.607  0.00  0.00    -0.090 HD
ATOM     25  H   UNL     1      -6.841  -2.333  -4.792  0.00  0.00    -0.090 HD
ENDBRANCH  21  22
ENDBRANCH   4  21
TORSDOF 5
