REMARK  Name = ZINC39353538
REMARK  5 active torsions:
REMARK  status: ('A' for Active; 'I' for Inactive)
REMARK    1  A    between atoms: C_7  and  C_10
REMARK    2  A    between atoms: C_10  and  C_11
REMARK    3  A    between atoms: C_11  and  C_12
REMARK    4  A    between atoms: C_17  and  N_20
REMARK    5  A    between atoms: C_28  and  C_30
REMARK                            x       y       z     vdW  Elec       q    Type
REMARK                         _______ _______ _______ _____ _____    ______ ____
ROOT
ATOM      1  C   UNL     1      -4.978   5.087  -1.361  0.00  0.00    +0.216 C 
ATOM      2  O   UNL     1      -5.271   5.614  -0.309  0.00  0.00    -0.276 OA
ATOM      3  N   UNL     1      -5.135   5.758  -2.519  0.00  0.00    -0.301 N 
ATOM      4  C   UNL     1      -4.790   5.130  -3.802  0.00  0.00    +0.109 C 
ATOM      5  C   UNL     1      -3.822   6.048  -4.556  0.00  0.00    +0.041 C 
ATOM      6  C   UNL     1      -4.443   7.441  -4.685  0.00  0.00    +0.080 C 
ATOM      7  C   UNL     1      -4.678   8.028  -3.291  0.00  0.00    +0.041 C 
ATOM      8  C   UNL     1      -5.661   7.130  -2.523  0.00  0.00    +0.109 C 
ENDROOT
BRANCH   6   9
ATOM      9  N   UNL     1      -3.534   8.313  -5.434  0.00  0.00    -0.293 N 
ATOM     10  C   UNL     1      -2.226   8.642  -5.077  0.00  0.00    +0.122 A 
ATOM     11  C   UNL     1      -1.679   9.495  -6.036  0.00  0.00    +0.067 A 
ATOM     12  C   UNL     1      -0.375   9.948  -5.875  0.00  0.00    +0.028 A 
ATOM     13  C   UNL     1       0.338   9.533  -4.759  0.00  0.00    +0.019 A 
ATOM     14  C   UNL     1      -0.266   8.689  -3.850  0.00  0.00    +0.084 A 
ATOM     15  N   UNL     1      -1.505   8.273  -4.026  0.00  0.00    -0.348 N 
ATOM     16  N   UNL     1      -2.618   9.743  -7.045  0.00  0.00    -0.323 N 
ATOM     17  C   UNL     1      -3.832   8.994  -6.699  0.00  0.00    +0.163 C 
ATOM     18  H   UNL     1      -2.489  10.303  -7.826  0.00  0.00    +0.148 HD
ATOM     19  H   UNL     1      -1.901   7.679  -3.369  0.00  0.00    +0.167 HD
BRANCH  17  20
ATOM     20  C   UNL     1      -4.150   7.968  -7.789  0.00  0.00    +0.028 C 
ATOM     21  C   UNL     1      -4.982   8.539  -8.949  0.00  0.00    +0.007 C 
ATOM     22  C   UNL     1      -5.759   7.212  -8.942  0.00  0.00    +0.001 C 
ATOM     23  C   UNL     1      -5.361   7.078  -7.462  0.00  0.00    +0.007 C 
ENDBRANCH  17  20
ENDBRANCH   6   9
BRANCH   1  24
ATOM     24  C   UNL     1      -4.437   3.680  -1.374  0.00  0.00    +0.100 C 
BRANCH  24  25
ATOM     25  C   UNL     1      -4.358   3.151   0.060  0.00  0.00    +0.046 C 
BRANCH  25  32
ATOM     26  C   UNL     1      -0.017   1.384   0.010  0.00  0.00    +0.001 A 
ATOM     27  C   UNL     1       0.002  -0.004   0.002  0.00  0.00    +0.002 A 
ATOM     28  C   UNL     1      -1.173  -0.723   0.009  0.00  0.00    +0.026 A 
ATOM     29  C   UNL     1      -2.392  -0.053   0.024  0.00  0.00    +0.047 A 
ATOM     30  N   UNL     1      -3.704  -0.472   0.034  0.00  0.00    -0.360 N 
ATOM     31  C   UNL     1      -4.539   0.612   0.047  0.00  0.00    +0.087 A 
ATOM     32  C   UNL     1      -3.818   1.744   0.047  0.00  0.00    -0.022 A 
ATOM     33  C   UNL     1      -2.406   1.353   0.032  0.00  0.00    +0.003 A 
ATOM     34  C   UNL     1      -1.203   2.062   0.030  0.00  0.00    +0.010 A 
ATOM     35  H   UNL     1      -3.993  -1.398   0.030  0.00  0.00    +0.165 HD
ENDBRANCH  25  32
ENDBRANCH  24  25
ENDBRANCH   1  24
TORSDOF 5
