REMARK  Name = ZINC06264310
REMARK  11 active torsions:
REMARK  status: ('A' for Active; 'I' for Inactive)
REMARK    1  A    between atoms: C_1  and  C_2
REMARK    2  A    between atoms: C_2  and  C_3
REMARK    3  A    between atoms: C_3  and  C_4
REMARK    4  A    between atoms: C_4  and  N_5
REMARK    5  A    between atoms: C_6  and  C_8
REMARK    6  A    between atoms: C_8  and  N_62
REMARK    7  A    between atoms: C_11  and  O_29
REMARK    8  A    between atoms: C_18  and  C_20
REMARK    9  A    between atoms: C_23  and  O_28
REMARK   10  A    between atoms: C_24  and  O_26
REMARK   11  A    between atoms: O_26  and  C_27
REMARK                            x       y       z     vdW  Elec       q    Type
REMARK                         _______ _______ _______ _____ _____    ______ ____
ROOT
ATOM      1  C   UNL     1       3.574   3.671  -0.289  0.00  0.00    -0.075 C 
ATOM      2  C   UNL     1       3.764   4.161   1.148  0.00  0.00    +0.016 C 
ATOM      3  C   UNL     1       2.647   3.589   2.024  0.00  0.00    +0.066 C 
ATOM      4  C   UNL     1       2.785   4.110   3.454  0.00  0.00    +0.035 C 
ATOM      5  C   UNL     1       1.664   3.524   4.316  0.00  0.00    +0.003 C 
ATOM      6  C   UNL     1       0.307   3.940   3.746  0.00  0.00    +0.000 C 
ATOM      7  C   UNL     1       0.173   3.429   2.309  0.00  0.00    +0.005 C 
ATOM      8  C   UNL     1       1.293   4.024   1.456  0.00  0.00    +0.011 C 
ATOM      9  C   UNL     1       1.171   3.529   0.014  0.00  0.00    -0.031 C 
ATOM     10  N   UNL     1       2.260   4.129  -0.789  0.00  0.00    +0.390 N 
ATOM     11  H   UNL     1       2.211   5.151  -0.705  0.00  0.00    -0.080 HD
ENDROOT
BRANCH   9  12
ATOM     12  C   UNL     1       1.260   2.025  -0.011  0.00  0.00    -0.057 A 
ATOM     13  C   UNL     1       2.251   1.405  -0.749  0.00  0.00    +0.006 A 
ATOM     14  C   UNL     1       2.336   0.025  -0.776  0.00  0.00    +0.049 A 
ATOM     15  C   UNL     1       1.427  -0.739  -0.062  0.00  0.00    +0.158 A 
ATOM     16  C   UNL     1       0.429  -0.115   0.681  0.00  0.00    +0.161 A 
ATOM     17  C   UNL     1       0.349   1.268   0.703  0.00  0.00    +0.051 A 
BRANCH  16  18
ATOM     18  O   UNL     1      -0.466  -0.860   1.383  0.00  0.00    -0.491 OA
ATOM     19  C   UNL     1      -1.462  -0.151   2.122  0.00  0.00    +0.277 C 
ENDBRANCH  16  18
BRANCH  15  20
ATOM     20  O   UNL     1       1.509  -2.096  -0.087  0.00  0.00    -0.503 OA
ATOM     21  H   UNL     1       0.998  -2.509  -0.796  0.00  0.00    +0.292 HD
ENDBRANCH  15  20
ENDBRANCH   9  12
BRANCH   3  22
ATOM     22  O   UNL     1       2.727   2.162   2.025  0.00  0.00    -0.388 OA
ATOM     23  H   UNL     1       3.563   1.815   2.366  0.00  0.00    +0.210 HD
ENDBRANCH   3  22
BRANCH  10  24
ATOM     24  C   UNL     1       2.103   3.757  -2.210  0.00  0.00    +0.019 C 
BRANCH  24  26
ATOM     25  N   UNL     1       0.480   4.207  -4.021  0.00  0.00    -0.317 N 
ATOM     26  C   UNL     1       0.888   4.458  -2.762  0.00  0.00    +0.196 C 
ATOM     27  O   UNL     1       0.278   5.247  -2.072  0.00  0.00    -0.278 OA
ATOM     28  H   UNL     1       0.968   3.576  -4.573  0.00  0.00    +0.149 HD
BRANCH  25  29
ATOM     29  C   UNL     1      -0.701   4.888  -4.558  0.00  0.00    +0.104 C 
BRANCH  29  30
ATOM     30  C   UNL     1      -0.945   4.428  -5.996  0.00  0.00    +0.018 C 
BRANCH  30  32
ATOM     31  C   UNL     1      -2.423   4.679  -7.995  0.00  0.00    +0.004 C 
ATOM     32  C   UNL     1      -2.179   5.139  -6.557  0.00  0.00    -0.002 C 
ENDBRANCH  30  32
ENDBRANCH  29  30
ENDBRANCH  25  29
ENDBRANCH  24  26
ENDBRANCH  10  24
TORSDOF 9
