REMARK  Name = ZINC06227230
REMARK  4 active torsions:
REMARK  status: ('A' for Active; 'I' for Inactive)
REMARK    1  A    between atoms: C_4  and  C_28
REMARK    2  A    between atoms: C_5  and  C_7
REMARK    3  A    between atoms: C_9  and  C_26
REMARK    4  A    between atoms: C_10  and  N_25
REMARK                            x       y       z     vdW  Elec       q    Type
REMARK                         _______ _______ _______ _____ _____    ______ ____
ROOT
ATOM      1  C   UNL     1       1.318  -2.608  -0.229  0.00  0.00    +0.098 C 
ATOM      2  C   UNL     1       0.636  -2.850   1.086  0.00  0.00    +0.077 C 
ATOM      3  C   UNL     1      -0.716  -2.939   1.169  0.00  0.00    +0.109 C 
ATOM      4  N   UNL     1      -1.488  -2.815   0.035  0.00  0.00    -0.229 N 
ATOM      5  C   UNL     1      -0.935  -2.998  -1.207  0.00  0.00    +0.027 C 
ATOM      6  C   UNL     1       0.399  -2.917  -1.383  0.00  0.00    +0.025 C 
ATOM      7  C   UNL     1       0.975  -3.121  -2.651  0.00  0.00    +0.162 C 
ATOM      8  O   UNL     1       2.180  -3.034  -2.778  0.00  0.00    -0.292 OA
ATOM      9  C   UNL     1       0.127  -3.443  -3.850  0.00  0.00    +0.080 C 
ATOM     10  C   UNL     1      -1.139  -4.171  -3.385  0.00  0.00    +0.014 C 
ATOM     11  C   UNL     1      -1.857  -3.287  -2.366  0.00  0.00    +0.052 C 
ATOM     12  C   UNL     1      -2.837  -2.501   0.150  0.00  0.00    +0.223 A 
ATOM     13  H   UNL     1      -3.459  -2.202  -1.814  0.00  0.00    +0.192 HD
ATOM     14  N   UNL     1      -3.519  -2.418   1.271  0.00  0.00    -0.201 NA
ATOM     15  C   UNL     1      -4.785  -2.097   1.004  0.00  0.00    +0.246 A 
ATOM     16  N   UNL     1      -4.931  -1.970  -0.288  0.00  0.00    -0.160 NA
ATOM     17  N   UNL     1      -3.677  -2.222  -0.869  0.00  0.00    -0.246 N 
ENDROOT
BRANCH   1  22
ATOM     18  C   UNL     1       1.177   1.164  -0.319  0.00  0.00    +0.000 A 
ATOM     19  C   UNL     1       2.515   1.487  -0.453  0.00  0.00    +0.001 A 
ATOM     20  C   UNL     1       3.465   0.484  -0.515  0.00  0.00    +0.012 A 
ATOM     21  C   UNL     1       3.077  -0.841  -0.442  0.00  0.00    +0.059 A 
ATOM     22  C   UNL     1       1.740  -1.163  -0.307  0.00  0.00    -0.023 A 
ATOM     23  C   UNL     1       0.790  -0.161  -0.247  0.00  0.00    +0.005 A 
BRANCH  21  24
ATOM     24  C   UNL     1       4.113  -1.933  -0.510  0.00  0.00    +0.418 C 
ATOM     25  F   UNL     1       5.384  -1.364  -0.646  0.00  0.00    -0.166 F 
ATOM     26  F   UNL     1       4.066  -2.694   0.663  0.00  0.00    -0.166 F 
ATOM     27  F   UNL     1       3.851  -2.756  -1.611  0.00  0.00    -0.166 F 
ENDBRANCH  21  24
ENDBRANCH   1  22
BRANCH   3  28
ATOM     28  N   UNL     1      -1.315  -3.154   2.387  0.00  0.00    -0.345 N 
ATOM     29  H   UNL     1      -0.811  -3.026   3.205  0.00  0.00    +0.144 HD
ATOM     30  H   UNL     1      -2.243  -3.434   2.428  0.00  0.00    +0.144 HD
ENDBRANCH   3  28
BRANCH   2  31
ATOM     31  C   UNL     1       1.425  -2.990   2.272  0.00  0.00    +0.099 C 
ATOM     32  N   UNL     1       2.051  -3.100   3.214  0.00  0.00    -0.191 NA
ENDBRANCH   2  31
TORSDOF 4
