REMARK  Name = ZINC09353219
REMARK  8 active torsions:
REMARK  status: ('A' for Active; 'I' for Inactive)
REMARK    1  A    between atoms: C_1  and  O_2
REMARK    2  A    between atoms: O_2  and  C_3
REMARK    3  A    between atoms: C_6  and  N_39
REMARK    4  A    between atoms: C_8  and  N_9
REMARK    5  A    between atoms: C_17  and  C_37
REMARK    6  A    between atoms: C_20  and  C_26
REMARK    7  A    between atoms: C_26  and  C_28
REMARK    8  A    between atoms: C_32  and  N_34
REMARK                            x       y       z     vdW  Elec       q    Type
REMARK                         _______ _______ _______ _____ _____    ______ ____
ROOT
ATOM      1  N   UNL     1       1.695  -3.972   1.294  0.00  0.00    -0.206 N 
ATOM      2  C   UNL     1       0.826  -3.172   0.608  0.00  0.00    +0.232 C 
ATOM      3  O   UNL     1      -0.376  -3.307   0.520  0.00  0.00    -0.274 OA
ATOM      4  C   UNL     1       1.663  -2.088  -0.016  0.00  0.00    +0.113 C 
ATOM      5  C   UNL     1       1.280  -0.671  -0.036  0.00  0.00    +0.093 C 
ATOM      6  C   UNL     1       0.002  -0.004   0.002  0.00  0.00    +0.013 C 
ATOM      7  C   UNL     1      -0.016   1.361   0.009  0.00  0.00    +0.051 C 
ATOM      8  C   UNL     1       1.245   2.123   0.002  0.00  0.00    +0.032 C 
ATOM      9  C   UNL     1       2.444   1.526   0.149  0.00  0.00    +0.054 C 
ATOM     10  C   UNL     1       3.455  -0.749   0.916  0.00  0.00    +0.141 C 
ATOM     11  C   UNL     1       2.700  -1.988   1.182  0.00  0.00    +0.116 C 
ATOM     12  C   UNL     1       2.913  -3.375   1.507  0.00  0.00    +0.232 C 
ATOM     13  O   UNL     1       3.939  -3.899   1.885  0.00  0.00    -0.274 OA
ATOM     14  N   UNL     1       2.523   0.013   0.001  0.00  0.00    -0.384 NA
ATOM     15  H   UNL     1       2.919  -0.114  -0.939  0.00  0.00    +0.127 HD
ENDROOT
BRANCH   1  21
ATOM     16  C   UNL     1       0.813  -5.455   2.994  0.00  0.00    +0.142 A 
ATOM     17  C   UNL     1       0.500  -6.735   3.424  0.00  0.00    +0.050 A 
ATOM     18  C   UNL     1       0.746  -7.819   2.602  0.00  0.00    +0.036 A 
ATOM     19  C   UNL     1       1.305  -7.631   1.351  0.00  0.00    +0.128 A 
ATOM     20  C   UNL     1       1.615  -6.358   0.914  0.00  0.00    +0.060 A 
ATOM     21  C   UNL     1       1.376  -5.266   1.734  0.00  0.00    +0.088 A 
BRANCH  19  22
ATOM     22  N   UNL     1       1.566  -8.797   0.476  0.00  0.00    +0.056 N 
ATOM     23  O   UNL     1       1.288  -9.919   0.859  0.00  0.00    -0.126 OA
ATOM     24  O   UNL     1       2.058  -8.633  -0.625  0.00  0.00    -0.126 OA
ENDBRANCH  19  22
BRANCH  16  26
ATOM     25  C   UNL     1      -0.006  -4.658   5.079  0.00  0.00    +0.277 C 
ATOM     26  O   UNL     1       0.572  -4.388   3.801  0.00  0.00    -0.493 OA
ENDBRANCH  16  26
ENDBRANCH   1  21
BRANCH  10  27
ATOM     27  C   UNL     1       4.569  -1.007  -0.065  0.00  0.00    +0.183 C 
ATOM     28  O   UNL     1       4.465  -0.634  -1.214  0.00  0.00    -0.290 OA
BRANCH  27  29
ATOM     29  C   UNL     1       5.785  -1.713   0.372  0.00  0.00    +0.021 A 
ATOM     30  C   UNL     1       5.911  -2.140   1.698  0.00  0.00    +0.011 A 
ATOM     31  C   UNL     1       7.051  -2.805   2.098  0.00  0.00    +0.003 A 
ATOM     32  C   UNL     1       8.072  -3.041   1.194  0.00  0.00    +0.033 A 
ATOM     33  C   UNL     1       7.957  -2.617  -0.118  0.00  0.00    +0.127 A 
ATOM     34  C   UNL     1       6.821  -1.955  -0.535  0.00  0.00    +0.044 A 
BRANCH  33  35
ATOM     35  N   UNL     1       9.055  -2.874  -1.076  0.00  0.00    +0.056 N 
ATOM     36  O   UNL     1       8.955  -2.502  -2.231  0.00  0.00    -0.126 OA
ATOM     37  O   UNL     1      10.059  -3.458  -0.709  0.00  0.00    -0.126 OA
ENDBRANCH  33  35
ENDBRANCH  27  29
ENDBRANCH  10  27
BRANCH   7  38
ATOM     38  C   UNL     1      -1.268   2.056   0.019  0.00  0.00    +0.099 C 
ATOM     39  N   UNL     1      -2.261   2.607   0.027  0.00  0.00    -0.191 NA
ENDBRANCH   7  38
TORSDOF 7
