REMARK  Name = ZINC22133712
REMARK  13 active torsions:
REMARK  status: ('A' for Active; 'I' for Inactive)
REMARK    1  A    between atoms: C_1  and  C_2
REMARK    2  A    between atoms: C_2  and  O_3
REMARK    3  A    between atoms: O_3  and  C_4
REMARK    4  A    between atoms: C_4  and  C_6
REMARK    5  A    between atoms: C_9  and  O_12
REMARK    6  A    between atoms: O_12  and  C_13
REMARK    7  A    between atoms: C_13  and  C_14
REMARK    8  A    between atoms: C_14  and  C_16
REMARK    9  A    between atoms: C_14  and  O_36
REMARK   10  A    between atoms: C_16  and  S_17
REMARK   11  A    between atoms: S_17  and  C_18
REMARK   12  A    between atoms: N_22  and  C_23
REMARK   13  A    between atoms: C_28  and  C_29
REMARK                            x       y       z     vdW  Elec       q    Type
REMARK                         _______ _______ _______ _____ _____    ______ ____
ROOT
ATOM      1  S   UNL     1       3.096   4.096  -0.280  0.00  0.00    -0.083 S 
ENDROOT
BRANCH   1   2
ATOM      2  C   UNL     1       2.906   5.843  -0.403  0.00  0.00    +0.197 A 
ATOM      3  N   UNL     1       1.770   6.498  -0.384  0.00  0.00    -0.120 NA
ATOM      4  N   UNL     1       2.055   7.865  -0.503  0.00  0.00    -0.112 NA
ATOM      5  C   UNL     1       3.355   8.002  -0.601  0.00  0.00    +0.225 A 
ATOM      6  N   UNL     1       3.917   6.756  -0.542  0.00  0.00    -0.258 N 
ATOM      7  N   UNL     1       4.041   9.202  -0.740  0.00  0.00    -0.295 N 
ATOM      8  C   UNL     1       5.036   9.366   0.330  0.00  0.00    +0.136 C 
ATOM      9  C   UNL     1       5.808  10.669   0.106  0.00  0.00    +0.179 C 
ATOM     10  O   UNL     1       4.885  11.761   0.052  0.00  0.00    -0.377 OA
ATOM     11  C   UNL     1       3.902  11.633  -0.980  0.00  0.00    +0.179 C 
ATOM     12  C   UNL     1       3.111  10.340  -0.766  0.00  0.00    +0.136 C 
BRANCH   6  13
ATOM     13  C   UNL     1       5.287   6.465  -0.610  0.00  0.00    +0.055 A 
ATOM     14  C   UNL     1       5.887   6.228  -1.840  0.00  0.00    +0.026 A 
ATOM     15  C   UNL     1       7.237   5.942  -1.904  0.00  0.00    +0.002 A 
ATOM     16  C   UNL     1       7.991   5.892  -0.746  0.00  0.00    +0.000 A 
ATOM     17  C   UNL     1       7.396   6.128   0.480  0.00  0.00    +0.005 A 
ATOM     18  C   UNL     1       6.048   6.419   0.550  0.00  0.00    -0.026 A 
ATOM     19  C   UNL     1       5.401   6.682   1.886  0.00  0.00    +0.046 C 
ENDBRANCH   6  13
ENDBRANCH   1   2
BRANCH   1  20
ATOM     20  C   UNL     1       1.398   3.480  -0.118  0.00  0.00    +0.112 C 
BRANCH  20  21
ATOM     21  C   UNL     1       1.418   1.954  -0.001  0.00  0.00    +0.162 C 
BRANCH  21  22
ATOM     22  O   UNL     1       2.074   1.579   1.212  0.00  0.00    -0.388 OA
ATOM     23  H   UNL     1       3.119   1.872   1.386  0.00  0.00    +0.210 HD
ENDBRANCH  21  22
BRANCH  21  24
ATOM     24  C   UNL     1      -0.017   1.425   0.010  0.00  0.00    +0.261 C 
BRANCH  24  25
ATOM     25  O   UNL     1       0.002  -0.004   0.002  0.00  0.00    -0.489 OA
BRANCH  25  29
ATOM     26  C   UNL     1      -3.650  -1.928   0.027  0.00  0.00    +0.059 A 
ATOM     27  C   UNL     1      -2.466  -2.671   0.011  0.00  0.00    +0.018 A 
ATOM     28  C   UNL     1      -1.250  -2.026   0.003  0.00  0.00    +0.046 A 
ATOM     29  C   UNL     1      -1.198  -0.636   0.010  0.00  0.00    +0.121 A 
ATOM     30  C   UNL     1      -2.373   0.106   0.031  0.00  0.00    +0.046 A 
ATOM     31  C   UNL     1      -3.593  -0.531   0.034  0.00  0.00    +0.018 A 
BRANCH  26  32
ATOM     32  C   UNL     1      -4.955  -2.615   0.035  0.00  0.00    +0.339 C 
ATOM     33  O   UNL     1      -5.002  -3.829   0.028  0.00  0.00    -0.245 OA
BRANCH  32  34
ATOM     34  O   UNL     1      -6.094  -1.897   0.051  0.00  0.00    -0.461 OA
BRANCH  34  36
ATOM     35  C   UNL     1      -8.518  -1.661   0.075  0.00  0.00    +0.048 C 
ATOM     36  C   UNL     1      -7.342  -2.640   0.058  0.00  0.00    +0.229 C 
ENDBRANCH  34  36
ENDBRANCH  32  34
ENDBRANCH  26  32
ENDBRANCH  25  29
ENDBRANCH  24  25
ENDBRANCH  21  24
ENDBRANCH  20  21
ENDBRANCH   1  20
TORSDOF 11
