REMARK  Name = ZINC66698560
REMARK  7 active torsions:
REMARK  status: ('A' for Active; 'I' for Inactive)
REMARK    1  A    between atoms: C_1  and  C_2
REMARK    2  A    between atoms: C_2  and  C_3
REMARK    3  A    between atoms: C_3  and  N_4
REMARK    4  A    between atoms: N_4  and  C_5
REMARK    5  A    between atoms: C_5  and  C_6
REMARK    6  A    between atoms: C_11  and  O_12
REMARK    7  A    between atoms: N_15  and  C_16
REMARK                            x       y       z     vdW  Elec       q    Type
REMARK                         _______ _______ _______ _____ _____    ______ ____
ROOT
ATOM      1  N   UNL     1       0.762  -1.976   1.234  0.00  0.00    -0.281 N 
ATOM      2  C   UNL     1      -0.234  -2.667   1.823  0.00  0.00    +0.303 C 
ATOM      3  O   UNL     1      -0.217  -3.882   1.816  0.00  0.00    -0.253 OA
ATOM      4  N   UNL     1      -1.248  -2.010   2.420  0.00  0.00    -0.292 N 
ATOM      5  H   UNL     1      -1.261  -1.040   2.425  0.00  0.00    +0.151 HD
ENDROOT
BRANCH   4   6
ATOM      6  C   UNL     1      -2.331  -2.760   3.061  0.00  0.00    +0.108 C 
ATOM      7  C   UNL     1      -3.588  -1.910   3.038  0.00  0.00    +0.050 C 
ATOM      8  C   UNL     1      -4.749  -2.712   3.648  0.00  0.00    +0.174 C 
ATOM      9  S   UNL     1      -4.431  -2.827   5.434  0.00  0.00    -0.003 S 
ATOM     10  O   UNL     1      -4.542  -1.545   6.038  0.00  0.00    -0.169 OA
ATOM     11  O   UNL     1      -5.107  -3.950   5.983  0.00  0.00    -0.169 OA
ATOM     12  C   UNL     1      -2.714  -3.230   5.535  0.00  0.00    +0.093 A 
ATOM     13  C   UNL     1      -1.889  -3.154   4.439  0.00  0.00    -0.002 A 
ATOM     14  C   UNL     1      -0.540  -3.469   4.595  0.00  0.00    +0.007 A 
ATOM     15  C   UNL     1      -0.039  -3.856   5.818  0.00  0.00    +0.000 A 
ATOM     16  C   UNL     1      -0.879  -3.936   6.913  0.00  0.00    +0.002 A 
ATOM     17  C   UNL     1      -2.211  -3.627   6.766  0.00  0.00    +0.027 A 
ENDBRANCH   4   6
BRANCH   1  18
ATOM     18  C   UNL     1       0.742  -0.511   1.242  0.00  0.00    +0.109 C 
BRANCH  18  20
ATOM     19  C   UNL     1      -0.019   1.526   0.010  0.00  0.00    +0.005 C 
ATOM     20  C   UNL     1       0.002  -0.004   0.002  0.00  0.00    +0.016 C 
ENDBRANCH  18  20
ENDBRANCH   1  18
BRANCH   1  21
ATOM     21  C   UNL     1       1.864  -2.690   0.585  0.00  0.00    +0.148 C 
BRANCH  21  22
ATOM     22  C   UNL     1       2.965  -2.932   1.586  0.00  0.00    +0.011 A 
ATOM     23  C   UNL     1       4.072  -2.106   1.609  0.00  0.00    +0.009 A 
ATOM     24  C   UNL     1       5.082  -2.328   2.527  0.00  0.00    +0.001 A 
ATOM     25  C   UNL     1       4.986  -3.375   3.424  0.00  0.00    +0.004 A 
ATOM     26  C   UNL     1       3.881  -4.203   3.406  0.00  0.00    +0.046 A 
ATOM     27  C   UNL     1       2.863  -3.980   2.489  0.00  0.00    +0.122 A 
BRANCH  27  28
ATOM     28  O   UNL     1       1.772  -4.789   2.472  0.00  0.00    -0.506 OA
ATOM     29  H   UNL     1       1.861  -5.558   1.893  0.00  0.00    +0.292 HD
ENDBRANCH  27  28
ENDBRANCH  21  22
ENDBRANCH   1  21
TORSDOF 6
