REMARK  Name = ZINC39928708
REMARK  8 active torsions:
REMARK  status: ('A' for Active; 'I' for Inactive)
REMARK    1  A    between atoms: C_1  and  C_2
REMARK    2  A    between atoms: C_5  and  C_32
REMARK    3  A    between atoms: C_6  and  N_8
REMARK    4  A    between atoms: N_8  and  C_9
REMARK    5  A    between atoms: C_9  and  C_10
REMARK    6  A    between atoms: C_15  and  O_22
REMARK    7  A    between atoms: O_22  and  C_23
REMARK    8  A    between atoms: C_24  and  C_26
REMARK                            x       y       z     vdW  Elec       q    Type
REMARK                         _______ _______ _______ _____ _____    ______ ____
ROOT
ATOM      1  N   UNL     1       0.168  -3.066   2.661  0.00  0.00    -0.266 N 
ATOM      2  C   UNL     1       1.158  -3.441   3.495  0.00  0.00    +0.251 C 
ATOM      3  O   UNL     1       0.891  -3.917   4.581  0.00  0.00    -0.270 OA
ENDROOT
BRANCH   1   9
ATOM      4  C   UNL     1       2.362  -3.309  -1.732  0.00  0.00    +0.044 C 
ATOM      5  C   UNL     1       1.538  -2.563  -0.713  0.00  0.00    -0.049 A 
ATOM      6  C   UNL     1       1.085  -1.287  -0.992  0.00  0.00    +0.004 A 
ATOM      7  C   UNL     1       0.328  -0.600  -0.060  0.00  0.00    +0.005 A 
ATOM      8  C   UNL     1       0.022  -1.187   1.152  0.00  0.00    -0.029 A 
ATOM      9  C   UNL     1       0.476  -2.469   1.435  0.00  0.00    +0.040 A 
ATOM     10  C   UNL     1       1.231  -3.158   0.495  0.00  0.00    +0.027 A 
ATOM     11  C   UNL     1      -0.802  -0.437   2.166  0.00  0.00    +0.045 C 
ENDBRANCH   1   9
BRANCH   2  12
ATOM     12  C   UNL     1       2.572  -3.273   3.088  0.00  0.00    +0.040 A 
ATOM     13  C   UNL     1       2.980  -2.160   2.347  0.00  0.00    +0.033 A 
ATOM     14  C   UNL     1       4.309  -2.043   1.988  0.00  0.00    +0.111 A 
ATOM     15  N   UNL     1       5.187  -2.963   2.336  0.00  0.00    -0.263 NA
ATOM     16  C   UNL     1       4.845  -4.028   3.035  0.00  0.00    +0.111 A 
ATOM     17  C   UNL     1       3.539  -4.221   3.440  0.00  0.00    +0.033 A 
ENDBRANCH   2  12
BRANCH   1  18
ATOM     18  C   UNL     1      -1.230  -3.284   3.039  0.00  0.00    +0.131 C 
BRANCH  18  19
ATOM     19  C   UNL     1      -1.630  -4.723   2.707  0.00  0.00    +0.116 C 
ATOM     20  C   UNL     1      -2.903  -5.040   3.467  0.00  0.00    -0.003 C 
ATOM     21  C   UNL     1      -3.988  -5.423   2.737  0.00  0.00    -0.004 A 
ATOM     22  C   UNL     1      -5.256  -5.747   3.391  0.00  0.00    +0.055 A 
ATOM     23  C   UNL     1      -6.314  -6.126   2.622  0.00  0.00    +0.121 A 
ATOM     24  C   UNL     1      -6.206  -6.209   1.228  0.00  0.00    +0.047 A 
ATOM     25  C   UNL     1      -5.057  -5.920   0.565  0.00  0.00    +0.027 A 
ATOM     26  C   UNL     1      -3.906  -5.519   1.269  0.00  0.00    +0.041 A 
ATOM     27  N   UNL     1      -2.785  -5.239   0.605  0.00  0.00    -0.284 N 
ATOM     28  C   UNL     1      -1.669  -4.858   1.201  0.00  0.00    +0.226 C 
ATOM     29  O   UNL     1      -0.676  -4.616   0.541  0.00  0.00    -0.275 OA
ATOM     30  H   UNL     1      -2.788  -5.319  -0.362  0.00  0.00    +0.155 HD
BRANCH  23  31
ATOM     31  O   UNL     1      -7.497  -6.429   3.218  0.00  0.00    -0.495 OA
ATOM     32  C   UNL     1      -8.573  -6.820   2.363  0.00  0.00    +0.277 C 
ENDBRANCH  23  31
ENDBRANCH  18  19
ENDBRANCH   1  18
TORSDOF 5
