REMARK  Name = ZINC12464192
REMARK  8 active torsions:
REMARK  status: ('A' for Active; 'I' for Inactive)
REMARK    1  A    between atoms: C_1  and  C_2
REMARK    2  A    between atoms: C_2  and  O_3
REMARK    3  A    between atoms: O_3  and  C_4
REMARK    4  A    between atoms: C_6  and  C_12
REMARK    5  A    between atoms: C_9  and  O_10
REMARK    6  A    between atoms: C_14  and  C_21
REMARK    7  A    between atoms: C_15  and  C_20
REMARK    8  A    between atoms: N_23  and  C_24
REMARK                            x       y       z     vdW  Elec       q    Type
REMARK                         _______ _______ _______ _____ _____    ______ ____
ROOT
ATOM      1  C   UNL     1      -0.823   4.302   0.219  0.00  0.00    +0.142 C 
ATOM      2  C   UNL     1      -1.893   3.449  -0.431  0.00  0.00    +0.056 C 
ATOM      3  C   UNL     1      -2.978   4.075  -0.931  0.00  0.00    +0.019 C 
ATOM      4  N   UNL     1      -3.105   5.434  -0.859  0.00  0.00    -0.273 N 
ATOM      5  C   UNL     1      -2.189   6.235  -0.301  0.00  0.00    +0.304 C 
ATOM      6  O   UNL     1      -2.390   7.434  -0.283  0.00  0.00    -0.252 OA
ATOM      7  N   UNL     1      -1.052   5.757   0.241  0.00  0.00    -0.288 N 
ATOM      8  C   UNL     1      -4.069   3.263  -1.581  0.00  0.00    +0.061 C 
ATOM      9  H   UNL     1      -3.903   5.840  -1.232  0.00  0.00    +0.156 HD
ATOM     10  H   UNL     1      -0.402   6.356   0.641  0.00  0.00    +0.151 HD
ENDROOT
BRANCH   1  13
ATOM     11  C   UNL     1       2.622   2.991  -0.609  0.00  0.00    +0.163 A 
ATOM     12  C   UNL     1       1.429   3.224   0.056  0.00  0.00    +0.055 A 
ATOM     13  C   UNL     1       0.474   4.051  -0.505  0.00  0.00    -0.018 A 
ATOM     14  C   UNL     1       0.705   4.645  -1.732  0.00  0.00    +0.025 A 
ATOM     15  C   UNL     1       1.897   4.422  -2.399  0.00  0.00    +0.063 A 
ATOM     16  C   UNL     1       2.858   3.593  -1.841  0.00  0.00    +0.173 A 
ATOM     17 BR   UNL     1       2.212   5.242  -4.073  0.00  0.00    -0.046 Br
BRANCH  16  18
ATOM     18  O   UNL     1       4.028   3.368  -2.497  0.00  0.00    -0.503 OA
ATOM     19  H   UNL     1       4.004   2.609  -3.095  0.00  0.00    +0.292 HD
ENDBRANCH  16  18
BRANCH  11  20
ATOM     20  O   UNL     1       3.562   2.176  -0.058  0.00  0.00    -0.489 OA
BRANCH  20  22
ATOM     21  C   UNL     1       4.408   0.701   1.659  0.00  0.00    +0.048 C 
ATOM     22  C   UNL     1       3.209   1.506   1.154  0.00  0.00    +0.226 C 
ENDBRANCH  20  22
ENDBRANCH  11  20
ENDBRANCH   1  13
BRANCH   2  23
ATOM     23  C   UNL     1      -1.761   2.040  -0.505  0.00  0.00    +0.248 C 
ATOM     24  O   UNL     1      -1.919   1.361   0.493  0.00  0.00    -0.270 OA
ATOM     25  N   UNL     1      -1.461   1.452  -1.680  0.00  0.00    -0.282 N 
ATOM     26  H   UNL     1      -1.257   1.996  -2.456  0.00  0.00    +0.155 HD
BRANCH  25  27
ATOM     27  C   UNL     1      -1.449   0.057  -1.781  0.00  0.00    +0.034 A 
ATOM     28  C   UNL     1      -0.952  -0.712  -0.737  0.00  0.00    +0.023 A 
ATOM     29  C   UNL     1      -0.947  -2.090  -0.838  0.00  0.00    +0.002 A 
ATOM     30  C   UNL     1      -1.426  -2.702  -1.981  0.00  0.00    +0.000 A 
ATOM     31  C   UNL     1      -1.917  -1.939  -3.024  0.00  0.00    +0.002 A 
ATOM     32  C   UNL     1      -1.930  -0.561  -2.927  0.00  0.00    +0.023 A 
ENDBRANCH  25  27
ENDBRANCH   2  23
TORSDOF 6
