REMARK  Name = ZINC08897754
REMARK  6 active torsions:
REMARK  status: ('A' for Active; 'I' for Inactive)
REMARK    1  A    between atoms: C_1  and  C_2
REMARK    2  A    between atoms: C_3  and  N_9
REMARK    3  A    between atoms: C_10  and  C_12
REMARK    4  A    between atoms: C_12  and  S_13
REMARK    5  A    between atoms: S_13  and  C_14
REMARK    6  A    between atoms: C_26  and  C_30
REMARK                            x       y       z     vdW  Elec       q    Type
REMARK                         _______ _______ _______ _____ _____    ______ ____
ROOT
ATOM      1  C   UNL     1      -1.382  -2.365  -0.037  0.00  0.00    +0.170 A 
ATOM      2  N   UNL     1      -2.430  -3.239  -0.038  0.00  0.00    -0.301 N 
ATOM      3  H   UNL     1      -3.337  -2.894  -0.022  0.00  0.00    +0.171 HD
ATOM      4  C   UNL     1      -2.230  -4.569  -0.061  0.00  0.00    +0.261 A 
ATOM      5  O   UNL     1      -3.177  -5.337  -0.061  0.00  0.00    -0.267 OA
ATOM      6  C   UNL     1      -0.890  -5.071  -0.085  0.00  0.00    +0.075 A 
ATOM      7  C   UNL     1      -0.443  -6.465  -0.110  0.00  0.00    -0.023 A 
ATOM      8  C   UNL     1       0.888  -6.681  -0.130  0.00  0.00    -0.004 A 
ATOM      9  S   UNL     1       1.617  -5.065  -0.116  0.00  0.00    -0.073 S 
ATOM     10  C   UNL     1       0.127  -4.101  -0.082  0.00  0.00    +0.117 A 
ATOM     11  N   UNL     1      -0.138  -2.800  -0.065  0.00  0.00    -0.216 NA
ATOM     12  C   UNL     1       1.593  -8.002  -0.157  0.00  0.00    +0.046 C 
ATOM     13  C   UNL     1       0.584  -9.098   0.216  0.00  0.00    -0.009 C 
ATOM     14  C   UNL     1      -0.693  -8.888  -0.603  0.00  0.00    +0.008 C 
ATOM     15  C   UNL     1      -1.423  -7.635  -0.116  0.00  0.00    +0.037 C 
ATOM     16  C   UNL     1       1.179 -10.472  -0.097  0.00  0.00    +0.008 C 
ENDROOT
BRANCH   1  17
ATOM     17  S   UNL     1      -1.696  -0.631  -0.006  0.00  0.00    -0.078 S 
BRANCH  17  18
ATOM     18  C   UNL     1       0.002  -0.004  -0.017  0.00  0.00    +0.173 C 
BRANCH  18  20
ATOM     19  N   UNL     1       1.139   2.192   0.003  0.00  0.00    -0.285 N 
ATOM     20  C   UNL     1      -0.018   1.502   0.006  0.00  0.00    +0.227 C 
ATOM     21  O   UNL     1      -1.077   2.094   0.024  0.00  0.00    -0.275 OA
ATOM     22  H   UNL     1       1.985   1.722   0.068  0.00  0.00    +0.155 HD
BRANCH  19  25
ATOM     23  C   UNL     1       3.352   3.641   1.054  0.00  0.00    +0.047 C 
ATOM     24  C   UNL     1       2.181   4.334   0.405  0.00  0.00    -0.011 A 
ATOM     25  C   UNL     1       1.122   3.588  -0.095  0.00  0.00    +0.038 A 
ATOM     26  C   UNL     1       0.043   4.230  -0.687  0.00  0.00    +0.023 A 
ATOM     27  C   UNL     1       0.027   5.608  -0.782  0.00  0.00    +0.003 A 
ATOM     28  C   UNL     1       1.085   6.349  -0.289  0.00  0.00    +0.020 A 
ATOM     29  C   UNL     1       2.163   5.712   0.302  0.00  0.00    +0.046 A 
ATOM     30 CL   UNL     1       3.489   6.646   0.921  0.00  0.00    -0.083 Cl
ENDBRANCH  19  25
ENDBRANCH  18  20
ENDBRANCH  17  18
ENDBRANCH   1  17
TORSDOF 4
