REMARK  Name = ZINC64678768
REMARK  8 active torsions:
REMARK  status: ('A' for Active; 'I' for Inactive)
REMARK    1  A    between atoms: C_1  and  C_2
REMARK    2  A    between atoms: C_5  and  C_8
REMARK    3  A    between atoms: C_8  and  C_9
REMARK    4  A    between atoms: N_11  and  C_12
REMARK    5  A    between atoms: N_11  and  C_13
REMARK    6  A    between atoms: C_13  and  C_14
REMARK    7  A    between atoms: C_14  and  C_15
REMARK    8  A    between atoms: C_18  and  C_21
REMARK                            x       y       z     vdW  Elec       q    Type
REMARK                         _______ _______ _______ _____ _____    ______ ____
ROOT
ATOM      1  C   UNL     1       5.056  -7.207   1.377  0.00  0.00    +0.139 C 
ATOM      2  N   UNL     1       5.735  -7.428   0.311  0.00  0.00    -0.072 NA
ATOM      3  O   UNL     1       7.042  -7.873   0.625  0.00  0.00    -0.367 OA
ATOM      4  C   UNL     1       7.121  -7.912   2.059  0.00  0.00    +0.318 C 
ATOM      5  N   UNL     1       5.795  -7.462   2.509  0.00  0.00    -0.291 N 
ATOM      6  H   UNL     1       5.498  -7.364   3.427  0.00  0.00    +0.151 HD
ENDROOT
BRANCH   4   7
ATOM      7  C   UNL     1       7.402  -9.337   2.540  0.00  0.00    +0.165 C 
ATOM      8  C   UNL     1       6.346 -10.283   2.013  0.00  0.00    +0.012 C 
ATOM      9  C   UNL     1       7.001 -11.188   1.250  0.00  0.00    -0.002 A 
ATOM     10  C   UNL     1       6.547 -12.347   0.473  0.00  0.00    +0.029 A 
ATOM     11  C   UNL     1       7.460 -13.081  -0.205  0.00  0.00    +0.042 A 
ATOM     12  C   UNL     1       8.825 -12.761  -0.184  0.00  0.00    +0.022 A 
ATOM     13  C   UNL     1       9.318 -11.712   0.507  0.00  0.00    +0.027 A 
ATOM     14  C   UNL     1       8.447 -10.872   1.256  0.00  0.00    +0.043 A 
ATOM     15  N   UNL     1       8.678  -9.813   1.996  0.00  0.00    -0.373 N 
ATOM     16 CL   UNL     1       6.927 -14.453  -1.125  0.00  0.00    -0.084 Cl
ATOM     17  H   UNL     1       9.547  -9.411   2.155  0.00  0.00    +0.160 HD
ENDBRANCH   4   7
BRANCH   1  18
ATOM     18  C   UNL     1       3.628  -6.723   1.388  0.00  0.00    +0.094 C 
BRANCH  18  19
ATOM     19  C   UNL     1       3.137  -6.551  -0.051  0.00  0.00    +0.115 C 
BRANCH  19  22
ATOM     20  C   UNL     1       1.487  -4.759  -0.032  0.00  0.00    +0.220 C 
ATOM     21  O   UNL     1       2.398  -3.959  -0.033  0.00  0.00    -0.275 OA
ATOM     22  N   UNL     1       1.750  -6.081  -0.041  0.00  0.00    -0.304 N 
ATOM     23  C   UNL     1       0.649  -7.047  -0.040  0.00  0.00    +0.132 C 
BRANCH  20  24
ATOM     24  C   UNL     1       0.059  -4.275  -0.021  0.00  0.00    +0.131 C 
BRANCH  24  29
ATOM     25  C   UNL     1      -0.018   1.503   0.010  0.00  0.00    +0.044 C 
ATOM     26  C   UNL     1       0.002  -0.004   0.002  0.00  0.00    -0.050 A 
ATOM     27  C   UNL     1       0.006  -0.689  -1.199  0.00  0.00    +0.003 A 
ATOM     28  C   UNL     1       0.025  -2.071  -1.206  0.00  0.00    +0.004 A 
ATOM     29  C   UNL     1       0.040  -2.768  -0.013  0.00  0.00    -0.039 A 
ATOM     30  C   UNL     1       0.037  -2.084   1.188  0.00  0.00    +0.004 A 
ATOM     31  C   UNL     1       0.023  -0.702   1.195  0.00  0.00    +0.003 A 
ENDBRANCH  24  29
ENDBRANCH  20  24
ENDBRANCH  19  22
ENDBRANCH  18  19
ENDBRANCH   1  18
TORSDOF 6
