REMARK  Name = ZINC09231547
REMARK  11 active torsions:
REMARK  status: ('A' for Active; 'I' for Inactive)
REMARK    1  A    between atoms: C_1  and  C_2
REMARK    2  A    between atoms: C_2  and  C_3
REMARK    3  A    between atoms: C_2  and  C_4
REMARK    4  A    between atoms: C_9  and  O_10
REMARK    5  A    between atoms: O_10  and  C_11
REMARK    6  A    between atoms: C_11  and  C_12
REMARK    7  A    between atoms: N_14  and  C_15
REMARK    8  A    between atoms: C_18  and  S_21
REMARK    9  A    between atoms: S_21  and  N_24
REMARK   10  A    between atoms: N_24  and  C_25
REMARK   11  A    between atoms: C_25  and  C_26
REMARK                            x       y       z     vdW  Elec       q    Type
REMARK                         _______ _______ _______ _____ _____    ______ ____
ROOT
ATOM      1  C   UNL     1       1.214  -0.680  -0.019  0.00  0.00    +0.034 A 
ATOM      2  C   UNL     1       2.137   0.031  -0.774  0.00  0.00    +0.025 A 
ATOM      3  C   UNL     1       2.111   1.412  -0.771  0.00  0.00    +0.030 A 
ATOM      4  C   UNL     1       1.168   2.086  -0.017  0.00  0.00    +0.105 A 
ATOM      5  C   UNL     1       0.248   1.380   0.736  0.00  0.00    +0.030 A 
ATOM      6  C   UNL     1       0.268  -0.001   0.737  0.00  0.00    +0.025 A 
ENDROOT
BRANCH   1   9
ATOM      7  C   UNL     1       2.410  -2.734  -0.137  0.00  0.00    +0.255 C 
ATOM      8  O   UNL     1       3.452  -2.114  -0.144  0.00  0.00    -0.272 OA
ATOM      9  N   UNL     1       1.237  -2.079  -0.020  0.00  0.00    -0.283 N 
ATOM     10  H   UNL     1       0.409  -2.578   0.062  0.00  0.00    +0.155 HD
BRANCH   7  11
ATOM     11  C   UNL     1       2.425  -4.236  -0.258  0.00  0.00    +0.324 C 
BRANCH  11  12
ATOM     12  O   UNL     1       3.775  -4.691  -0.368  0.00  0.00    -0.482 OA
BRANCH  12  18
ATOM     13  C   UNL     1       5.252  -6.542  -0.603  0.00  0.00    -0.002 A 
ATOM     14  C   UNL     1       5.444  -7.905  -0.717  0.00  0.00    +0.022 A 
ATOM     15  C   UNL     1       4.357  -8.760  -0.727  0.00  0.00    +0.018 A 
ATOM     16  C   UNL     1       3.075  -8.253  -0.616  0.00  0.00    +0.019 A 
ATOM     17  C   UNL     1       2.878  -6.891  -0.496  0.00  0.00    +0.047 A 
ATOM     18  C   UNL     1       3.967  -6.032  -0.486  0.00  0.00    +0.125 A 
ATOM     19 BR   UNL     1       4.624 -10.625  -0.890  0.00  0.00    -0.050 Br
BRANCH  13  21
ATOM     20  C   UNL     1       7.355  -5.957   0.574  0.00  0.00    +0.012 C 
ATOM     21  C   UNL     1       6.436  -5.610  -0.600  0.00  0.00    +0.016 C 
ATOM     22  C   UNL     1       7.207  -5.761  -1.913  0.00  0.00    +0.012 C 
ENDBRANCH  13  21
ENDBRANCH  12  18
ENDBRANCH  11  12
ENDBRANCH   7  11
ENDBRANCH   1   9
BRANCH   4  23
ATOM     23  S   UNL     1       1.139   3.848  -0.015  0.00  0.00    +0.059 S 
ATOM     24  O   UNL     1       0.510   4.242   1.196  0.00  0.00    -0.153 OA
ATOM     25  O   UNL     1       2.447   4.276  -0.370  0.00  0.00    -0.153 OA
BRANCH  23  26
ATOM     26  N   UNL     1       0.136   4.322  -1.245  0.00  0.00    -0.183 NA
ATOM     27  H   UNL     1       0.494   4.811  -2.002  0.00  0.00    +0.148 HD
BRANCH  26  28
ATOM     28  C   UNL     1      -1.293   4.002  -1.189  0.00  0.00    +0.180 C 
BRANCH  28  29
ATOM     29  C   UNL     1      -2.034   4.836  -2.202  0.00  0.00    +0.120 A 
ATOM     30  C   UNL     1      -2.275   4.492  -3.480  0.00  0.00    +0.046 A 
ATOM     31  C   UNL     1      -2.994   5.560  -4.064  0.00  0.00    +0.041 A 
ATOM     32  C   UNL     1      -3.149   6.494  -3.108  0.00  0.00    +0.195 A 
ATOM     33  O   UNL     1      -2.570   6.048  -1.981  0.00  0.00    -0.466 OA
ENDBRANCH  28  29
ENDBRANCH  26  28
ENDBRANCH  23  26
ENDBRANCH   4  23
TORSDOF 9
