REMARK  Name = ZINC09789192
REMARK  9 active torsions:
REMARK  status: ('A' for Active; 'I' for Inactive)
REMARK    1  A    between atoms: C_1  and  C_2
REMARK    2  A    between atoms: C_2  and  C_4
REMARK    3  A    between atoms: C_2  and  N_9
REMARK    4  A    between atoms: C_10  and  C_12
REMARK    5  A    between atoms: C_12  and  S_13
REMARK    6  A    between atoms: S_13  and  C_14
REMARK    7  A    between atoms: C_17  and  C_19
REMARK    8  A    between atoms: C_23  and  S_25
REMARK    9  A    between atoms: S_25  and  N_28
REMARK                            x       y       z     vdW  Elec       q    Type
REMARK                         _______ _______ _______ _____ _____    ______ ____
ROOT
ATOM      1  C   UNL     1       7.605   1.066  -4.195  0.00  0.00    +0.278 A 
ATOM      2  N   UNL     1       7.579   1.825  -3.124  0.00  0.00    -0.101 NA
ATOM      3  N   UNL     1       6.782   1.311  -2.255  0.00  0.00    -0.106 NA
ATOM      4  C   UNL     1       6.268   0.205  -2.735  0.00  0.00    +0.249 A 
ATOM      5  O   UNL     1       6.783   0.023  -3.971  0.00  0.00    -0.411 OA
ENDROOT
BRANCH   4   6
ATOM      6  C   UNL     1       5.308  -0.683  -2.048  0.00  0.00    +0.040 A 
ATOM      7  C   UNL     1       4.842  -1.837  -2.683  0.00  0.00    +0.013 A 
ATOM      8  C   UNL     1       3.946  -2.662  -2.036  0.00  0.00    +0.003 A 
ATOM      9  C   UNL     1       3.512  -2.352  -0.758  0.00  0.00    +0.028 A 
ATOM     10  C   UNL     1       3.966  -1.208  -0.126  0.00  0.00    +0.106 A 
ATOM     11  C   UNL     1       4.862  -0.374  -0.762  0.00  0.00    +0.041 A 
BRANCH  10  12
ATOM     12  S   UNL     1       3.402  -0.819   1.497  0.00  0.00    +0.061 S 
ATOM     13  O   UNL     1       4.396   0.011   2.084  0.00  0.00    -0.153 OA
ATOM     14  O   UNL     1       2.987  -2.043   2.087  0.00  0.00    -0.153 OA
BRANCH  12  15
ATOM     15  N   UNL     1       2.043   0.113   1.334  0.00  0.00    -0.177 NA
ATOM     16  C   UNL     1       0.714  -0.508   1.262  0.00  0.00    +0.109 C 
ATOM     17  C   UNL     1       0.002  -0.004   0.002  0.00  0.00    +0.017 C 
ATOM     18  C   UNL     1      -0.019   1.526   0.010  0.00  0.00    +0.003 C 
ATOM     19  C   UNL     1       1.417   2.058  -0.000  0.00  0.00    +0.017 C 
ATOM     20  C   UNL     1       2.144   1.577   1.259  0.00  0.00    +0.109 C 
ENDBRANCH  12  15
ENDBRANCH  10  12
ENDBRANCH   4   6
BRANCH   1  21
ATOM     21  S   UNL     1       8.549   1.355  -5.655  0.00  0.00    -0.056 S 
BRANCH  21  22
ATOM     22  C   UNL     1       9.373   2.899  -5.196  0.00  0.00    +0.174 C 
BRANCH  22  24
ATOM     23  N   UNL     1      10.979   4.485  -6.209  0.00  0.00    -0.305 N 
ATOM     24  C   UNL     1      10.261   3.350  -6.327  0.00  0.00    +0.224 C 
ATOM     25  O   UNL     1      10.329   2.693  -7.344  0.00  0.00    -0.275 OA
ATOM     26  H   UNL     1      10.924   5.011  -5.396  0.00  0.00    +0.149 HD
BRANCH  23  28
ATOM     27  C   UNL     1      13.199   4.227  -7.201  0.00  0.00    +0.036 C 
ATOM     28  C   UNL     1      11.841   4.924  -7.309  0.00  0.00    +0.136 C 
BRANCH  28  29
ATOM     29  C   UNL     1      12.035   6.416  -7.231  0.00  0.00    +0.125 A 
ATOM     30  C   UNL     1      12.060   7.262  -8.277  0.00  0.00    +0.046 A 
ATOM     31  C   UNL     1      12.261   8.559  -7.750  0.00  0.00    +0.041 A 
ATOM     32  C   UNL     1      12.354   8.427  -6.415  0.00  0.00    +0.195 A 
ATOM     33  O   UNL     1      12.216   7.127  -6.106  0.00  0.00    -0.466 OA
ENDBRANCH  28  29
ENDBRANCH  23  28
ENDBRANCH  22  24
ENDBRANCH  21  22
ENDBRANCH   1  21
TORSDOF 8
