REMARK  Name = ZINC41630488
REMARK  6 active torsions:
REMARK  status: ('A' for Active; 'I' for Inactive)
REMARK    1  A    between atoms: C_1  and  C_2
REMARK    2  A    between atoms: C_2  and  C_4
REMARK    3  A    between atoms: C_2  and  S_17
REMARK    4  A    between atoms: C_4  and  C_6
REMARK    5  A    between atoms: S_17  and  C_18
REMARK    6  A    between atoms: C_24  and  N_26
REMARK                            x       y       z     vdW  Elec       q    Type
REMARK                         _______ _______ _______ _____ _____    ______ ____
ROOT
ATOM      1  C   UNL     1      -0.019   1.526   0.010  0.00  0.00    +0.028 C 
ATOM      2  C   UNL     1       0.002  -0.004   0.002  0.00  0.00    +0.122 C 
ENDROOT
BRANCH   2   3
ATOM      3  C   UNL     1      -1.412  -0.526   0.013  0.00  0.00    +0.176 C 
ATOM      4  O   UNL     1      -1.959  -0.816  -1.030  0.00  0.00    -0.291 OA
BRANCH   3   5
ATOM      5  C   UNL     1      -2.127  -0.683   1.286  0.00  0.00    +0.020 A 
ATOM      6  C   UNL     1      -1.499  -0.343   2.490  0.00  0.00    +0.015 A 
ATOM      7  C   UNL     1      -2.170  -0.490   3.684  0.00  0.00    +0.048 A 
ATOM      8  C   UNL     1      -3.470  -0.975   3.697  0.00  0.00    +0.142 A 
ATOM      9  C   UNL     1      -4.104  -1.316   2.499  0.00  0.00    +0.076 A 
ATOM     10  C   UNL     1      -3.441  -1.167   1.298  0.00  0.00    +0.038 A 
ATOM     11  N   UNL     1      -5.418  -1.805   2.534  0.00  0.00    -0.280 N 
ATOM     12  C   UNL     1      -6.147  -1.641   3.660  0.00  0.00    +0.255 C 
ATOM     13  O   UNL     1      -7.275  -2.082   3.724  0.00  0.00    -0.272 OA
ATOM     14  C   UNL     1      -5.552  -0.908   4.835  0.00  0.00    +0.325 C 
ATOM     15  O   UNL     1      -4.139  -1.122   4.870  0.00  0.00    -0.481 OA
ATOM     16  H   UNL     1      -5.797  -2.254   1.763  0.00  0.00    +0.155 HD
ENDBRANCH   3   5
ENDBRANCH   2   3
BRANCH   2  17
ATOM     17  S   UNL     1       0.851  -0.589  -1.490  0.00  0.00    -0.077 S 
BRANCH  17  18
ATOM     18  C   UNL     1       2.509  -0.029  -1.285  0.00  0.00    +0.171 A 
ATOM     19  N   UNL     1       3.430  -0.300  -2.252  0.00  0.00    -0.302 N 
ATOM     20  H   UNL     1       3.169  -0.798  -3.042  0.00  0.00    +0.171 HD
ATOM     21  C   UNL     1       4.704   0.121  -2.111  0.00  0.00    +0.254 A 
ATOM     22  O   UNL     1       5.536  -0.118  -2.972  0.00  0.00    -0.268 OA
ATOM     23  C   UNL     1       5.056   0.837  -0.962  0.00  0.00    +0.113 A 
ATOM     24  C   UNL     1       4.080   1.087  -0.007  0.00  0.00    +0.124 A 
ATOM     25  N   UNL     1       2.832   0.649  -0.203  0.00  0.00    -0.209 NA
BRANCH  24  26
ATOM     26  N   UNL     1       4.396   1.791   1.138  0.00  0.00    -0.343 N 
ATOM     27  H   UNL     1       5.301   2.111   1.276  0.00  0.00    +0.144 HD
ATOM     28  H   UNL     1       3.713   1.966   1.804  0.00  0.00    +0.144 HD
ENDBRANCH  24  26
ENDBRANCH  17  18
ENDBRANCH   2  17
TORSDOF 5
