REMARK  Name = ZINC39355866
REMARK  9 active torsions:
REMARK  status: ('A' for Active; 'I' for Inactive)
REMARK    1  A    between atoms: C_1  and  C_2
REMARK    2  A    between atoms: C_6  and  C_7
REMARK    3  A    between atoms: C_7  and  C_9
REMARK    4  A    between atoms: C_7  and  C_19
REMARK    5  A    between atoms: C_11  and  O_17
REMARK    6  A    between atoms: C_12  and  O_16
REMARK    7  A    between atoms: O_17  and  C_18
REMARK    8  A    between atoms: C_20  and  C_26
REMARK    9  A    between atoms: C_23  and  O_25
REMARK                            x       y       z     vdW  Elec       q    Type
REMARK                         _______ _______ _______ _____ _____    ______ ____
ROOT
ATOM      1  C   UNL     1      -0.030  -0.325  -2.527  0.00  0.00    +0.088 C 
ENDROOT
BRANCH   1   7
ATOM      2  C   UNL     1       2.536  -0.439  -0.742  0.00  0.00    +0.065 C 
ATOM      3  C   UNL     1       1.160  -0.913  -0.350  0.00  0.00    +0.041 A 
ATOM      4  N   UNL     1       0.815  -1.456   0.836  0.00  0.00    -0.278 N 
ATOM      5  N   UNL     1      -0.552  -1.758   0.793  0.00  0.00    -0.131 NA
ATOM      6  C   UNL     1      -1.012  -1.405  -0.383  0.00  0.00    +0.292 A 
ATOM      7  C   UNL     1       0.051  -0.864  -1.122  0.00  0.00    +0.052 A 
ATOM      8  O   UNL     1      -2.296  -1.538  -0.811  0.00  0.00    -0.264 OA
ATOM      9  H   UNL     1       1.410  -1.612   1.586  0.00  0.00    +0.189 HD
ENDBRANCH   1   7
BRANCH   1  10
ATOM     10  C   UNL     1      -1.196  -0.959  -3.242  0.00  0.00    -0.031 A 
ATOM     11  C   UNL     1      -2.120  -0.163  -3.893  0.00  0.00    +0.054 A 
ATOM     12  C   UNL     1      -3.193  -0.743  -4.550  0.00  0.00    +0.163 A 
ATOM     13  C   UNL     1      -3.337  -2.127  -4.555  0.00  0.00    +0.173 A 
ATOM     14  C   UNL     1      -2.406  -2.920  -3.901  0.00  0.00    +0.063 A 
ATOM     15  C   UNL     1      -1.335  -2.334  -3.250  0.00  0.00    +0.023 A 
ATOM     16 BR   UNL     1      -2.597  -4.801  -3.904  0.00  0.00    -0.046 Br
BRANCH  13  17
ATOM     17  O   UNL     1      -4.388  -2.702  -5.199  0.00  0.00    -0.503 OA
ATOM     18  H   UNL     1      -4.213  -2.915  -6.125  0.00  0.00    +0.292 HD
ENDBRANCH  13  17
BRANCH  12  19
ATOM     19  O   UNL     1      -4.104   0.038  -5.190  0.00  0.00    -0.491 OA
ATOM     20  C   UNL     1      -3.893   1.451  -5.143  0.00  0.00    +0.277 C 
ENDBRANCH  12  19
ENDBRANCH   1  10
BRANCH   1  21
ATOM     21  C   UNL     1       1.246  -0.648  -3.262  0.00  0.00    +0.017 C 
ATOM     22  C   UNL     1       2.119   0.202  -3.807  0.00  0.00    +0.065 C 
ATOM     23  N   UNL     1       3.144  -0.465  -4.382  0.00  0.00    -0.156 NA
ATOM     24  N   UNL     1       3.070  -1.693  -4.291  0.00  0.00    -0.151 NA
ATOM     25  C   UNL     1       1.839  -2.016  -3.550  0.00  0.00    +0.284 C 
ATOM     26  C   UNL     1       1.980   1.702  -3.783  0.00  0.00    +0.067 C 
BRANCH  25  27
ATOM     27  O   UNL     1       0.953  -2.792  -4.359  0.00  0.00    -0.366 OA
ATOM     28  H   UNL     1       1.286  -3.674  -4.572  0.00  0.00    +0.212 HD
ENDBRANCH  25  27
ENDBRANCH   1  21
TORSDOF 6
