REMARK  Name = ZINC23833887
REMARK  7 active torsions:
REMARK  status: ('A' for Active; 'I' for Inactive)
REMARK    1  A    between atoms: C_1  and  C_2
REMARK    2  A    between atoms: C_5  and  C_34
REMARK    3  A    between atoms: C_17  and  O_20
REMARK    4  A    between atoms: O_20  and  C_21
REMARK    5  A    between atoms: C_21  and  C_22
REMARK    6  A    between atoms: N_24  and  C_25
REMARK    7  A    between atoms: C_28  and  N_31
REMARK                            x       y       z     vdW  Elec       q    Type
REMARK                         _______ _______ _______ _____ _____    ______ ____
ROOT
ATOM      1  C   UNL     1       0.003   0.017   0.031  0.00  0.00    +0.009 C 
ATOM      2  C   UNL     1      -0.023   1.547   0.032  0.00  0.00    +0.004 C 
ATOM      3  C   UNL     1       1.412   2.083   0.025  0.00  0.00    +0.009 C 
ATOM      4  C   UNL     1       1.377   3.612  -0.035  0.00  0.00    +0.004 C 
ATOM      5  C   UNL     1       0.604   4.052  -1.281  0.00  0.00    +0.109 C 
ATOM      6  N   UNL     1      -0.762   3.515  -1.226  0.00  0.00    -0.315 N 
ATOM      7  C   UNL     1      -0.755   2.046  -1.216  0.00  0.00    +0.109 C 
ATOM      8  C   UNL     1      -1.530   4.001  -2.275  0.00  0.00    +0.122 A 
ATOM      9  C   UNL     1      -2.866   3.593  -2.392  0.00  0.00    +0.044 A 
ATOM     10  C   UNL     1      -3.633   4.067  -3.413  0.00  0.00    +0.013 A 
ATOM     11  C   UNL     1      -3.043   4.955  -4.335  0.00  0.00    +0.004 A 
ATOM     12  C   UNL     1      -3.775   5.477  -5.414  0.00  0.00    +0.010 A 
ATOM     13  C   UNL     1      -3.175   6.332  -6.287  0.00  0.00    +0.004 A 
ATOM     14  C   UNL     1      -1.841   6.699  -6.126  0.00  0.00    +0.048 A 
ATOM     15  C   UNL     1      -1.099   6.212  -5.088  0.00  0.00    +0.147 A 
ATOM     16  C   UNL     1      -1.688   5.324  -4.165  0.00  0.00    +0.115 A 
ATOM     17  N   UNL     1      -0.985   4.831  -3.140  0.00  0.00    -0.228 NA
ATOM     18  C   UNL     1       0.682   4.157   1.215  0.00  0.00    +0.009 C 
ENDROOT
BRANCH  15  19
ATOM     19  O   UNL     1       0.201   6.582  -4.946  0.00  0.00    -0.481 OA
BRANCH  19  20
ATOM     20  C   UNL     1       0.729   7.485  -5.920  0.00  0.00    +0.325 C 
BRANCH  20  21
ATOM     21  C   UNL     1       2.172   7.779  -5.602  0.00  0.00    +0.255 C 
ATOM     22  O   UNL     1       2.697   7.266  -4.637  0.00  0.00    -0.272 OA
ATOM     23  N   UNL     1       2.880   8.612  -6.391  0.00  0.00    -0.283 N 
ATOM     24  H   UNL     1       2.428   9.017  -7.308  0.00  0.00    +0.155 HD
BRANCH  23  25
ATOM     25  C   UNL     1       4.190   8.961  -6.043  0.00  0.00    +0.034 A 
ATOM     26  C   UNL     1       4.668  10.234  -6.324  0.00  0.00    +0.025 A 
ATOM     27  C   UNL     1       5.960  10.577  -5.974  0.00  0.00    +0.034 A 
ATOM     28  C   UNL     1       6.779   9.651  -5.356  0.00  0.00    +0.126 A 
ATOM     29  C   UNL     1       6.307   8.381  -5.079  0.00  0.00    +0.034 A 
ATOM     30  C   UNL     1       5.015   8.034  -5.421  0.00  0.00    +0.025 A 
BRANCH  28  31
ATOM     31  N   UNL     1       8.165  10.021  -4.987  0.00  0.00    +0.056 N 
ATOM     32  O   UNL     1       8.887   9.206  -4.442  0.00  0.00    -0.126 OA
ATOM     33  O   UNL     1       8.582  11.139  -5.230  0.00  0.00    -0.126 OA
ENDBRANCH  28  31
ENDBRANCH  23  25
ENDBRANCH  20  21
ENDBRANCH  19  20
ENDBRANCH  15  19
TORSDOF 5
