REMARK  Name = ZINC36020284
REMARK  16 active torsions:
REMARK  status: ('A' for Active; 'I' for Inactive)
REMARK    1  A    between atoms: C_1  and  C_2
REMARK    2  A    between atoms: C_2  and  C_4
REMARK    3  A    between atoms: C_2  and  C_10
REMARK    4  A    between atoms: C_4  and  C_5
REMARK    5  A    between atoms: C_5  and  C_6
REMARK    6  A    between atoms: C_7  and  C_8
REMARK    7  A    between atoms: C_7  and  C_9
REMARK    8  A    between atoms: C_14  and  C_40
REMARK    9  A    between atoms: C_15  and  C_39
REMARK   10  A    between atoms: C_18  and  C_38
REMARK   11  A    between atoms: C_23  and  O_37
REMARK   12  A    between atoms: C_28  and  O_33
REMARK   13  A    between atoms: C_30  and  C_31
REMARK   14  A    between atoms: C_30  and  C_32
REMARK   15  A    between atoms: O_33  and  C_34
REMARK   16  A    between atoms: C_34  and  C_36
REMARK                            x       y       z     vdW  Elec       q    Type
REMARK                         _______ _______ _______ _____ _____    ______ ____
ROOT
ATOM      1  C   UNL     1      -1.611  -0.695  -1.247  0.00  0.00    -0.002 C 
ATOM      2  C   UNL     1      -1.212  -2.170  -1.528  0.00  0.00    +0.005 C 
ATOM      3  C   UNL     1      -2.197  -3.053  -0.723  0.00  0.00    +0.008 C 
ATOM      4  C   UNL     1      -3.270  -2.060  -0.228  0.00  0.00    -0.023 C 
ATOM      5  C   UNL     1      -2.401  -0.821   0.079  0.00  0.00    -0.023 C 
ATOM      6  C   UNL     1      -3.275   0.355   0.422  0.00  0.00    +0.008 C 
ATOM      7  C   UNL     1      -4.661  -0.048   0.908  0.00  0.00    +0.008 C 
ATOM      8  C   UNL     1      -4.721  -1.359   1.691  0.00  0.00    -0.023 C 
ATOM      9  C   UNL     1      -4.014  -2.506   1.020  0.00  0.00    +0.002 C 
ATOM     10  C   UNL     1      -4.782  -3.776   0.732  0.00  0.00    +0.007 C 
ATOM     11  C   UNL     1      -6.122  -3.909   1.435  0.00  0.00    +0.036 C 
ATOM     12  C   UNL     1      -6.886  -2.595   1.305  0.00  0.00    +0.078 C 
ATOM     13  C   UNL     1      -6.151  -1.570   2.162  0.00  0.00    +0.028 C 
ATOM     14  C   UNL     1      -6.249  -1.952   3.632  0.00  0.00    +0.010 C 
ATOM     15  C   UNL     1      -7.710  -2.107   4.069  0.00  0.00    +0.046 C 
ATOM     16  C   UNL     1      -8.457  -3.107   3.202  0.00  0.00    +0.185 C 
ATOM     17  C   UNL     1      -8.341  -2.742   1.726  0.00  0.00    +0.031 C 
ATOM     18  C   UNL     1      -9.026  -3.829   0.886  0.00  0.00    +0.017 C 
ATOM     19  C   UNL     1      -9.083  -1.422   1.474  0.00  0.00    +0.017 C 
ATOM     20  C   UNL     1      -3.910  -1.079   2.969  0.00  0.00    +0.012 C 
ATOM     21  C   UNL     1      -1.366  -1.082   1.183  0.00  0.00    +0.012 C 
ATOM     22  C   UNL     1      -4.216  -1.785  -1.403  0.00  0.00    +0.012 C 
ENDROOT
BRANCH   1  24
ATOM     23  C   UNL     1      -0.760   1.574  -0.628  0.00  0.00    +0.008 C 
ATOM     24  C   UNL     1      -0.354   0.154  -1.027  0.00  0.00    -0.010 C 
BRANCH  24  25
ATOM     25  C   UNL     1       0.462   0.201  -2.321  0.00  0.00    +0.007 C 
BRANCH  25  26
ATOM     26  C   UNL     1       1.777   0.943  -2.068  0.00  0.00    +0.027 C 
BRANCH  26  27
ATOM     27  C   UNL     1       2.580   0.989  -3.342  0.00  0.00    -0.028 C 
ATOM     28  C   UNL     1       3.812   0.542  -3.356  0.00  0.00    -0.080 C 
ATOM     29  C   UNL     1       4.457   0.070  -2.079  0.00  0.00    +0.038 C 
ATOM     30  C   UNL     1       4.583   0.500  -4.650  0.00  0.00    +0.038 C 
ENDBRANCH  26  27
ENDBRANCH  25  26
ENDBRANCH  24  25
ENDBRANCH   1  24
BRANCH  12  31
ATOM     31  O   UNL     1      -6.862  -2.168  -0.062  0.00  0.00    -0.388 OA
ATOM     32  H   UNL     1      -7.264  -2.796  -0.678  0.00  0.00    +0.210 HD
ENDBRANCH  12  31
BRANCH  16  33
ATOM     33  O   UNL     1      -7.970  -4.430   3.429  0.00  0.00    -0.461 OA
BRANCH  33  34
ATOM     34  C   UNL     1      -8.571  -5.144   4.394  0.00  0.00    +0.304 C 
ATOM     35  O   UNL     1      -9.481  -4.660   5.026  0.00  0.00    -0.251 OA
ATOM     36  C   UNL     1      -8.112  -6.548   4.691  0.00  0.00    +0.136 C 
ENDBRANCH  33  34
ENDBRANCH  16  33
TORSDOF 7
