REMARK  Name = ZINC04690546
REMARK  2 active torsions:
REMARK  status: ('A' for Active; 'I' for Inactive)
REMARK    1  A    between atoms: C_5  and  C_7
REMARK    2  A    between atoms: C_10  and  C_19
REMARK                            x       y       z     vdW  Elec       q    Type
REMARK                         _______ _______ _______ _____ _____    ______ ____
ROOT
ATOM      1  C   UNL     1       1.229  -2.186  -0.022  0.00  0.00    +0.107 C 
ATOM      2  C   UNL     1       1.463  -2.689  -1.451  0.00  0.00    +0.059 C 
ATOM      3  C   UNL     1       1.539  -4.221  -1.454  0.00  0.00    +0.146 C 
ATOM      4  N   UNL     1       0.396  -4.752  -0.711  0.00  0.00    -0.224 N 
ATOM      5  C   UNL     1      -0.343  -4.033   0.168  0.00  0.00    +0.216 A 
ATOM      6  N   UNL     1      -1.279  -4.811   0.644  0.00  0.00    -0.180 NA
ATOM      7  C   UNL     1      -1.170  -6.029   0.095  0.00  0.00    +0.233 A 
ATOM      8  N   UNL     1      -0.155  -6.034  -0.741  0.00  0.00    -0.132 NA
ATOM      9  N   UNL     1      -2.000  -7.118   0.367  0.00  0.00    -0.326 N 
ATOM     10  N   UNL     1      -0.069  -2.702   0.456  0.00  0.00    -0.307 N 
ATOM     11  H   UNL     1      -2.729  -7.026   1.000  0.00  0.00    +0.145 HD
ATOM     12  H   UNL     1      -1.848  -7.967  -0.078  0.00  0.00    +0.145 HD
ATOM     13  H   UNL     1      -0.696  -2.142   0.940  0.00  0.00    +0.149 HD
ENDROOT
BRANCH   3  14
ATOM     14  C   UNL     1       1.500  -4.725  -2.874  0.00  0.00    +0.014 A 
ATOM     15  C   UNL     1       0.413  -4.440  -3.680  0.00  0.00    +0.048 A 
ATOM     16  C   UNL     1       0.377  -4.903  -4.983  0.00  0.00    +0.020 A 
ATOM     17  C   UNL     1       1.428  -5.652  -5.479  0.00  0.00    +0.003 A 
ATOM     18  C   UNL     1       2.515  -5.937  -4.674  0.00  0.00    +0.020 A 
ATOM     19  C   UNL     1       2.554  -5.469  -3.373  0.00  0.00    +0.048 A 
ATOM     20 CL   UNL     1       3.922  -5.822  -2.364  0.00  0.00    -0.083 Cl
ATOM     21 CL   UNL     1      -0.908  -3.501  -3.057  0.00  0.00    -0.083 Cl
ENDBRANCH   3  14
BRANCH   1  26
ATOM     22  C   UNL     1      -0.017   1.378   0.010  0.00  0.00    +0.000 A 
ATOM     23  C   UNL     1       1.171   2.086   0.002  0.00  0.00    +0.001 A 
ATOM     24  C   UNL     1       2.377   1.412  -0.013  0.00  0.00    +0.020 A 
ATOM     25  C   UNL     1       2.397   0.029  -0.021  0.00  0.00    +0.046 A 
ATOM     26  C   UNL     1       1.208  -0.679  -0.013  0.00  0.00    -0.009 A 
ATOM     27  C   UNL     1       0.002  -0.004   0.002  0.00  0.00    +0.007 A 
ATOM     28 CL   UNL     1       3.912  -0.818  -0.041  0.00  0.00    -0.083 Cl
ENDBRANCH   1  26
TORSDOF 2
