REMARK  Name = ZINC10699625
REMARK  12 active torsions:
REMARK  status: ('A' for Active; 'I' for Inactive)
REMARK    1  A    between atoms: C_1  and  C_2
REMARK    2  A    between atoms: N_11  and  C_12
REMARK    3  A    between atoms: C_12  and  C_13
REMARK    4  A    between atoms: C_13  and  C_14
REMARK    5  A    between atoms: C_14  and  N_60
REMARK    6  A    between atoms: C_15  and  N_60
REMARK    7  A    between atoms: C_16  and  N_60
REMARK    8  A    between atoms: C_17  and  C_19
REMARK    9  A    between atoms: C_19  and  C_20
REMARK   10  A    between atoms: C_21  and  C_28
REMARK   11  A    between atoms: C_23  and  C_27
REMARK   12  A    between atoms: C_25  and  C_26
REMARK                            x       y       z     vdW  Elec       q    Type
REMARK                         _______ _______ _______ _____ _____    ______ ____
ROOT
ATOM      1  C   UNL     1      -6.407   6.033  -8.933  0.00  0.00    +0.044 C 
ATOM      2  C   UNL     1      -6.237   5.935  -7.438  0.00  0.00    -0.049 A 
ATOM      3  C   UNL     1      -7.194   6.470  -6.588  0.00  0.00    +0.005 A 
ATOM      4  C   UNL     1      -7.063   6.395  -5.226  0.00  0.00    +0.029 A 
ATOM      5  C   UNL     1      -5.939   5.766  -4.641  0.00  0.00    +0.080 A 
ATOM      6  C   UNL     1      -4.986   5.232  -5.538  0.00  0.00    +0.041 A 
ATOM      7  C   UNL     1      -5.125   5.312  -6.901  0.00  0.00    +0.020 A 
ATOM      8  S   UNL     1      -3.767   4.557  -4.436  0.00  0.00    -0.052 S 
ATOM      9  C   UNL     1      -4.576   5.001  -2.906  0.00  0.00    +0.168 A 
ATOM     10  N   UNL     1      -5.660   5.608  -3.329  0.00  0.00    -0.224 NA
ATOM     11  N   UNL     1      -4.162   4.769  -1.605  0.00  0.00    -0.250 N 
ATOM     12  C   UNL     1      -3.003   4.121  -1.372  0.00  0.00    +0.226 C 
ATOM     13  O   UNL     1      -2.324   3.741  -2.301  0.00  0.00    -0.275 OA
ENDROOT
BRANCH  11  14
ATOM     14  C   UNL     1      -4.983   5.228  -0.482  0.00  0.00    +0.114 C 
BRANCH  14  15
ATOM     15  C   UNL     1      -4.565   6.647  -0.090  0.00  0.00    +0.001 C 
BRANCH  15  16
ATOM     16  C   UNL     1      -5.423   7.126   1.083  0.00  0.00    -0.078 C 
BRANCH  16  19
ATOM     17  C   UNL     1      -5.970   9.072   2.416  0.00  0.00    -0.097 C 
ATOM     18  C   UNL     1      -3.654   8.505   1.995  0.00  0.00    -0.097 C 
ATOM     19  N   UNL     1      -5.021   8.505   1.435  0.00  0.00    +0.376 N 
ATOM     20  H   UNL     1      -5.034   9.083   0.586  0.00  0.00    -0.083 HD
ENDBRANCH  16  19
ENDBRANCH  15  16
ENDBRANCH  14  15
ENDBRANCH  11  14
BRANCH  12  21
ATOM     21  C   UNL     1      -2.553   3.869   0.044  0.00  0.00    +0.132 C 
BRANCH  21  22
ATOM     22  C   UNL     1      -1.238   3.133   0.029  0.00  0.00    -0.033 A 
ATOM     23  C   UNL     1      -1.219   1.751   0.017  0.00  0.00    -0.046 A 
ATOM     24  C   UNL     1      -0.013   1.076   0.008  0.00  0.00    +0.007 A 
ATOM     25  C   UNL     1       1.175   1.783   0.000  0.00  0.00    -0.050 A 
ATOM     26  C   UNL     1       1.156   3.165   0.008  0.00  0.00    +0.007 A 
ATOM     27  C   UNL     1      -0.050   3.840   0.022  0.00  0.00    -0.046 A 
ATOM     28  C   UNL     1      -0.070   5.347   0.030  0.00  0.00    +0.044 C 
ATOM     29  C   UNL     1       2.490   1.048  -0.016  0.00  0.00    +0.044 C 
ATOM     30  C   UNL     1      -2.514   0.980   0.019  0.00  0.00    +0.044 C 
ENDBRANCH  21  22
ENDBRANCH  12  21
TORSDOF 6
