REMARK  Name = ZINC39674507
REMARK  9 active torsions:
REMARK  status: ('A' for Active; 'I' for Inactive)
REMARK    1  A    between atoms: C_1  and  C_2
REMARK    2  A    between atoms: C_4  and  C_9
REMARK    3  A    between atoms: C_5  and  C_8
REMARK    4  A    between atoms: C_9  and  C_11
REMARK    5  A    between atoms: C_9  and  N_12
REMARK    6  A    between atoms: C_13  and  C_15
REMARK    7  A    between atoms: C_26  and  C_28
REMARK    8  A    between atoms: C_31  and  O_35
REMARK    9  A    between atoms: O_35  and  C_36
REMARK                            x       y       z     vdW  Elec       q    Type
REMARK                         _______ _______ _______ _____ _____    ______ ____
ROOT
ATOM      1  C   UNL     1      -2.580  -1.593  -5.202  0.00  0.00    +0.100 C 
ATOM      2  C   UNL     1      -3.469  -2.732  -4.652  0.00  0.00    +0.121 C 
ATOM      3  N   UNL     1      -4.243  -3.202  -5.825  0.00  0.00    -0.296 N 
ATOM      4  C   UNL     1      -3.273  -3.167  -6.945  0.00  0.00    +0.115 C 
ATOM      5  C   UNL     1      -2.453  -1.883  -6.707  0.00  0.00    -0.004 C 
ATOM      6  C   UNL     1      -0.992  -2.115  -7.079  0.00  0.00    -0.010 C 
ATOM      7  C   UNL     1      -0.884  -2.343  -8.589  0.00  0.00    -0.082 C 
ATOM      8  N   UNL     1      -1.412  -1.173  -9.302  0.00  0.00    +0.379 N 
ATOM      9  C   UNL     1      -2.842  -1.013  -9.011  0.00  0.00    -0.082 C 
ATOM     10  C   UNL     1      -3.032  -0.729  -7.518  0.00  0.00    -0.010 C 
ATOM     11  C   UNL     1      -5.537  -3.576  -5.865  0.00  0.00    +0.247 C 
ATOM     12  O   UNL     1      -6.239  -3.445  -4.880  0.00  0.00    -0.270 OA
ATOM     13  H   UNL     1      -0.915  -0.347  -9.004  0.00  0.00    -0.086 HD
ATOM     14  H   UNL     1      -1.284  -1.300 -10.294  0.00  0.00    -0.086 HD
ENDROOT
BRANCH  11  15
ATOM     15  C   UNL     1      -6.104  -4.145  -7.104  0.00  0.00    +0.040 A 
ATOM     16  C   UNL     1      -5.260  -4.705  -8.066  0.00  0.00    +0.036 A 
ATOM     17  C   UNL     1      -5.793  -5.235  -9.222  0.00  0.00    +0.085 A 
ATOM     18  C   UNL     1      -7.167  -5.212  -9.430  0.00  0.00    +0.157 A 
ATOM     19  C   UNL     1      -8.010  -4.655  -8.475  0.00  0.00    +0.085 A 
ATOM     20  C   UNL     1      -7.485  -4.129  -7.314  0.00  0.00    +0.036 A 
ATOM     21 CL   UNL     1      -9.725  -4.629  -8.740  0.00  0.00    -0.080 Cl
ATOM     22 CL   UNL     1      -4.746  -5.931 -10.419  0.00  0.00    -0.080 Cl
BRANCH  18  23
ATOM     23  O   UNL     1      -7.688  -5.734 -10.570  0.00  0.00    -0.492 OA
ATOM     24  C   UNL     1      -8.042  -7.118 -10.547  0.00  0.00    +0.277 C 
ENDBRANCH  18  23
ENDBRANCH  11  15
BRANCH   1  26
ATOM     25  N   UNL     1      -0.479  -0.501  -4.487  0.00  0.00    -0.309 N 
ATOM     26  C   UNL     1      -1.224  -1.623  -4.545  0.00  0.00    +0.219 C 
ATOM     27  O   UNL     1      -0.804  -2.656  -4.069  0.00  0.00    -0.275 OA
ATOM     28  H   UNL     1      -0.816   0.325  -4.868  0.00  0.00    +0.149 HD
BRANCH  25  29
ATOM     29  C   UNL     1       0.839  -0.530  -3.849  0.00  0.00    +0.100 C 
ATOM     30  C   UNL     1       1.886  -0.998  -4.862  0.00  0.00    +0.033 C 
BRANCH  29  33
ATOM     31  C   UNL     1       2.202   2.076  -5.305  0.00  0.00    +0.039 C 
ATOM     32  C   UNL     1       1.197   2.149  -4.153  0.00  0.00    +0.154 C 
ATOM     33  C   UNL     1       1.192   0.852  -3.363  0.00  0.00    -0.001 C 
ATOM     34  C   UNL     1       1.573   1.221  -2.138  0.00  0.00    +0.063 C 
ATOM     35  N   UNL     1       1.803   2.552  -2.087  0.00  0.00    -0.159 NA
ATOM     36  N   UNL     1       1.619   3.147  -3.156  0.00  0.00    -0.180 NA
ATOM     37  C   UNL     1       1.724   0.281  -0.970  0.00  0.00    +0.067 C 
ENDBRANCH  29  33
ENDBRANCH  25  29
ENDBRANCH   1  26
TORSDOF 5
