REMARK  Name = ZINC39898716
REMARK  7 active torsions:
REMARK  status: ('A' for Active; 'I' for Inactive)
REMARK    1  A    between atoms: C_1  and  S_2
REMARK    2  A    between atoms: S_2  and  C_3
REMARK    3  A    between atoms: C_6  and  C_9
REMARK    4  A    between atoms: C_12  and  C_23
REMARK    5  A    between atoms: N_19  and  C_20
REMARK    6  A    between atoms: C_20  and  C_21
REMARK    7  A    between atoms: C_28  and  O_29
REMARK                            x       y       z     vdW  Elec       q    Type
REMARK                         _______ _______ _______ _____ _____    ______ ____
ROOT
ATOM      1  C   UNL     1      -5.379  -1.704  -0.128  0.00  0.00    +0.142 C 
ATOM      2  C   UNL     1      -6.114  -1.885  -1.427  0.00  0.00    +0.035 A 
ATOM      3  C   UNL     1      -6.514  -1.322  -2.644  0.00  0.00    +0.102 A 
ATOM      4  N   UNL     1      -7.207  -2.238  -3.293  0.00  0.00    -0.173 NA
ATOM      5  N   UNL     1      -7.283  -3.322  -2.607  0.00  0.00    -0.272 N 
ATOM      6  H   UNL     1      -7.744  -4.128  -2.888  0.00  0.00    +0.189 HD
ATOM      7  C   UNL     1      -6.618  -3.171  -1.423  0.00  0.00    +0.126 A 
ATOM      8  C   UNL     1      -6.231  -3.820  -0.166  0.00  0.00    +0.266 C 
ATOM      9  O   UNL     1      -6.520  -4.960   0.146  0.00  0.00    -0.268 OA
ATOM     10  N   UNL     1      -5.511  -2.975   0.596  0.00  0.00    -0.281 N 
ENDROOT
BRANCH   3  11
ATOM     11  C   UNL     1      -6.216   0.052  -3.117  0.00  0.00    +0.045 A 
ATOM     12  C   UNL     1      -5.577   0.958  -2.274  0.00  0.00    +0.033 A 
ATOM     13  C   UNL     1      -5.301   2.237  -2.719  0.00  0.00    +0.042 A 
ATOM     14  C   UNL     1      -5.658   2.620  -4.001  0.00  0.00    +0.023 A 
ATOM     15  C   UNL     1      -6.292   1.728  -4.844  0.00  0.00    +0.047 A 
ATOM     16  C   UNL     1      -6.569   0.441  -4.412  0.00  0.00    +0.126 A 
ATOM     17 CL   UNL     1      -4.506   3.366  -1.667  0.00  0.00    -0.084 Cl
BRANCH  16  18
ATOM     18  O   UNL     1      -7.187  -0.439  -5.243  0.00  0.00    -0.506 OA
ATOM     19  H   UNL     1      -8.152  -0.420  -5.187  0.00  0.00    +0.292 HD
ENDBRANCH  16  18
ENDBRANCH   3  11
BRANCH   1  23
ATOM     20  C   UNL     1      -1.257  -0.856  -0.874  0.00  0.00    +0.008 A 
ATOM     21  C   UNL     1      -1.773  -2.114  -1.162  0.00  0.00    +0.015 A 
ATOM     22  C   UNL     1      -3.105  -2.384  -0.920  0.00  0.00    +0.007 A 
ATOM     23  C   UNL     1      -3.926  -1.405  -0.391  0.00  0.00    -0.022 A 
ATOM     24  C   UNL     1      -3.416  -0.152  -0.103  0.00  0.00    +0.007 A 
ATOM     25  C   UNL     1      -2.083   0.123  -0.337  0.00  0.00    +0.015 A 
BRANCH  20  27
ATOM     26  C   UNL     1       1.092  -2.056  -1.866  0.00  0.00    +0.090 C 
ATOM     27  S   UNL     1       0.443  -0.507  -1.182  0.00  0.00    -0.129 S 
ENDBRANCH  20  27
ENDBRANCH   1  23
BRANCH  10  28
ATOM     28  C   UNL     1      -4.953  -3.272   1.918  0.00  0.00    +0.135 C 
BRANCH  28  29
ATOM     29  C   UNL     1      -5.956  -2.902   2.981  0.00  0.00    -0.016 C 
ATOM     30  C   UNL     1      -6.335  -3.795   3.862  0.00  0.00    +0.005 C 
ENDBRANCH  28  29
ENDBRANCH  10  28
TORSDOF 6
