REMARK  Name = ZINC38660413
REMARK  17 active torsions:
REMARK  status: ('A' for Active; 'I' for Inactive)
REMARK    1  A    between atoms: C_1  and  C_2
REMARK    2  A    between atoms: C_2  and  C_3
REMARK    3  A    between atoms: C_2  and  C_4
REMARK    4  A    between atoms: C_4  and  C_5
REMARK    5  A    between atoms: C_5  and  O_6
REMARK    6  A    between atoms: O_6  and  C_7
REMARK    7  A    between atoms: C_10  and  C_15
REMARK    8  A    between atoms: C_12  and  O_13
REMARK    9  A    between atoms: O_13  and  C_14
REMARK   10  A    between atoms: C_20  and  O_29
REMARK   11  A    between atoms: C_24  and  N_28
REMARK   12  A    between atoms: C_25  and  C_26
REMARK   13  A    between atoms: O_29  and  C_30
REMARK   14  A    between atoms: C_30  and  C_32
REMARK   15  A    between atoms: C_32  and  C_33
REMARK   16  A    between atoms: C_36  and  O_39
REMARK   17  A    between atoms: O_39  and  C_40
REMARK                            x       y       z     vdW  Elec       q    Type
REMARK                         _______ _______ _______ _____ _____    ______ ____
ROOT
ATOM      1  C   UNL     1      -6.592   0.508  -5.821  0.00  0.00    +0.098 C 
ATOM      2  C   UNL     1      -6.724   2.000  -5.977  0.00  0.00    +0.008 A 
ATOM      3  C   UNL     1      -7.652   2.685  -5.213  0.00  0.00    +0.012 A 
ATOM      4  C   UNL     1      -7.787   4.053  -5.343  0.00  0.00    +0.047 A 
ATOM      5  C   UNL     1      -6.990   4.746  -6.243  0.00  0.00    +0.135 A 
ATOM      6  C   UNL     1      -6.060   4.063  -7.011  0.00  0.00    +0.093 A 
ATOM      7  C   UNL     1      -5.925   2.687  -6.878  0.00  0.00    +0.138 A 
ATOM      8  O   UNL     1      -5.011   2.034  -7.636  0.00  0.00    -0.441 OA
ATOM      9  C   UNL     1      -5.118   0.707  -7.819  0.00  0.00    +0.199 C 
ATOM     10  C   UNL     1      -5.851  -0.070  -6.993  0.00  0.00    +0.098 C 
ENDROOT
BRANCH   1  14
ATOM     11  C   UNL     1      -4.442  -0.351  -2.225  0.00  0.00    +0.162 A 
ATOM     12  C   UNL     1      -3.847   0.395  -3.230  0.00  0.00    +0.050 A 
ATOM     13  C   UNL     1      -4.544   0.670  -4.391  0.00  0.00    +0.008 A 
ATOM     14  C   UNL     1      -5.836   0.204  -4.553  0.00  0.00    -0.031 A 
ATOM     15  C   UNL     1      -6.436  -0.539  -3.554  0.00  0.00    +0.054 A 
ATOM     16  C   UNL     1      -5.740  -0.824  -2.390  0.00  0.00    +0.162 A 
BRANCH  16  17
ATOM     17  O   UNL     1      -6.326  -1.561  -1.408  0.00  0.00    -0.491 OA
ATOM     18  C   UNL     1      -7.661  -2.014  -1.647  0.00  0.00    +0.277 C 
ENDBRANCH  16  17
BRANCH  11  19
ATOM     19  O   UNL     1      -3.757  -0.623  -1.082  0.00  0.00    -0.488 OA
BRANCH  19  20
ATOM     20  C   UNL     1      -2.429  -0.104  -0.982  0.00  0.00    +0.229 C 
BRANCH  20  21
ATOM     21  C   UNL     1      -1.823  -0.511   0.362  0.00  0.00    +0.044 C 
BRANCH  21  23
ATOM     22  C   UNL     1      -0.451   1.574   0.493  0.00  0.00    +0.007 C 
ATOM     23  C   UNL     1      -0.401   0.045   0.469  0.00  0.00    -0.014 C 
ATOM     24  C   UNL     1       0.250  -0.464   1.757  0.00  0.00    +0.007 C 
ENDBRANCH  21  23
ENDBRANCH  20  21
ENDBRANCH  19  20
ENDBRANCH  11  19
ENDBRANCH   1  14
BRANCH   9  25
ATOM     25  N   UNL     1      -4.463   0.126  -8.876  0.00  0.00    -0.328 N 
ATOM     26  H   UNL     1      -3.932   0.671  -9.477  0.00  0.00    +0.145 HD
ATOM     27  H   UNL     1      -4.530  -0.831  -9.022  0.00  0.00    +0.145 HD
ENDBRANCH   9  25
BRANCH  10  28
ATOM     28  C   UNL     1      -5.923  -1.479  -7.242  0.00  0.00    +0.101 C 
ATOM     29  N   UNL     1      -5.980  -2.596  -7.440  0.00  0.00    -0.191 NA
ENDBRANCH  10  28
BRANCH   5  30
ATOM     30  O   UNL     1      -7.122   6.093  -6.373  0.00  0.00    -0.425 OA
BRANCH  30  31
ATOM     31  C   UNL     1      -7.643   6.568  -7.515  0.00  0.00    +0.317 C 
ATOM     32  O   UNL     1      -8.074   5.804  -8.346  0.00  0.00    -0.250 OA
BRANCH  31  33
ATOM     33  C   UNL     1      -7.691   8.054  -7.761  0.00  0.00    +0.156 C 
BRANCH  33  34
ATOM     34  C   UNL     1      -8.318   8.321  -9.105  0.00  0.00    -0.037 A 
ATOM     35  C   UNL     1      -7.524   8.387 -10.236  0.00  0.00    +0.008 A 
ATOM     36  C   UNL     1      -8.097   8.633 -11.469  0.00  0.00    +0.046 A 
ATOM     37  C   UNL     1      -9.469   8.812 -11.573  0.00  0.00    +0.120 A 
ATOM     38  C   UNL     1     -10.262   8.745 -10.437  0.00  0.00    +0.046 A 
ATOM     39  C   UNL     1      -9.686   8.494  -9.207  0.00  0.00    +0.008 A 
BRANCH  37  40
ATOM     40  O   UNL     1     -10.034   9.054 -12.784  0.00  0.00    -0.495 OA
ATOM     41  C   UNL     1     -11.452   9.228 -12.816  0.00  0.00    +0.277 C 
ENDBRANCH  37  40
ENDBRANCH  33  34
ENDBRANCH  31  33
ENDBRANCH  30  31
ENDBRANCH   5  30
TORSDOF 13
