REMARK  Name = ZINC36037290
REMARK  10 active torsions:
REMARK  status: ('A' for Active; 'I' for Inactive)
REMARK    1  A    between atoms: C_1  and  O_2
REMARK    2  A    between atoms: O_2  and  C_3
REMARK    3  A    between atoms: C_3  and  C_5
REMARK    4  A    between atoms: C_7  and  C_37
REMARK    5  A    between atoms: C_14  and  C_30
REMARK    6  A    between atoms: C_16  and  C_26
REMARK    7  A    between atoms: C_17  and  N_25
REMARK    8  A    between atoms: N_18  and  C_19
REMARK    9  A    between atoms: C_26  and  O_28
REMARK   10  A    between atoms: O_28  and  C_29
REMARK                            x       y       z     vdW  Elec       q    Type
REMARK                         _______ _______ _______ _____ _____    ______ ____
ROOT
ATOM      1  C   UNL     1      -2.415   0.220   2.782  0.00  0.00    +0.176 C 
ATOM      2  C   UNL     1      -3.240  -0.426   1.664  0.00  0.00    +0.046 C 
ATOM      3  C   UNL     1      -3.867  -1.712   2.206  0.00  0.00    +0.061 C 
ATOM      4  C   UNL     1      -2.780  -2.640   2.691  0.00  0.00    +0.025 C 
ATOM      5  C   UNL     1      -1.623  -2.155   3.189  0.00  0.00    +0.026 C 
ATOM      6  C   UNL     1      -1.391  -0.768   3.270  0.00  0.00    +0.176 C 
ATOM      7  O   UNL     1      -0.347  -0.362   3.742  0.00  0.00    -0.291 OA
ATOM      8  C   UNL     1      -0.537  -3.084   3.670  0.00  0.00    +0.097 C 
ATOM      9  C   UNL     1      -1.073  -4.463   3.918  0.00  0.00    +0.084 C 
ATOM     10  C   UNL     1      -2.263  -4.860   3.389  0.00  0.00    +0.103 C 
ATOM     11  N   UNL     1      -2.998  -3.992   2.618  0.00  0.00    -0.261 N 
ENDROOT
BRANCH   8  12
ATOM     12  C   UNL     1       0.548  -3.158   2.626  0.00  0.00    +0.000 A 
ATOM     13  C   UNL     1       0.253  -3.605   1.352  0.00  0.00    +0.007 A 
ATOM     14  C   UNL     1       1.247  -3.673   0.395  0.00  0.00    +0.000 A 
ATOM     15  C   UNL     1       2.539  -3.293   0.710  0.00  0.00    +0.003 A 
ATOM     16  C   UNL     1       2.836  -2.845   1.983  0.00  0.00    +0.038 A 
ATOM     17  C   UNL     1       1.840  -2.772   2.941  0.00  0.00    +0.127 A 
ATOM     18  F   UNL     1       2.128  -2.329   4.184  0.00  0.00    -0.205 F 
ENDBRANCH   8  12
BRANCH  11  19
ATOM     19  C   UNL     1      -3.978  -4.491   1.753  0.00  0.00    +0.040 A 
ATOM     20  C   UNL     1      -5.304  -4.108   1.907  0.00  0.00    +0.024 A 
ATOM     21  C   UNL     1      -6.269  -4.602   1.052  0.00  0.00    +0.002 A 
ATOM     22  C   UNL     1      -5.916  -5.478   0.042  0.00  0.00    +0.000 A 
ATOM     23  C   UNL     1      -4.596  -5.862  -0.115  0.00  0.00    +0.002 A 
ATOM     24  C   UNL     1      -3.626  -5.367   0.734  0.00  0.00    +0.024 A 
ENDBRANCH  11  19
BRANCH   2  25
ATOM     25  C   UNL     1      -4.324   0.523   1.222  0.00  0.00    -0.043 A 
ATOM     26  C   UNL     1      -4.112   1.358   0.140  0.00  0.00    +0.004 A 
ATOM     27  C   UNL     1      -5.106   2.228  -0.266  0.00  0.00    +0.000 A 
ATOM     28  C   UNL     1      -6.312   2.265   0.409  0.00  0.00    +0.000 A 
ATOM     29  C   UNL     1      -6.523   1.430   1.491  0.00  0.00    +0.000 A 
ATOM     30  C   UNL     1      -5.531   0.556   1.894  0.00  0.00    +0.004 A 
ENDBRANCH   2  25
BRANCH  10  31
ATOM     31  N   UNL     1      -2.727  -6.128   3.624  0.00  0.00    -0.346 N 
ATOM     32  H   UNL     1      -2.407  -6.628   4.392  0.00  0.00    +0.143 HD
ATOM     33  H   UNL     1      -3.376  -6.527   3.022  0.00  0.00    +0.143 HD
ENDBRANCH  10  31
BRANCH   1  34
ATOM     34  C   UNL     1      -3.323   0.608   3.920  0.00  0.00    +0.318 C 
ATOM     35  O   UNL     1      -3.996  -0.232   4.470  0.00  0.00    -0.250 OA
BRANCH  34  37
ATOM     36  C   UNL     1      -4.268   2.183   5.407  0.00  0.00    +0.280 C 
ATOM     37  O   UNL     1      -3.385   1.887   4.323  0.00  0.00    -0.467 OA
ENDBRANCH  34  37
ENDBRANCH   1  34
BRANCH   9  38
ATOM     38  C   UNL     1      -0.337  -5.357   4.708  0.00  0.00    +0.339 C 
ATOM     39  O   UNL     1      -0.720  -6.505   4.847  0.00  0.00    -0.245 OA
BRANCH  38  40
ATOM     40  O   UNL     1       0.797  -4.946   5.316  0.00  0.00    -0.465 OA
ATOM     41  C   UNL     1       1.497  -5.910   6.106  0.00  0.00    +0.280 C 
ENDBRANCH  38  40
ENDBRANCH   9  38
TORSDOF 8
