REMARK  Name = ZINC16022066
REMARK  9 active torsions:
REMARK  status: ('A' for Active; 'I' for Inactive)
REMARK    1  A    between atoms: C_1  and  C_2
REMARK    2  A    between atoms: C_2  and  C_3
REMARK    3  A    between atoms: C_2  and  C_4
REMARK    4  A    between atoms: C_4  and  C_5
REMARK    5  A    between atoms: N_13  and  C_16
REMARK    6  A    between atoms: C_16  and  C_17
REMARK    7  A    between atoms: C_17  and  C_18
REMARK    8  A    between atoms: C_18  and  O_19
REMARK    9  A    between atoms: O_19  and  C_20
REMARK                            x       y       z     vdW  Elec       q    Type
REMARK                         _______ _______ _______ _____ _____    ______ ____
ROOT
ATOM      1  C   UNL     1      -2.135  -0.131  -1.286  0.00  0.00    -0.057 C 
ATOM      2  C   UNL     1      -3.612  -0.580  -1.259  0.00  0.00    +0.073 C 
ATOM      3  C   UNL     1      -3.916  -1.040  -2.712  0.00  0.00    +0.088 C 
ATOM      4  C   UNL     1      -4.181  -2.521  -2.559  0.00  0.00    +0.225 C 
ATOM      5  O   UNL     1      -4.466  -3.278  -3.462  0.00  0.00    -0.275 OA
ATOM      6  N   UNL     1      -4.051  -2.865  -1.273  0.00  0.00    -0.242 N 
ATOM      7  C   UNL     1      -3.735  -1.846  -0.442  0.00  0.00    +0.224 C 
ATOM      8  O   UNL     1      -3.572  -1.925   0.756  0.00  0.00    -0.275 OA
ATOM      9  C   UNL     1      -2.602  -0.813  -3.470  0.00  0.00    +0.050 C 
ATOM     10  N   UNL     1      -1.536  -0.849  -2.442  0.00  0.00    +0.394 N 
ATOM     11  C   UNL     1      -2.379  -1.865  -4.518  0.00  0.00    -0.026 A 
ATOM     12  C   UNL     1      -2.263  -3.237  -4.476  0.00  0.00    +0.004 A 
ATOM     13  C   UNL     1      -2.056  -3.952  -5.642  0.00  0.00    +0.002 A 
ATOM     14  C   UNL     1      -1.967  -3.286  -6.851  0.00  0.00    +0.022 A 
ATOM     15  C   UNL     1      -2.082  -1.912  -6.899  0.00  0.00    +0.062 A 
ATOM     16  C   UNL     1      -2.289  -1.184  -5.728  0.00  0.00    +0.054 A 
ATOM     17  N   UNL     1      -2.434   0.190  -5.522  0.00  0.00    -0.285 N 
ATOM     18  C   UNL     1      -2.622   0.490  -4.222  0.00  0.00    +0.211 C 
ATOM     19  O   UNL     1      -2.776   1.597  -3.749  0.00  0.00    -0.277 OA
ATOM     20 CL   UNL     1      -1.967  -1.087  -8.422  0.00  0.00    -0.082 Cl
ATOM     21  H   UNL     1      -0.714  -0.365  -2.771  0.00  0.00    -0.083 HD
ATOM     22  H   UNL     1      -2.404   0.851  -6.231  0.00  0.00    +0.155 HD
ATOM     23  H   UNL     1      -1.309  -1.800  -2.189  0.00  0.00    -0.083 HD
ENDROOT
BRANCH   1  24
ATOM     24  C   UNL     1      -1.433  -0.534   0.013  0.00  0.00    -0.012 C 
BRANCH  24  26
ATOM     25  C   UNL     1      -0.019   1.526   0.010  0.00  0.00    +0.007 C 
ATOM     26  C   UNL     1       0.002  -0.004   0.002  0.00  0.00    -0.019 C 
ATOM     27  C   UNL     1       0.742  -0.511   1.242  0.00  0.00    +0.007 C 
ENDBRANCH  24  26
ENDBRANCH   1  24
BRANCH   6  28
ATOM     28  C   UNL     1      -4.244  -4.238  -0.797  0.00  0.00    +0.118 C 
BRANCH  28  29
ATOM     29  C   UNL     1      -2.910  -4.986  -0.845  0.00  0.00    +0.047 C 
BRANCH  29  30
ATOM     30  C   UNL     1      -3.111  -6.419  -0.349  0.00  0.00    +0.161 C 
BRANCH  30  31
ATOM     31  O   UNL     1      -1.865  -7.117  -0.393  0.00  0.00    -0.383 OA
ATOM     32  C   UNL     1      -1.942  -8.473   0.052  0.00  0.00    +0.193 C 
ENDBRANCH  30  31
ENDBRANCH  29  30
ENDBRANCH  28  29
ENDBRANCH   6  28
TORSDOF 6
