REMARK  Name = ZINC04209725
REMARK  10 active torsions:
REMARK  status: ('A' for Active; 'I' for Inactive)
REMARK    1  A    between atoms: C_1  and  O_2
REMARK    2  A    between atoms: O_2  and  C_3
REMARK    3  A    between atoms: C_5  and  C_18
REMARK    4  A    between atoms: C_8  and  O_9
REMARK    5  A    between atoms: O_9  and  C_10
REMARK    6  A    between atoms: C_10  and  C_12
REMARK    7  A    between atoms: N_19  and  N_20
REMARK    8  A    between atoms: C_21  and  C_23
REMARK    9  A    between atoms: N_25  and  C_26
REMARK   10  A    between atoms: C_27  and  C_35
REMARK                            x       y       z     vdW  Elec       q    Type
REMARK                         _______ _______ _______ _____ _____    ______ ____
ROOT
ATOM      1  C   UNL     1      -4.836   0.254   0.031  0.00  0.00    +0.138 C 
ATOM      2  N   UNL     1      -5.986  -0.349   0.066  0.00  0.00    -0.187 NA
ENDROOT
BRANCH   1   5
ATOM      3  C   UNL     1      -1.188  -0.631  -0.022  0.00  0.00    +0.163 A 
ATOM      4  C   UNL     1      -2.353   0.113  -0.014  0.00  0.00    +0.059 A 
ATOM      5  C   UNL     1      -3.591  -0.534   0.023  0.00  0.00    -0.002 A 
ATOM      6  C   UNL     1      -3.646  -1.930   0.051  0.00  0.00    +0.013 A 
ATOM      7  C   UNL     1      -2.480  -2.666   0.043  0.00  0.00    +0.051 A 
ATOM      8  C   UNL     1      -1.250  -2.023   0.002  0.00  0.00    +0.173 A 
BRANCH   3  10
ATOM      9  C   UNL     1       0.008   1.424  -0.081  0.00  0.00    +0.277 C 
ATOM     10  O   UNL     1       0.018  -0.005  -0.058  0.00  0.00    -0.491 OA
ENDBRANCH   3  10
BRANCH   8  11
ATOM     11  O   UNL     1      -0.104  -2.753  -0.011  0.00  0.00    -0.419 OA
BRANCH  11  12
ATOM     12  C   UNL     1       0.555  -2.917   1.152  0.00  0.00    +0.345 C 
ATOM     13  O   UNL     1       0.071  -2.503   2.187  0.00  0.00    -0.245 OA
BRANCH  12  14
ATOM     14  C   UNL     1       1.865  -3.599   1.170  0.00  0.00    +0.059 A 
ATOM     15  C   UNL     1       2.426  -4.070  -0.019  0.00  0.00    +0.015 A 
ATOM     16  C   UNL     1       3.650  -4.706   0.005  0.00  0.00    +0.001 A 
ATOM     17  C   UNL     1       4.321  -4.878   1.202  0.00  0.00    +0.000 A 
ATOM     18  C   UNL     1       3.771  -4.413   2.384  0.00  0.00    +0.001 A 
ATOM     19  C   UNL     1       2.551  -3.769   2.374  0.00  0.00    +0.015 A 
ENDBRANCH  12  14
ENDBRANCH  11  12
ENDBRANCH   8  11
ENDBRANCH   1   5
BRANCH   2  20
ATOM     20  N   UNL     1      -7.170   0.401   0.074  0.00  0.00    -0.199 N 
ATOM     21  C   UNL     1      -8.363  -0.225   0.110  0.00  0.00    +0.318 C 
ATOM     22  O   UNL     1      -8.413  -1.438   0.134  0.00  0.00    -0.263 OA
ATOM     23  H   UNL     1      -7.131   1.370   0.054  0.00  0.00    +0.178 HD
BRANCH  21  24
ATOM     24  C   UNL     1      -9.623   0.572   0.118  0.00  0.00    +0.305 C 
ATOM     25  O   UNL     1      -9.573   1.785   0.094  0.00  0.00    -0.265 OA
ATOM     26  N   UNL     1     -10.816  -0.053   0.154  0.00  0.00    -0.271 N 
ATOM     27  H   UNL     1     -10.855  -1.022   0.173  0.00  0.00    +0.156 HD
BRANCH  26  28
ATOM     28  C   UNL     1     -11.986   0.687   0.162  0.00  0.00    +0.090 A 
ATOM     29  C   UNL     1     -13.301   0.240   0.202  0.00  0.00    +0.084 A 
ATOM     30  C   UNL     1     -14.357   1.237   0.202  0.00  0.00    -0.018 A 
ATOM     31  C   UNL     1     -13.960   2.529   0.162  0.00  0.00    -0.004 A 
ATOM     32  S   UNL     1     -12.189   2.459   0.132  0.00  0.00    -0.077 S 
ATOM     33  C   UNL     1     -14.832   3.746   0.151  0.00  0.00    +0.043 C 
ATOM     34  C   UNL     1     -16.266   3.311  -0.183  0.00  0.00    +0.005 C 
ATOM     35  C   UNL     1     -16.631   2.109   0.692  0.00  0.00    +0.005 C 
ATOM     36  C   UNL     1     -15.840   0.880   0.244  0.00  0.00    +0.037 C 
BRANCH  29  37
ATOM     37  C   UNL     1     -13.605  -1.159   0.242  0.00  0.00    +0.102 C 
ATOM     38  N   UNL     1     -13.846  -2.269   0.274  0.00  0.00    -0.191 NA
ENDBRANCH  29  37
ENDBRANCH  26  28
ENDBRANCH  21  24
ENDBRANCH   2  20
TORSDOF 9
