REMARK  Name = ZINC09292166
REMARK  9 active torsions:
REMARK  status: ('A' for Active; 'I' for Inactive)
REMARK    1  A    between atoms: C_1  and  C_2
REMARK    2  A    between atoms: C_2  and  O_3
REMARK    3  A    between atoms: O_3  and  C_4
REMARK    4  A    between atoms: C_7  and  C_12
REMARK    5  A    between atoms: C_9  and  O_10
REMARK    6  A    between atoms: O_10  and  C_11
REMARK    7  A    between atoms: C_19  and  N_33
REMARK    8  A    between atoms: C_20  and  C_31
REMARK    9  A    between atoms: C_21  and  C_23
REMARK                            x       y       z     vdW  Elec       q    Type
REMARK                         _______ _______ _______ _____ _____    ______ ____
ROOT
ATOM      1  C   UNL     1       0.943  -6.513  -1.892  0.00  0.00    +0.100 A 
ATOM      2  C   UNL     1       1.333  -7.226  -0.755  0.00  0.00    +0.054 A 
ATOM      3  C   UNL     1       1.450  -8.541  -1.101  0.00  0.00    +0.223 A 
ATOM      4  N   UNL     1       1.142  -8.650  -2.410  0.00  0.00    -0.246 N 
ATOM      5  H   UNL     1       1.139  -9.470  -2.929  0.00  0.00    +0.192 HD
ATOM      6  N   UNL     1       0.822  -7.370  -2.888  0.00  0.00    -0.171 NA
ATOM      7  O   UNL     1       1.819  -9.501  -0.217  0.00  0.00    -0.423 OA
ATOM      8  C   UNL     1       2.339  -9.099   0.961  0.00  0.00    +0.200 C 
ATOM      9  C   UNL     1       2.274  -7.829   1.417  0.00  0.00    +0.098 C 
ATOM     10  C   UNL     1       1.599  -6.725   0.641  0.00  0.00    +0.103 C 
ENDROOT
BRANCH  10  11
ATOM     11  C   UNL     1       0.298  -6.358   1.306  0.00  0.00    -0.016 A 
ATOM     12  C   UNL     1      -0.731  -7.279   1.366  0.00  0.00    +0.007 A 
ATOM     13  C   UNL     1      -1.925  -6.942   1.976  0.00  0.00    +0.020 A 
ATOM     14  C   UNL     1      -2.090  -5.684   2.528  0.00  0.00    +0.042 A 
ATOM     15  C   UNL     1      -1.060  -4.763   2.469  0.00  0.00    +0.040 A 
ATOM     16  C   UNL     1       0.136  -5.101   1.862  0.00  0.00    +0.046 A 
ATOM     17 CL   UNL     1       1.431  -3.948   1.793  0.00  0.00    -0.083 Cl
ATOM     18 CL   UNL     1      -3.590  -5.262   3.294  0.00  0.00    -0.083 Cl
ENDBRANCH  10  11
BRANCH   1  22
ATOM     19  C   UNL     1       0.254  -2.316  -2.097  0.00  0.00    +0.162 A 
ATOM     20  C   UNL     1       1.350  -2.806  -1.404  0.00  0.00    +0.050 A 
ATOM     21  C   UNL     1       1.576  -4.166  -1.336  0.00  0.00    +0.014 A 
ATOM     22  C   UNL     1       0.701  -5.050  -1.964  0.00  0.00    +0.006 A 
ATOM     23  C   UNL     1      -0.402  -4.559  -2.661  0.00  0.00    +0.059 A 
ATOM     24  C   UNL     1      -0.627  -3.195  -2.722  0.00  0.00    +0.162 A 
BRANCH  24  25
ATOM     25  O   UNL     1      -1.705  -2.713  -3.396  0.00  0.00    -0.491 OA
ATOM     26  C   UNL     1      -2.566  -3.672  -4.013  0.00  0.00    +0.277 C 
ENDBRANCH  24  25
BRANCH  19  27
ATOM     27  O   UNL     1       0.035  -0.976  -2.162  0.00  0.00    -0.489 OA
BRANCH  27  29
ATOM     28  C   UNL     1       0.570   1.331  -1.680  0.00  0.00    +0.048 C 
ATOM     29  C   UNL     1       0.979  -0.132  -1.498  0.00  0.00    +0.226 C 
ENDBRANCH  27  29
ENDBRANCH  19  27
ENDBRANCH   1  22
BRANCH   8  30
ATOM     30  N   UNL     1       2.971 -10.035   1.742  0.00  0.00    -0.328 N 
ATOM     31  H   UNL     1       3.033 -10.955   1.441  0.00  0.00    +0.145 HD
ATOM     32  H   UNL     1       3.354  -9.776   2.594  0.00  0.00    +0.145 HD
ENDBRANCH   8  30
BRANCH   9  33
ATOM     33  C   UNL     1       2.867  -7.519   2.683  0.00  0.00    +0.101 C 
ATOM     34  N   UNL     1       3.338  -7.273   3.687  0.00  0.00    -0.191 NA
ENDBRANCH   9  33
TORSDOF 7
