REMARK  Name = ZINC59435860
REMARK  9 active torsions:
REMARK  status: ('A' for Active; 'I' for Inactive)
REMARK    1  A    between atoms: C_4  and  C_7
REMARK    2  A    between atoms: C_7  and  N_8
REMARK    3  A    between atoms: N_8  and  C_9
REMARK    4  A    between atoms: N_8  and  S_24
REMARK    5  A    between atoms: C_9  and  C_10
REMARK    6  A    between atoms: N_12  and  N_13
REMARK    7  A    between atoms: C_14  and  C_15
REMARK    8  A    between atoms: C_18  and  N_21
REMARK    9  A    between atoms: S_24  and  C_27
REMARK                            x       y       z     vdW  Elec       q    Type
REMARK                         _______ _______ _______ _____ _____    ______ ____
ROOT
ATOM      1  N   UNL     1       4.074  -1.040   1.336  0.00  0.00    -0.163 NA
ENDROOT
BRANCH   1   2
ATOM      2  S   UNL     1       5.045  -0.026   2.214  0.00  0.00    +0.062 S 
ATOM      3  O   UNL     1       5.747  -0.841   3.143  0.00  0.00    -0.153 OA
ATOM      4  O   UNL     1       5.711   0.810   1.279  0.00  0.00    -0.153 OA
BRANCH   2   5
ATOM      5  C   UNL     1       3.987   1.019   3.160  0.00  0.00    +0.106 A 
ATOM      6  C   UNL     1       3.630   2.262   2.674  0.00  0.00    +0.030 A 
ATOM      7  C   UNL     1       2.800   3.082   3.415  0.00  0.00    +0.022 A 
ATOM      8  C   UNL     1       2.328   2.658   4.644  0.00  0.00    +0.041 A 
ATOM      9  C   UNL     1       2.686   1.413   5.131  0.00  0.00    +0.022 A 
ATOM     10  C   UNL     1       3.511   0.592   4.386  0.00  0.00    +0.030 A 
ATOM     11 CL   UNL     1       1.286   3.688   5.576  0.00  0.00    -0.084 Cl
ENDBRANCH   2   5
ENDBRANCH   1   2
BRANCH   1  12
ATOM     12  C   UNL     1       3.726  -0.704  -0.047  0.00  0.00    +0.145 C 
BRANCH  12  16
ATOM     13  C   UNL     1       6.362  -2.748  -2.716  0.00  0.00    +0.000 A 
ATOM     14  C   UNL     1       5.128  -3.292  -2.412  0.00  0.00    +0.000 A 
ATOM     15  C   UNL     1       4.275  -2.630  -1.548  0.00  0.00    +0.005 A 
ATOM     16  C   UNL     1       4.656  -1.426  -0.988  0.00  0.00    -0.032 A 
ATOM     17  C   UNL     1       5.891  -0.882  -1.292  0.00  0.00    +0.005 A 
ATOM     18  C   UNL     1       6.743  -1.543  -2.156  0.00  0.00    +0.000 A 
ENDBRANCH  12  16
ENDBRANCH   1  12
BRANCH   1  19
ATOM     19  C   UNL     1       3.562  -2.272   1.941  0.00  0.00    +0.207 C 
BRANCH  19  20
ATOM     20  C   UNL     1       4.471  -3.421   1.587  0.00  0.00    +0.248 C 
ATOM     21  O   UNL     1       5.450  -3.229   0.896  0.00  0.00    -0.273 OA
ATOM     22  N   UNL     1       4.196  -4.661   2.037  0.00  0.00    -0.206 N 
ATOM     23  H   UNL     1       3.414  -4.814   2.590  0.00  0.00    +0.177 HD
BRANCH  22  24
ATOM     24  N   UNL     1       5.041  -5.729   1.707  0.00  0.00    -0.188 NA
ATOM     25  C   UNL     1       4.776  -6.923   2.141  0.00  0.00    +0.138 C 
BRANCH  25  26
ATOM     26  C   UNL     1       5.665  -8.047   1.794  0.00  0.00    -0.005 A 
ATOM     27  C   UNL     1       6.796  -7.829   1.004  0.00  0.00    +0.012 A 
ATOM     28  C   UNL     1       7.623  -8.886   0.683  0.00  0.00    +0.033 A 
ATOM     29  C   UNL     1       7.335 -10.159   1.142  0.00  0.00    +0.126 A 
ATOM     30  C   UNL     1       6.216 -10.382   1.925  0.00  0.00    +0.033 A 
ATOM     31  C   UNL     1       5.384  -9.334   2.259  0.00  0.00    +0.012 A 
BRANCH  29  32
ATOM     32  N   UNL     1       8.227 -11.287   0.793  0.00  0.00    +0.056 N 
ATOM     33  O   UNL     1       9.205 -11.095   0.109  0.00  0.00    -0.126 OA
ATOM     34  O   UNL     1       7.978 -12.401   1.192  0.00  0.00    -0.126 OA
ENDBRANCH  29  32
ENDBRANCH  25  26
ENDBRANCH  22  24
ENDBRANCH  19  20
ENDBRANCH   1  19
TORSDOF 9
