REMARK  Name = ZINC40330456
REMARK  5 active torsions:
REMARK  status: ('A' for Active; 'I' for Inactive)
REMARK    1  A    between atoms: C_1  and  C_2
REMARK    2  A    between atoms: C_6  and  C_9
REMARK    3  A    between atoms: C_7  and  N_8
REMARK    4  A    between atoms: C_13  and  C_20
REMARK    5  A    between atoms: C_17  and  C_19
REMARK                            x       y       z     vdW  Elec       q    Type
REMARK                         _______ _______ _______ _____ _____    ______ ____
ROOT
ATOM      1  C   UNL     1       0.334  -2.930   2.433  0.00  0.00    +0.249 C 
ATOM      2  O   UNL     1       0.388  -2.337   3.494  0.00  0.00    -0.270 OA
ATOM      3  N   UNL     1       0.078  -4.253   2.413  0.00  0.00    -0.294 N 
ATOM      4  C   UNL     1       0.127  -5.006   1.152  0.00  0.00    +0.121 C 
ATOM      5  C   UNL     1       1.069  -6.201   1.327  0.00  0.00    +0.092 C 
ATOM      6  C   UNL     1       0.621  -7.026   2.535  0.00  0.00    +0.016 C 
ATOM      7  C   UNL     1       0.692  -6.166   3.799  0.00  0.00    +0.023 C 
ATOM      8  C   UNL     1      -0.248  -4.971   3.653  0.00  0.00    +0.073 C 
ATOM      9  C   UNL     1      -0.074  -4.035   4.850  0.00  0.00    +0.028 C 
ENDROOT
BRANCH   1  15
ATOM     10  C   UNL     1       3.050   0.221  -0.347  0.00  0.00    +0.045 C 
ATOM     11  C   UNL     1       1.854  -0.681  -0.177  0.00  0.00    -0.029 A 
ATOM     12  C   UNL     1       0.950  -0.829  -1.208  0.00  0.00    +0.005 A 
ATOM     13  C   UNL     1      -0.153  -1.656  -1.062  0.00  0.00    +0.001 A 
ATOM     14  C   UNL     1      -0.358  -2.340   0.116  0.00  0.00    +0.015 A 
ATOM     15  C   UNL     1       0.548  -2.201   1.170  0.00  0.00    +0.058 A 
ATOM     16  C   UNL     1       1.667  -1.367   1.016  0.00  0.00    +0.040 A 
BRANCH  16  17
ATOM     17  N   UNL     1       2.580  -1.225   2.054  0.00  0.00    -0.357 N 
ATOM     18  H   UNL     1       3.306  -0.587   1.977  0.00  0.00    +0.142 HD
ATOM     19  H   UNL     1       2.490  -1.764   2.855  0.00  0.00    +0.142 HD
ENDBRANCH  16  17
ENDBRANCH   1  15
BRANCH   5  20
ATOM     20  C   UNL     1       1.029  -7.058   0.088  0.00  0.00    +0.215 C 
ATOM     21  O   UNL     1       0.679  -8.217   0.164  0.00  0.00    -0.276 OA
ATOM     22  N   UNL     1       1.383  -6.537  -1.103  0.00  0.00    -0.329 N 
ATOM     23  H   UNL     1       1.662  -5.610  -1.164  0.00  0.00    +0.145 HD
ATOM     24  H   UNL     1       1.357  -7.089  -1.901  0.00  0.00    +0.145 HD
ENDBRANCH   5  20
TORSDOF 3
