REMARK  Name = ZINC47146329
REMARK  3 active torsions:
REMARK  status: ('A' for Active; 'I' for Inactive)
REMARK    1  A    between atoms: C_3  and  C_30
REMARK    2  A    between atoms: C_5  and  N_7
REMARK    3  A    between atoms: C_12  and  C_25
REMARK                            x       y       z     vdW  Elec       q    Type
REMARK                         _______ _______ _______ _____ _____    ______ ____
ROOT
ATOM      1  N   UNL     1       1.237  -2.082  -0.022  0.00  0.00    -0.209 N 
ATOM      2  C   UNL     1       0.112  -2.844  -0.021  0.00  0.00    +0.232 C 
ATOM      3  O   UNL     1      -1.024  -2.467  -0.215  0.00  0.00    -0.274 OA
ATOM      4  C   UNL     1       0.558  -4.243   0.271  0.00  0.00    +0.113 C 
ATOM      5  C   UNL     1      -0.202  -5.396  -0.339  0.00  0.00    +0.108 C 
ATOM      6  C   UNL     1       0.509  -6.669   0.012  0.00  0.00    +0.038 A 
ATOM      7  C   UNL     1       1.799  -6.862   0.419  0.00  0.00    +0.113 A 
ATOM      8  N   UNL     1       2.120  -8.127   0.682  0.00  0.00    -0.196 NA
ATOM      9  C   UNL     1       1.258  -9.107   0.537  0.00  0.00    +0.311 A 
ATOM     10  O   UNL     1       1.443 -10.431   0.762  0.00  0.00    -0.258 OA
ATOM     11  S   UNL     1      -0.134  -8.322   0.004  0.00  0.00    -0.028 S 
ATOM     12  S   UNL     1       2.931  -5.486   0.555  0.00  0.00    -0.091 S 
ATOM     13  C   UNL     1       1.986  -4.222  -0.353  0.00  0.00    +0.152 C 
ATOM     14  C   UNL     1       2.385  -2.808  -0.039  0.00  0.00    +0.240 C 
ATOM     15  O   UNL     1       3.507  -2.397   0.162  0.00  0.00    -0.274 OA
ENDROOT
BRANCH   1  20
ATOM     16  C   UNL     1      -0.017   1.377   0.010  0.00  0.00    +0.002 A 
ATOM     17  C   UNL     1       1.171   2.086   0.002  0.00  0.00    +0.012 A 
ATOM     18  C   UNL     1       2.380   1.415  -0.013  0.00  0.00    +0.057 A 
ATOM     19  C   UNL     1       2.405   0.034  -0.021  0.00  0.00    +0.036 A 
ATOM     20  C   UNL     1       1.214  -0.680  -0.014  0.00  0.00    +0.044 A 
ATOM     21  C   UNL     1       0.002  -0.004   0.002  0.00  0.00    +0.024 A 
BRANCH  18  22
ATOM     22  C   UNL     1       3.671   2.192  -0.022  0.00  0.00    +0.417 C 
ATOM     23  F   UNL     1       3.391   3.562  -0.012  0.00  0.00    -0.166 F 
ATOM     24  F   UNL     1       4.422   1.861   1.111  0.00  0.00    -0.166 F 
ATOM     25  F   UNL     1       4.399   1.873  -1.173  0.00  0.00    -0.166 F 
ENDBRANCH  18  22
ENDBRANCH   1  20
BRANCH   5  26
ATOM     26  C   UNL     1      -1.604  -5.428   0.212  0.00  0.00    +0.114 A 
ATOM     27  C   UNL     1      -2.735  -5.327  -0.509  0.00  0.00    +0.045 A 
ATOM     28  C   UNL     1      -3.811  -5.405   0.405  0.00  0.00    +0.041 A 
ATOM     29  C   UNL     1      -3.273  -5.549   1.629  0.00  0.00    +0.195 A 
ATOM     30  O   UNL     1      -1.936  -5.568   1.506  0.00  0.00    -0.467 OA
ENDBRANCH   5  26
TORSDOF 3
