REMARK  Name = ZINC35093783
REMARK  17 active torsions:
REMARK  status: ('A' for Active; 'I' for Inactive)
REMARK    1  A    between atoms: C_1  and  C_2
REMARK    2  A    between atoms: C_2  and  C_3
REMARK    3  A    between atoms: C_3  and  C_4
REMARK    4  A    between atoms: C_4  and  C_5
REMARK    5  A    between atoms: C_5  and  C_6
REMARK    6  A    between atoms: N_8  and  C_9
REMARK    7  A    between atoms: N_8  and  C_14
REMARK    8  A    between atoms: C_9  and  C_10
REMARK    9  A    between atoms: C_10  and  N_11
REMARK   10  A    between atoms: N_11  and  C_12
REMARK   11  A    between atoms: N_11  and  C_13
REMARK   12  A    between atoms: C_14  and  C_16
REMARK   13  A    between atoms: C_14  and  C_18
REMARK   14  A    between atoms: C_16  and  C_17
REMARK   15  A    between atoms: N_28  and  C_29
REMARK   16  A    between atoms: C_32  and  C_35
REMARK   17  A    between atoms: C_35  and  C_36
REMARK                            x       y       z     vdW  Elec       q    Type
REMARK                         _______ _______ _______ _____ _____    ______ ____
ROOT
ATOM      1  C   UNL     1       3.688  -6.384  -3.640  0.00  0.00    +0.138 A 
ATOM      2  N   UNL     1       4.149  -6.644  -4.825  0.00  0.00    -0.231 NA
ATOM      3  C   UNL     1       5.374  -7.199  -5.005  0.00  0.00    +0.078 A 
ATOM      4  C   UNL     1       5.871  -7.479  -6.280  0.00  0.00    +0.028 A 
ATOM      5  C   UNL     1       7.120  -8.042  -6.416  0.00  0.00    +0.002 A 
ATOM      6  C   UNL     1       7.893  -8.337  -5.301  0.00  0.00    +0.001 A 
ATOM      7  C   UNL     1       7.425  -8.071  -4.033  0.00  0.00    +0.015 A 
ATOM      8  C   UNL     1       6.163  -7.500  -3.873  0.00  0.00    +0.065 A 
ATOM      9  C   UNL     1       5.612  -7.193  -2.545  0.00  0.00    +0.266 A 
ATOM     10  O   UNL     1       6.241  -7.427  -1.530  0.00  0.00    -0.267 OA
ATOM     11  N   UNL     1       4.380  -6.635  -2.496  0.00  0.00    -0.263 N 
ENDROOT
BRANCH  11  12
ATOM     12  C   UNL     1       3.811  -6.318  -1.256  0.00  0.00    +0.051 A 
ATOM     13  C   UNL     1       2.822  -7.130  -0.716  0.00  0.00    +0.026 A 
ATOM     14  C   UNL     1       2.263  -6.815   0.507  0.00  0.00    +0.005 A 
ATOM     15  C   UNL     1       2.687  -5.692   1.194  0.00  0.00    -0.047 A 
ATOM     16  C   UNL     1       3.671  -4.881   0.659  0.00  0.00    +0.005 A 
ATOM     17  C   UNL     1       4.238  -5.194  -0.561  0.00  0.00    +0.026 A 
BRANCH  15  18
ATOM     18  C   UNL     1       2.074  -5.351   2.528  0.00  0.00    +0.032 C 
ATOM     19  C   UNL     1       2.876  -6.024   3.644  0.00  0.00    +0.009 C 
ENDBRANCH  15  18
ENDBRANCH  11  12
BRANCH   1  20
ATOM     20  C   UNL     1       2.317  -5.767  -3.526  0.00  0.00    +0.142 C 
BRANCH  20  23
ATOM     21  C   UNL     1       1.827  -3.832  -2.129  0.00  0.00    +0.216 C 
ATOM     22  O   UNL     1       1.159  -4.552  -1.416  0.00  0.00    -0.276 OA
ATOM     23  N   UNL     1       2.448  -4.342  -3.210  0.00  0.00    -0.293 N 
BRANCH  21  24
ATOM     24  C   UNL     1       1.961  -2.366  -1.804  0.00  0.00    +0.096 C 
BRANCH  24  25
ATOM     25  C   UNL     1       1.164  -2.049  -0.537  0.00  0.00    +0.009 C 
BRANCH  25  26
ATOM     26  C   UNL     1       1.301  -0.561  -0.208  0.00  0.00    +0.000 C 
BRANCH  26  28
ATOM     27  C   UNL     1       0.640   1.243   1.389  0.00  0.00    +0.004 C 
ATOM     28  C   UNL     1       0.504  -0.245   1.060  0.00  0.00    -0.003 C 
ENDBRANCH  26  28
ENDBRANCH  25  26
ENDBRANCH  24  25
ENDBRANCH  21  24
BRANCH  23  29
ATOM     29  C   UNL     1       3.254  -3.473  -4.071  0.00  0.00    +0.090 C 
BRANCH  29  30
ATOM     30  C   UNL     1       4.662  -3.342  -3.488  0.00  0.00    -0.060 C 
BRANCH  30  31
ATOM     31  N   UNL     1       5.451  -2.419  -4.315  0.00  0.00    +0.377 N 
ATOM     32  C   UNL     1       4.871  -1.072  -4.234  0.00  0.00    -0.097 C 
ATOM     33  C   UNL     1       6.836  -2.386  -3.827  0.00  0.00    -0.097 C 
ATOM     34  H   UNL     1       5.440  -2.733  -5.274  0.00  0.00    -0.083 HD
ENDBRANCH  30  31
ENDBRANCH  29  30
ENDBRANCH  23  29
ENDBRANCH  20  23
BRANCH  20  35
ATOM     35  C   UNL     1       1.573  -5.929  -4.852  0.00  0.00    +0.027 C 
ATOM     36  C   UNL     1       0.140  -5.413  -4.700  0.00  0.00    +0.006 C 
ENDBRANCH  20  35
ENDBRANCH   1  20
TORSDOF 12
