REMARK  Name = ZINC13552970
REMARK  12 active torsions:
REMARK  status: ('A' for Active; 'I' for Inactive)
REMARK    1  A    between atoms: C_1  and  C_2
REMARK    2  A    between atoms: C_2  and  N_3
REMARK    3  A    between atoms: C_4  and  C_23
REMARK    4  A    between atoms: C_7  and  S_8
REMARK    5  A    between atoms: S_8  and  C_9
REMARK    6  A    between atoms: C_9  and  C_10
REMARK    7  A    between atoms: N_12  and  N_13
REMARK    8  A    between atoms: C_14  and  C_15
REMARK    9  A    between atoms: C_14  and  C_16
REMARK   10  A    between atoms: C_21  and  O_22
REMARK   11  A    between atoms: C_26  and  O_29
REMARK   12  A    between atoms: O_29  and  C_30
REMARK                            x       y       z     vdW  Elec       q    Type
REMARK                         _______ _______ _______ _____ _____    ______ ____
ROOT
ATOM      1  S   UNL     1      -1.798  -0.359  -2.749  0.00  0.00    -0.077 S 
ENDROOT
BRANCH   1   6
ATOM      2  N   UNL     1      -1.378  -0.495   0.014  0.00  0.00    -0.302 N 
ATOM      3  C   UNL     1      -2.111  -0.889   1.110  0.00  0.00    +0.165 A 
ATOM      4  N   UNL     1      -3.279  -1.293   0.668  0.00  0.00    -0.128 NA
ATOM      5  N   UNL     1      -3.327  -1.180  -0.612  0.00  0.00    -0.122 NA
ATOM      6  C   UNL     1      -2.194  -0.693  -1.064  0.00  0.00    +0.192 A 
BRANCH   3   7
ATOM      7  C   UNL     1      -1.666  -0.863   2.519  0.00  0.00    +0.020 A 
ATOM      8  C   UNL     1      -2.320  -1.644   3.474  0.00  0.00    +0.015 A 
ATOM      9  C   UNL     1      -1.902  -1.618   4.787  0.00  0.00    +0.046 A 
ATOM     10  C   UNL     1      -0.832  -0.815   5.161  0.00  0.00    +0.120 A 
ATOM     11  C   UNL     1      -0.179  -0.037   4.215  0.00  0.00    +0.046 A 
ATOM     12  C   UNL     1      -0.587  -0.062   2.898  0.00  0.00    +0.015 A 
BRANCH  10  13
ATOM     13  O   UNL     1      -0.423  -0.791   6.457  0.00  0.00    -0.495 OA
ATOM     14  C   UNL     1       0.683   0.056   6.773  0.00  0.00    +0.277 C 
ENDBRANCH  10  13
ENDBRANCH   3   7
BRANCH   2  16
ATOM     15  C   UNL     1      -0.054   1.561   0.040  0.00  0.00    +0.027 C 
ATOM     16  C   UNL     1      -0.011   0.032   0.006  0.00  0.00    +0.122 C 
ENDBRANCH   2  16
ENDBRANCH   1   6
BRANCH   1  17
ATOM     17  C   UNL     1      -3.296  -0.838  -3.654  0.00  0.00    +0.174 C 
BRANCH  17  18
ATOM     18  C   UNL     1      -3.089  -0.599  -5.128  0.00  0.00    +0.242 C 
ATOM     19  O   UNL     1      -2.035  -0.151  -5.528  0.00  0.00    -0.273 OA
ATOM     20  N   UNL     1      -4.075  -0.885  -6.001  0.00  0.00    -0.206 N 
ATOM     21  H   UNL     1      -4.918  -1.243  -5.681  0.00  0.00    +0.177 HD
BRANCH  20  22
ATOM     22  N   UNL     1      -3.883  -0.663  -7.371  0.00  0.00    -0.184 NA
ATOM     23  C   UNL     1      -4.833  -0.938  -8.212  0.00  0.00    +0.067 C 
ATOM     24  C   UNL     1      -6.142  -1.495  -7.715  0.00  0.00    +0.068 C 
BRANCH  23  25
ATOM     25  C   UNL     1      -4.631  -0.705  -9.653  0.00  0.00    +0.039 A 
ATOM     26  C   UNL     1      -5.653  -0.994 -10.561  0.00  0.00    +0.013 A 
ATOM     27  C   UNL     1      -5.457  -0.773 -11.908  0.00  0.00    +0.001 A 
ATOM     28  C   UNL     1      -4.253  -0.266 -12.365  0.00  0.00    +0.004 A 
ATOM     29  C   UNL     1      -3.234   0.023 -11.477  0.00  0.00    +0.046 A 
ATOM     30  C   UNL     1      -3.415  -0.187 -10.120  0.00  0.00    +0.126 A 
BRANCH  30  31
ATOM     31  O   UNL     1      -2.417   0.102  -9.246  0.00  0.00    -0.506 OA
ATOM     32  H   UNL     1      -1.812  -0.634  -9.082  0.00  0.00    +0.292 HD
ENDBRANCH  30  31
ENDBRANCH  23  25
ENDBRANCH  20  22
ENDBRANCH  17  18
ENDBRANCH   1  17
TORSDOF 9
