REMARK  Name = ZINC26909604
REMARK  9 active torsions:
REMARK  status: ('A' for Active; 'I' for Inactive)
REMARK    1  A    between atoms: C_1  and  C_2
REMARK    2  A    between atoms: C_5  and  S_28
REMARK    3  A    between atoms: C_7  and  N_8
REMARK    4  A    between atoms: C_9  and  C_11
REMARK    5  A    between atoms: C_11  and  N_12
REMARK    6  A    between atoms: C_17  and  C_24
REMARK    7  A    between atoms: C_20  and  C_22
REMARK    8  A    between atoms: C_20  and  C_23
REMARK    9  A    between atoms: S_28  and  C_31
REMARK                            x       y       z     vdW  Elec       q    Type
REMARK                         _______ _______ _______ _____ _____    ______ ____
ROOT
ATOM      1  C   UNL     1       4.683   3.903   5.023  0.00  0.00    +0.214 C 
ENDROOT
BRANCH   1   2
ATOM      2  N   UNL     1       4.824   5.113   4.209  0.00  0.00    -0.215 N 
ATOM      3  C   UNL     1       5.544   5.181   3.069  0.00  0.00    +0.247 C 
ATOM      4  O   UNL     1       6.172   4.287   2.544  0.00  0.00    -0.273 OA
ATOM      5  C   UNL     1       5.399   6.605   2.585  0.00  0.00    +0.113 C 
ATOM      6  C   UNL     1       4.725   6.641   1.218  0.00  0.00    +0.038 C 
ATOM      7  C   UNL     1       4.562   8.095   0.767  0.00  0.00    -0.011 C 
ATOM      8  C   UNL     1       5.937   8.762   0.694  0.00  0.00    +0.009 C 
ATOM      9  C   UNL     1       6.592   8.737   2.076  0.00  0.00    -0.032 C 
ATOM     10  C   UNL     1       6.763   7.286   2.532  0.00  0.00    +0.041 C 
ATOM     11  C   UNL     1       5.707   9.485   3.074  0.00  0.00    +0.011 C 
ATOM     12  C   UNL     1       7.963   9.413   2.003  0.00  0.00    +0.011 C 
ATOM     13  C   UNL     1       3.904   8.130  -0.614  0.00  0.00    +0.007 C 
ATOM     14  N   UNL     1       4.546   7.241   3.597  0.00  0.00    -0.285 N 
ATOM     15  C   UNL     1       4.261   6.290   4.506  0.00  0.00    +0.310 C 
ATOM     16  O   UNL     1       3.568   6.479   5.487  0.00  0.00    -0.252 OA
ATOM     17  H   UNL     1       4.274   8.303   3.498  0.00  0.00    +0.151 HD
ENDBRANCH   1   2
BRANCH   1  19
ATOM     18  N   UNL     1       3.153   1.965   5.166  0.00  0.00    -0.284 N 
ATOM     19  C   UNL     1       3.481   3.123   4.559  0.00  0.00    +0.235 C 
ATOM     20  O   UNL     1       2.808   3.537   3.638  0.00  0.00    -0.274 OA
ATOM     21  H   UNL     1       3.721   1.625   6.044  0.00  0.00    +0.155 HD
BRANCH  18  28
ATOM     22  C   UNL     1       3.355  -0.868   5.337  0.00  0.00    +0.045 C 
ATOM     23  C   UNL     1       2.148  -0.190   4.742  0.00  0.00    -0.029 A 
ATOM     24  C   UNL     1       1.097  -0.946   4.261  0.00  0.00    +0.007 A 
ATOM     25  C   UNL     1      -0.013  -0.324   3.721  0.00  0.00    +0.027 A 
ATOM     26  C   UNL     1      -0.072   1.056   3.651  0.00  0.00    +0.090 A 
ATOM     27  C   UNL     1       0.975   1.818   4.131  0.00  0.00    +0.050 A 
ATOM     28  C   UNL     1       2.090   1.196   4.679  0.00  0.00    +0.038 A 
BRANCH  26  29
ATOM     29  S   UNL     1      -1.487   1.843   2.957  0.00  0.00    -0.006 S 
ATOM     30  O   UNL     1      -1.528   3.123   3.572  0.00  0.00    -0.170 OA
ATOM     31  O   UNL     1      -2.546   0.915   3.143  0.00  0.00    -0.170 OA
ATOM     32  C   UNL     1      -1.107   2.011   1.191  0.00  0.00    +0.200 C 
ENDBRANCH  26  29
ENDBRANCH  18  28
ENDBRANCH   1  19
TORSDOF 4
