REMARK  Name = ZINC58882525
REMARK  12 active torsions:
REMARK  status: ('A' for Active; 'I' for Inactive)
REMARK    1  A    between atoms: C_1  and  C_2
REMARK    2  A    between atoms: C_3  and  C_36
REMARK    3  A    between atoms: C_7  and  C_8
REMARK    4  A    between atoms: C_11  and  O_14
REMARK    5  A    between atoms: O_14  and  C_15
REMARK    6  A    between atoms: C_15  and  C_16
REMARK    7  A    between atoms: N_18  and  C_19
REMARK    8  A    between atoms: C_19  and  C_21
REMARK    9  A    between atoms: C_19  and  C_22
REMARK   10  A    between atoms: N_28  and  C_29
REMARK   11  A    between atoms: C_36  and  O_38
REMARK   12  A    between atoms: O_38  and  C_39
REMARK                            x       y       z     vdW  Elec       q    Type
REMARK                         _______ _______ _______ _____ _____    ______ ____
ROOT
ATOM      1  C   UNL     1       0.008  -2.709   2.998  0.00  0.00    -0.023 A 
ATOM      2  C   UNL     1      -0.009  -1.403   3.505  0.00  0.00    +0.011 A 
ATOM      3  C   UNL     1      -0.001  -1.196   4.865  0.00  0.00    +0.046 A 
ATOM      4  C   UNL     1       0.025  -2.280   5.736  0.00  0.00    +0.121 A 
ATOM      5  C   UNL     1       0.043  -3.578   5.239  0.00  0.00    +0.046 A 
ATOM      6  C   UNL     1       0.028  -3.798   3.880  0.00  0.00    +0.011 A 
ENDROOT
BRANCH   1  13
ATOM      7  C   UNL     1       3.672   0.070   0.146  0.00  0.00    +0.062 C 
ATOM      8  C   UNL     1       2.472  -0.839   0.073  0.00  0.00    +0.031 C 
ATOM      9  C   UNL     1       1.819  -1.178  -1.095  0.00  0.00    +0.125 C 
ATOM     10  C   UNL     1       0.713  -2.076  -0.723  0.00  0.00    +0.216 C 
ATOM     11  O   UNL     1      -0.103  -2.599  -1.463  0.00  0.00    -0.285 OA
ATOM     12  C   UNL     1       0.811  -2.203   0.740  0.00  0.00    +0.087 C 
ATOM     13  C   UNL     1      -0.001  -2.937   1.548  0.00  0.00    +0.035 C 
ATOM     14  N   UNL     1       1.901  -1.431   1.134  0.00  0.00    -0.269 N 
BRANCH  14  15
ATOM     15  C   UNL     1       2.339  -1.288   2.457  0.00  0.00    +0.039 A 
ATOM     16  C   UNL     1       2.805  -2.392   3.158  0.00  0.00    +0.026 A 
ATOM     17  C   UNL     1       3.237  -2.249   4.462  0.00  0.00    +0.040 A 
ATOM     18  C   UNL     1       3.205  -1.005   5.070  0.00  0.00    +0.124 A 
ATOM     19  C   UNL     1       2.740   0.097   4.373  0.00  0.00    +0.040 A 
ATOM     20  C   UNL     1       2.312  -0.041   3.067  0.00  0.00    +0.026 A 
ATOM     21  F   UNL     1       3.628  -0.867   6.346  0.00  0.00    -0.205 F 
ENDBRANCH  14  15
BRANCH   9  22
ATOM     22  C   UNL     1       2.161  -0.728  -2.449  0.00  0.00    +0.344 C 
ATOM     23  O   UNL     1       3.104   0.020  -2.621  0.00  0.00    -0.245 OA
BRANCH  22  24
ATOM     24  O   UNL     1       1.428  -1.143  -3.502  0.00  0.00    -0.464 OA
ATOM     25  C   UNL     1       1.818  -0.665  -4.792  0.00  0.00    +0.280 C 
ENDBRANCH  22  24
ENDBRANCH   9  22
ENDBRANCH   1  13
BRANCH   4  26
ATOM     26  O   UNL     1       0.034  -2.069   7.077  0.00  0.00    -0.483 OA
BRANCH  26  27
ATOM     27  C   UNL     1       0.061  -3.226   7.915  0.00  0.00    +0.324 C 
BRANCH  27  28
ATOM     28  C   UNL     1       0.068  -2.800   9.360  0.00  0.00    +0.251 C 
ATOM     29  O   UNL     1       0.051  -1.621   9.645  0.00  0.00    -0.272 OA
ATOM     30  N   UNL     1       0.092  -3.728  10.337  0.00  0.00    -0.306 N 
ATOM     31  H   UNL     1       0.106  -4.671  10.110  0.00  0.00    +0.149 HD
BRANCH  30  32
ATOM     32  C   UNL     1       0.098  -3.313  11.742  0.00  0.00    +0.100 C 
ATOM     33  C   UNL     1      -1.339  -3.072  12.209  0.00  0.00    +0.033 C 
BRANCH  32  34
ATOM     34  C   UNL     1       0.725  -4.396  12.583  0.00  0.00    -0.027 A 
ATOM     35  C   UNL     1       0.456  -5.724  12.311  0.00  0.00    +0.005 A 
ATOM     36  C   UNL     1       1.031  -6.717  13.082  0.00  0.00    +0.000 A 
ATOM     37  C   UNL     1       1.875  -6.382  14.124  0.00  0.00    +0.000 A 
ATOM     38  C   UNL     1       2.144  -5.053  14.395  0.00  0.00    +0.000 A 
ATOM     39  C   UNL     1       1.573  -4.060  13.622  0.00  0.00    +0.005 A 
ENDBRANCH  32  34
ENDBRANCH  30  32
ENDBRANCH  27  28
ENDBRANCH  26  27
ENDBRANCH   4  26
TORSDOF 9
