REMARK  Name = ZINC10540177
REMARK  8 active torsions:
REMARK  status: ('A' for Active; 'I' for Inactive)
REMARK    1  A    between atoms: C_1  and  C_2
REMARK    2  A    between atoms: C_3  and  C_15
REMARK    3  A    between atoms: N_5  and  C_7
REMARK    4  A    between atoms: C_16  and  C_17
REMARK    5  A    between atoms: N_19  and  C_20
REMARK    6  A    between atoms: C_21  and  C_32
REMARK    7  A    between atoms: N_23  and  C_26
REMARK    8  A    between atoms: C_24  and  C_25
REMARK                            x       y       z     vdW  Elec       q    Type
REMARK                         _______ _______ _______ _____ _____    ______ ____
ROOT
ATOM      1  C   UNL     1      -4.579   1.967   1.357  0.00  0.00    +0.241 C 
ATOM      2  O   UNL     1      -4.661   2.210   2.548  0.00  0.00    -0.270 OA
ATOM      3  N   UNL     1      -3.369   1.852   0.775  0.00  0.00    -0.279 N 
ATOM      4  H   UNL     1      -3.302   1.723  -0.184  0.00  0.00    +0.155 HD
ENDROOT
BRANCH   3   5
ATOM      5  C   UNL     1      -2.202   1.919   1.559  0.00  0.00    +0.078 A 
ATOM      6  C   UNL     1      -1.743   0.931   2.444  0.00  0.00    +0.082 A 
ATOM      7  N   UNL     1      -0.633   1.354   2.994  0.00  0.00    -0.169 NA
ATOM      8  N   UNL     1      -0.339   2.622   2.477  0.00  0.00    -0.235 N 
ATOM      9  C   UNL     1      -1.319   2.950   1.591  0.00  0.00    +0.063 A 
ATOM     10  C   UNL     1      -1.410   4.226   0.795  0.00  0.00    +0.068 C 
ATOM     11  C   UNL     1      -2.416  -0.389   2.718  0.00  0.00    +0.069 C 
BRANCH   8  12
ATOM     12  C   UNL     1       0.767   3.414   2.814  0.00  0.00    +0.066 A 
ATOM     13  C   UNL     1       1.372   4.209   1.850  0.00  0.00    +0.028 A 
ATOM     14  C   UNL     1       2.459   4.992   2.186  0.00  0.00    +0.002 A 
ATOM     15  C   UNL     1       2.952   4.976   3.478  0.00  0.00    +0.000 A 
ATOM     16  C   UNL     1       2.355   4.181   4.439  0.00  0.00    +0.002 A 
ATOM     17  C   UNL     1       1.264   3.400   4.110  0.00  0.00    +0.028 A 
ENDBRANCH   8  12
ENDBRANCH   3   5
BRANCH   1  19
ATOM     18  C   UNL     1      -6.969   1.920   1.168  0.00  0.00    +0.018 C 
ATOM     19  C   UNL     1      -5.755   1.805   0.584  0.00  0.00    +0.068 C 
BRANCH  18  22
ATOM     20  C   UNL     1      -9.418   0.038   1.892  0.00  0.00    +0.068 C 
ATOM     21  C   UNL     1      -9.288   0.918   0.675  0.00  0.00    +0.069 A 
ATOM     22  C   UNL     1      -8.188   1.752   0.367  0.00  0.00    +0.035 A 
ATOM     23  C   UNL     1      -8.474   2.376  -0.837  0.00  0.00    +0.140 A 
ATOM     24  N   UNL     1      -9.688   1.945  -1.232  0.00  0.00    -0.221 N 
ATOM     25  N   UNL     1     -10.172   1.045  -0.276  0.00  0.00    -0.170 NA
ATOM     26 CL   UNL     1      -7.458   3.504  -1.679  0.00  0.00    -0.061 Cl
BRANCH  24  27
ATOM     27  C   UNL     1     -10.354   2.333  -2.403  0.00  0.00    +0.067 A 
ATOM     28  C   UNL     1     -10.228   3.632  -2.876  0.00  0.00    +0.030 A 
ATOM     29  C   UNL     1     -10.881   4.011  -4.033  0.00  0.00    +0.040 A 
ATOM     30  C   UNL     1     -11.668   3.098  -4.715  0.00  0.00    +0.124 A 
ATOM     31  C   UNL     1     -11.799   1.803  -4.242  0.00  0.00    +0.040 A 
ATOM     32  C   UNL     1     -11.144   1.420  -3.088  0.00  0.00    +0.030 A 
ATOM     33  F   UNL     1     -12.309   3.472  -5.844  0.00  0.00    -0.205 F 
ENDBRANCH  24  27
ENDBRANCH  18  22
ENDBRANCH   1  19
TORSDOF 5
