REMARK  Name = ZINC64502720
REMARK  11 active torsions:
REMARK  status: ('A' for Active; 'I' for Inactive)
REMARK    1  A    between atoms: C_1  and  O_2
REMARK    2  A    between atoms: O_2  and  C_3
REMARK    3  A    between atoms: C_3  and  C_4
REMARK    4  A    between atoms: C_8  and  C_11
REMARK    5  A    between atoms: N_13  and  C_14
REMARK    6  A    between atoms: C_17  and  C_20
REMARK    7  A    between atoms: N_22  and  C_23
REMARK    8  A    between atoms: C_23  and  C_24
REMARK    9  A    between atoms: C_24  and  C_25
REMARK   10  A    between atoms: C_28  and  O_34
REMARK   11  A    between atoms: O_34  and  C_35
REMARK                            x       y       z     vdW  Elec       q    Type
REMARK                         _______ _______ _______ _____ _____    ______ ____
ROOT
ATOM      1  C   UNL     1      -1.716  -4.731   4.156  0.00  0.00    +0.034 A 
ATOM      2  C   UNL     1      -1.178  -3.809   5.049  0.00  0.00    +0.024 A 
ATOM      3  C   UNL     1      -1.538  -3.845   6.377  0.00  0.00    +0.015 A 
ATOM      4  C   UNL     1      -2.445  -4.808   6.828  0.00  0.00    +0.037 A 
ATOM      5  C   UNL     1      -2.984  -5.732   5.928  0.00  0.00    +0.015 A 
ATOM      6  C   UNL     1      -2.623  -5.687   4.600  0.00  0.00    +0.024 A 
ENDROOT
BRANCH   1   9
ATOM      7  C   UNL     1      -0.091  -4.353   2.465  0.00  0.00    +0.254 C 
ATOM      8  O   UNL     1       0.698  -4.001   3.316  0.00  0.00    -0.272 OA
ATOM      9  N   UNL     1      -1.349  -4.691   2.811  0.00  0.00    -0.283 N 
ATOM     10  H   UNL     1      -1.999  -4.908   2.124  0.00  0.00    +0.155 HD
BRANCH   7  14
ATOM     11  C   UNL     1       1.835  -2.848  -0.636  0.00  0.00    +0.213 C 
ATOM     12  N   UNL     1       0.376  -2.631  -0.509  0.00  0.00    -0.174 NA
ATOM     13  N   UNL     1      -0.293  -3.327   0.230  0.00  0.00    -0.167 NA
ATOM     14  C   UNL     1       0.335  -4.410   1.021  0.00  0.00    +0.272 C 
ATOM     15  S   UNL     1       2.115  -3.950   0.822  0.00  0.00    -0.093 S 
BRANCH  11  16
ATOM     16  C   UNL     1       2.609  -1.535  -0.499  0.00  0.00    +0.199 C 
BRANCH  16  18
ATOM     17  C   UNL     1       2.917   0.347   0.954  0.00  0.00    +0.194 C 
ATOM     18  O   UNL     1       2.247  -0.895   0.727  0.00  0.00    -0.380 OA
ENDBRANCH  16  18
ENDBRANCH  11  16
ENDBRANCH   7  14
ENDBRANCH   1   9
BRANCH   4  19
ATOM     19  C   UNL     1      -2.833  -4.850   8.252  0.00  0.00    +0.244 C 
ATOM     20  O   UNL     1      -2.363  -4.046   9.034  0.00  0.00    -0.270 OA
ATOM     21  N   UNL     1      -3.708  -5.779   8.685  0.00  0.00    -0.311 N 
ATOM     22  H   UNL     1      -4.082  -6.420   8.061  0.00  0.00    +0.149 HD
BRANCH  21  23
ATOM     23  C   UNL     1      -4.093  -5.821  10.098  0.00  0.00    +0.109 C 
BRANCH  23  24
ATOM     24  C   UNL     1      -5.089  -6.960  10.321  0.00  0.00    +0.052 C 
BRANCH  24  25
ATOM     25  C   UNL     1      -5.485  -7.003  11.775  0.00  0.00    -0.040 C 
ATOM     26  C   UNL     1      -6.573  -6.430  12.338  0.00  0.00    +0.002 A 
ATOM     27  C   UNL     1      -7.671  -5.627  11.790  0.00  0.00    +0.055 A 
ATOM     28  C   UNL     1      -8.646  -5.178  12.616  0.00  0.00    +0.121 A 
ATOM     29  C   UNL     1      -8.648  -5.454  13.995  0.00  0.00    +0.047 A 
ATOM     30  C   UNL     1      -7.681  -6.184  14.591  0.00  0.00    +0.029 A 
ATOM     31  C   UNL     1      -6.576  -6.721  13.790  0.00  0.00    +0.043 A 
ATOM     32  N   UNL     1      -5.532  -7.443  14.112  0.00  0.00    -0.380 N 
ATOM     33  C   UNL     1      -4.749  -7.700  12.897  0.00  0.00    +0.144 C 
ATOM     34  H   UNL     1      -5.314  -7.759  15.003  0.00  0.00    +0.160 HD
BRANCH  28  35
ATOM     35  O   UNL     1      -9.658  -4.435  12.095  0.00  0.00    -0.495 OA
ATOM     36  C   UNL     1     -10.665  -3.982  13.002  0.00  0.00    +0.277 C 
ENDBRANCH  28  35
ENDBRANCH  24  25
ENDBRANCH  23  24
ENDBRANCH  21  23
ENDBRANCH   4  19
TORSDOF 9
