REMARK  Name = ZINC22324241
REMARK  10 active torsions:
REMARK  status: ('A' for Active; 'I' for Inactive)
REMARK    1  A    between atoms: C_1  and  C_2
REMARK    2  A    between atoms: C_5  and  S_8
REMARK    3  A    between atoms: S_8  and  N_11
REMARK    4  A    between atoms: N_11  and  C_12
REMARK    5  A    between atoms: N_11  and  C_30
REMARK    6  A    between atoms: C_12  and  C_13
REMARK    7  A    between atoms: N_15  and  C_16
REMARK    8  A    between atoms: C_19  and  C_28
REMARK    9  A    between atoms: C_19  and  C_29
REMARK   10  A    between atoms: C_24  and  C_27
REMARK                            x       y       z     vdW  Elec       q    Type
REMARK                         _______ _______ _______ _____ _____    ______ ____
ROOT
ATOM      1  N   UNL     1       6.975  -0.577  -2.359  0.00  0.00    -0.194 N 
ENDROOT
BRANCH   1   2
ATOM      2  C   UNL     1       7.714   0.513  -1.888  0.00  0.00    +0.052 A 
ATOM      3  C   UNL     1       9.102   0.466  -1.891  0.00  0.00    +0.027 A 
ATOM      4  C   UNL     1       9.830   1.545  -1.429  0.00  0.00    +0.040 A 
ATOM      5  C   UNL     1       9.176   2.669  -0.953  0.00  0.00    +0.124 A 
ATOM      6  C   UNL     1       7.793   2.716  -0.944  0.00  0.00    +0.040 A 
ATOM      7  C   UNL     1       7.061   1.641  -1.410  0.00  0.00    +0.027 A 
ATOM      8  F   UNL     1       9.890   3.722  -0.497  0.00  0.00    -0.205 F 
ENDBRANCH   1   2
BRANCH   1   9
ATOM      9  S   UNL     1       5.918  -1.358  -1.352  0.00  0.00    +0.075 S 
ATOM     10  O   UNL     1       5.660  -0.475  -0.270  0.00  0.00    -0.150 OA
ATOM     11  O   UNL     1       4.882  -1.878  -2.175  0.00  0.00    -0.150 OA
BRANCH   9  16
ATOM     12  C   UNL     1       8.833  -6.110   0.957  0.00  0.00    +0.044 C 
ATOM     13  C   UNL     1       8.105  -4.923   0.380  0.00  0.00    -0.050 A 
ATOM     14  C   UNL     1       8.197  -3.689   0.997  0.00  0.00    +0.005 A 
ATOM     15  C   UNL     1       7.529  -2.600   0.468  0.00  0.00    +0.029 A 
ATOM     16  C   UNL     1       6.769  -2.746  -0.678  0.00  0.00    +0.109 A 
ATOM     17  C   UNL     1       6.673  -3.981  -1.292  0.00  0.00    +0.029 A 
ATOM     18  C   UNL     1       7.346  -5.068  -0.766  0.00  0.00    +0.005 A 
ENDBRANCH   9  16
ENDBRANCH   1   9
BRANCH   1  19
ATOM     19  C   UNL     1       7.136  -1.027  -3.744  0.00  0.00    +0.227 C 
BRANCH  19  20
ATOM     20  C   UNL     1       6.240  -0.214  -4.644  0.00  0.00    +0.233 C 
ATOM     21  O   UNL     1       5.537   0.655  -4.174  0.00  0.00    -0.274 OA
ATOM     22  N   UNL     1       6.221  -0.454  -5.970  0.00  0.00    -0.307 N 
ATOM     23  H   UNL     1       6.860  -1.242  -6.396  0.00  0.00    +0.149 HD
BRANCH  22  24
ATOM     24  C   UNL     1       5.351   0.335  -6.844  0.00  0.00    +0.111 C 
ATOM     25  C   UNL     1       5.027  -0.472  -8.104  0.00  0.00    +0.074 C 
ATOM     26  C   UNL     1       4.372   0.469  -9.124  0.00  0.00    +0.107 C 
ATOM     27  O   UNL     1       5.331   1.456  -9.507  0.00  0.00    -0.486 OA
ATOM     28  C   UNL     1       6.003   2.104  -8.521  0.00  0.00    +0.126 A 
ATOM     29  C   UNL     1       6.051   1.615  -7.227  0.00  0.00    +0.015 A 
ATOM     30  C   UNL     1       6.752   2.307  -6.254  0.00  0.00    +0.012 A 
ATOM     31  C   UNL     1       7.402   3.485  -6.568  0.00  0.00    -0.050 A 
ATOM     32  C   UNL     1       7.353   3.978  -7.859  0.00  0.00    +0.007 A 
ATOM     33  C   UNL     1       6.657   3.292  -8.833  0.00  0.00    +0.046 A 
ATOM     34  C   UNL     1       8.163   4.233  -5.504  0.00  0.00    +0.044 C 
ATOM     35  C   UNL     1       3.157   1.150  -8.491  0.00  0.00    +0.055 C 
ATOM     36  C   UNL     1       3.933  -0.328 -10.354  0.00  0.00    +0.055 C 
ENDBRANCH  22  24
ENDBRANCH  19  20
ENDBRANCH   1  19
TORSDOF 6
