REMARK  Name = ZINC00902579
REMARK  9 active torsions:
REMARK  status: ('A' for Active; 'I' for Inactive)
REMARK    1  A    between atoms: N_9  and  C_10
REMARK    2  A    between atoms: C_10  and  C_11
REMARK    3  A    between atoms: N_13  and  C_14
REMARK    4  A    between atoms: N_13  and  C_21
REMARK    5  A    between atoms: C_21  and  C_23
REMARK    6  A    between atoms: C_21  and  C_31
REMARK    7  A    between atoms: C_26  and  O_30
REMARK    8  A    between atoms: C_27  and  O_29
REMARK    9  A    between atoms: N_33  and  C_34
REMARK                            x       y       z     vdW  Elec       q    Type
REMARK                         _______ _______ _______ _____ _____    ______ ____
ROOT
ATOM      1  C   UNL     1       5.394  -0.905   1.900  0.00  0.00    +0.242 C 
ATOM      2  O   UNL     1       5.395  -1.847   2.664  0.00  0.00    -0.273 OA
ATOM      3  N   UNL     1       6.445  -0.061   1.869  0.00  0.00    -0.254 N 
ENDROOT
BRANCH   3   4
ATOM      4  C   UNL     1       6.385   1.102   1.094  0.00  0.00    +0.038 A 
ATOM      5  C   UNL     1       6.445   1.019  -0.291  0.00  0.00    +0.024 A 
ATOM      6  C   UNL     1       6.386   2.169  -1.054  0.00  0.00    +0.017 A 
ATOM      7  C   UNL     1       6.266   3.403  -0.440  0.00  0.00    +0.018 A 
ATOM      8  C   UNL     1       6.205   3.488   0.940  0.00  0.00    +0.017 A 
ATOM      9  C   UNL     1       6.259   2.341   1.708  0.00  0.00    +0.024 A 
ATOM     10 BR   UNL     1       6.185   4.975  -1.487  0.00  0.00    -0.050 Br
ENDBRANCH   3   4
BRANCH   1  11
ATOM     11  C   UNL     1       4.218  -0.679   0.985  0.00  0.00    +0.242 C 
BRANCH  11  20
ATOM     12  C   UNL     1      -0.030  -2.381   3.591  0.00  0.00    +0.002 A 
ATOM     13  C   UNL     1       0.625  -1.168   3.767  0.00  0.00    +0.002 A 
ATOM     14  C   UNL     1       1.723  -0.856   3.016  0.00  0.00    +0.029 A 
ATOM     15  C   UNL     1       2.191  -1.758   2.067  0.00  0.00    +0.090 A 
ATOM     16  C   UNL     1       1.534  -2.987   1.885  0.00  0.00    +0.113 A 
ATOM     17  C   UNL     1       0.409  -3.283   2.667  0.00  0.00    +0.032 A 
ATOM     18  N   UNL     1       2.186  -3.661   0.917  0.00  0.00    -0.129 NA
ATOM     19  N   UNL     1       3.181  -2.969   0.485  0.00  0.00    -0.064 NA
ATOM     20  N   UNL     1       3.238  -1.750   1.176  0.00  0.00    -0.235 N 
ENDBRANCH  11  20
ENDBRANCH   1  11
BRANCH   3  21
ATOM     21  C   UNL     1       7.649  -0.362   2.647  0.00  0.00    +0.197 C 
BRANCH  21  22
ATOM     22  C   UNL     1       8.606   0.799   2.561  0.00  0.00    -0.014 A 
ATOM     23  C   UNL     1       9.026   1.256   1.326  0.00  0.00    +0.010 A 
ATOM     24  C   UNL     1       9.904   2.321   1.241  0.00  0.00    +0.049 A 
ATOM     25  C   UNL     1      10.363   2.933   2.396  0.00  0.00    +0.158 A 
ATOM     26  C   UNL     1       9.940   2.474   3.640  0.00  0.00    +0.159 A 
ATOM     27  C   UNL     1       9.056   1.409   3.717  0.00  0.00    +0.055 A 
BRANCH  26  28
ATOM     28  O   UNL     1      10.388   3.071   4.776  0.00  0.00    -0.503 OA
ATOM     29  H   UNL     1       9.835   3.804   5.079  0.00  0.00    +0.292 HD
ENDBRANCH  26  28
BRANCH  25  30
ATOM     30  O   UNL     1      11.227   3.981   2.315  0.00  0.00    -0.503 OA
ATOM     31  H   UNL     1      10.794   4.844   2.266  0.00  0.00    +0.292 HD
ENDBRANCH  25  30
ENDBRANCH  21  22
BRANCH  21  32
ATOM     32  C   UNL     1       8.309  -1.599   2.094  0.00  0.00    +0.239 C 
ATOM     33  O   UNL     1       7.821  -2.172   1.143  0.00  0.00    -0.273 OA
ATOM     34  N   UNL     1       9.441  -2.067   2.655  0.00  0.00    -0.311 N 
ATOM     35  H   UNL     1       9.831  -1.608   3.416  0.00  0.00    +0.149 HD
BRANCH  34  36
ATOM     36  C   UNL     1      10.083  -3.269   2.117  0.00  0.00    +0.073 C 
ATOM     37  C   UNL     1       9.489  -4.528   2.784  0.00  0.00    +0.022 C 
ATOM     38  C   UNL     1      10.700  -5.481   2.940  0.00  0.00    +0.002 C 
ATOM     39  C   UNL     1      11.851  -4.514   3.312  0.00  0.00    +0.002 C 
ATOM     40  C   UNL     1      11.584  -3.261   2.453  0.00  0.00    +0.022 C 
ENDBRANCH  34  36
ENDBRANCH  21  32
ENDBRANCH   3  21
TORSDOF 9
