REMARK  Name = ZINC17159147
REMARK  7 active torsions:
REMARK  status: ('A' for Active; 'I' for Inactive)
REMARK    1  A    between atoms: C_1  and  C_2
REMARK    2  A    between atoms: C_5  and  S_8
REMARK    3  A    between atoms: S_8  and  N_11
REMARK    4  A    between atoms: N_11  and  C_12
REMARK    5  A    between atoms: C_16  and  C_18
REMARK    6  A    between atoms: N_20  and  N_21
REMARK    7  A    between atoms: C_22  and  C_24
REMARK                            x       y       z     vdW  Elec       q    Type
REMARK                         _______ _______ _______ _____ _____    ______ ____
ROOT
ATOM      1  C   UNL     1      -3.135   7.391   5.468  0.00  0.00    +0.049 A 
ATOM      2  C   UNL     1      -3.690   6.486   6.365  0.00  0.00    +0.024 A 
ATOM      3  C   UNL     1      -3.537   5.127   6.167  0.00  0.00    +0.003 A 
ATOM      4  C   UNL     1      -2.836   4.659   5.073  0.00  0.00    +0.013 A 
ATOM      5  C   UNL     1      -2.271   5.560   4.169  0.00  0.00    +0.040 A 
ATOM      6  C   UNL     1      -2.425   6.931   4.369  0.00  0.00    +0.037 A 
ENDROOT
BRANCH   5   7
ATOM      7  C   UNL     1      -1.516   5.061   3.000  0.00  0.00    +0.260 C 
ATOM      8  O   UNL     1      -1.028   5.847   2.211  0.00  0.00    -0.269 OA
ATOM      9  N   UNL     1      -1.368   3.735   2.809  0.00  0.00    -0.230 N 
ATOM     10  H   UNL     1      -1.809   3.024   3.522  0.00  0.00    +0.173 HD
BRANCH   9  11
ATOM     11  N   UNL     1      -0.652   3.263   1.701  0.00  0.00    -0.234 N 
ATOM     12  C   UNL     1      -0.504   1.937   1.510  0.00  0.00    +0.235 C 
ATOM     13  O   UNL     1      -0.991   1.153   2.297  0.00  0.00    -0.274 OA
ATOM     14  H   UNL     1      -0.211   3.974   0.987  0.00  0.00    +0.173 HD
BRANCH  12  15
ATOM     15  C   UNL     1       0.266   1.428   0.318  0.00  0.00    +0.049 C 
ATOM     16  C   UNL     1       1.700   1.956   0.375  0.00  0.00    +0.019 C 
ATOM     17  C   UNL     1       2.482   1.440  -0.835  0.00  0.00    -0.009 C 
ATOM     18  C   UNL     1       2.500  -0.090  -0.816  0.00  0.00    +0.007 C 
ATOM     19  C   UNL     1       1.065  -0.617  -0.873  0.00  0.00    -0.009 C 
ATOM     20  C   UNL     1       0.283  -0.101   0.337  0.00  0.00    +0.019 C 
ATOM     21  C   UNL     1       0.393  -0.131  -2.159  0.00  0.00    +0.007 C 
ATOM     22  C   UNL     1       0.375   1.399  -2.178  0.00  0.00    -0.009 C 
ATOM     23  C   UNL     1       1.810   1.926  -2.121  0.00  0.00    +0.007 C 
ATOM     24  C   UNL     1      -0.406   1.915  -0.968  0.00  0.00    +0.019 C 
ENDBRANCH  12  15
ENDBRANCH   9  11
ENDBRANCH   5   7
BRANCH   1  25
ATOM     25  N   UNL     1      -3.293   8.764   5.672  0.00  0.00    -0.216 N 
ATOM     26  H   UNL     1      -2.429   9.438   5.575  0.00  0.00    +0.174 HD
BRANCH  25  27
ATOM     27  S   UNL     1      -4.782   9.378   6.061  0.00  0.00    +0.072 S 
ATOM     28  O   UNL     1      -5.252   8.629   7.173  0.00  0.00    -0.150 OA
ATOM     29  O   UNL     1      -4.641  10.791   6.099  0.00  0.00    -0.150 OA
BRANCH  27  34
ATOM     30  C   UNL     1      -8.481   8.135   1.459  0.00  0.00    +0.044 C 
ATOM     31  C   UNL     1      -7.557   8.446   2.609  0.00  0.00    -0.050 A 
ATOM     32  C   UNL     1      -7.506   7.601   3.702  0.00  0.00    +0.005 A 
ATOM     33  C   UNL     1      -6.658   7.886   4.756  0.00  0.00    +0.029 A 
ATOM     34  C   UNL     1      -5.862   9.015   4.717  0.00  0.00    +0.109 A 
ATOM     35  C   UNL     1      -5.917   9.862   3.626  0.00  0.00    +0.029 A 
ATOM     36  C   UNL     1      -6.761   9.575   2.570  0.00  0.00    +0.005 A 
ENDBRANCH  27  34
ENDBRANCH  25  27
ENDBRANCH   1  25
TORSDOF 6
