REMARK  Name = ZINC20991618
REMARK  7 active torsions:
REMARK  status: ('A' for Active; 'I' for Inactive)
REMARK    1  A    between atoms: C_1  and  C_2
REMARK    2  A    between atoms: C_5  and  S_8
REMARK    3  A    between atoms: S_8  and  N_11
REMARK    4  A    between atoms: N_11  and  C_12
REMARK    5  A    between atoms: C_17  and  N_18
REMARK    6  A    between atoms: N_23  and  C_28
REMARK    7  A    between atoms: N_26  and  C_27
REMARK                            x       y       z     vdW  Elec       q    Type
REMARK                         _______ _______ _______ _____ _____    ______ ____
ROOT
ATOM      1  C   UNL     1      -2.541   1.272  -0.149  0.00  0.00    +0.071 A 
ATOM      2  C   UNL     1      -1.335   1.885  -0.448  0.00  0.00    +0.054 A 
ATOM      3  C   UNL     1      -0.191   1.118  -0.609  0.00  0.00    +0.071 A 
ATOM      4  C   UNL     1      -0.252  -0.269  -0.461  0.00  0.00    +0.071 A 
ATOM      5  C   UNL     1      -1.459  -0.881  -0.157  0.00  0.00    +0.053 A 
ATOM      6  C   UNL     1      -2.602  -0.115  -0.001  0.00  0.00    +0.054 A 
ATOM      7  N   UNL     1       1.038  -0.754  -0.674  0.00  0.00    -0.295 N 
ATOM      8  C   UNL     1       1.846   0.290  -0.939  0.00  0.00    +0.330 A 
ATOM      9  O   UNL     1       3.038   0.212  -1.172  0.00  0.00    -0.246 OA
ATOM     10  N   UNL     1       1.136   1.433  -0.908  0.00  0.00    -0.295 N 
ATOM     11  C   UNL     1       1.665   2.778  -1.147  0.00  0.00    +0.154 C 
ATOM     12  C   UNL     1       1.445  -2.160  -0.618  0.00  0.00    +0.154 C 
ENDROOT
BRANCH   6  13
ATOM     13  N   UNL     1      -3.823  -0.732   0.307  0.00  0.00    -0.328 N 
ATOM     14  C   UNL     1      -3.678  -2.210   0.340  0.00  0.00    +0.105 C 
ATOM     15  C   UNL     1      -4.899  -2.668   1.177  0.00  0.00    +0.020 C 
ATOM     16  C   UNL     1      -5.013  -1.564   2.253  0.00  0.00    +0.020 C 
ATOM     17  C   UNL     1      -4.289  -0.343   1.656  0.00  0.00    +0.105 C 
ENDBRANCH   6  13
BRANCH   1  18
ATOM     18  N   UNL     1      -3.699   2.045   0.009  0.00  0.00    -0.214 N 
ATOM     19  H   UNL     1      -4.455   1.757   0.755  0.00  0.00    +0.174 HD
BRANCH  18  20
ATOM     20  S   UNL     1      -3.930   3.392  -0.926  0.00  0.00    +0.072 S 
ATOM     21  O   UNL     1      -5.234   3.874  -0.629  0.00  0.00    -0.150 OA
ATOM     22  O   UNL     1      -2.768   4.195  -0.776  0.00  0.00    -0.150 OA
BRANCH  20  27
ATOM     23  C   UNL     1      -4.035   1.571  -6.678  0.00  0.00    +0.044 C 
ATOM     24  C   UNL     1      -4.009   2.026  -5.242  0.00  0.00    -0.050 A 
ATOM     25  C   UNL     1      -5.182   2.080  -4.512  0.00  0.00    +0.005 A 
ATOM     26  C   UNL     1      -5.158   2.497  -3.195  0.00  0.00    +0.029 A 
ATOM     27  C   UNL     1      -3.961   2.860  -2.606  0.00  0.00    +0.109 A 
ATOM     28  C   UNL     1      -2.789   2.811  -3.337  0.00  0.00    +0.029 A 
ATOM     29  C   UNL     1      -2.812   2.390  -4.654  0.00  0.00    +0.005 A 
ENDBRANCH  20  27
ENDBRANCH  18  20
ENDBRANCH   1  18
TORSDOF 4
