REMARK  Name = ZINC44170866
REMARK  9 active torsions:
REMARK  status: ('A' for Active; 'I' for Inactive)
REMARK    1  A    between atoms: C_1  and  C_2
REMARK    2  A    between atoms: C_2  and  C_35
REMARK    3  A    between atoms: C_5  and  C_33
REMARK    4  A    between atoms: C_5  and  C_34
REMARK    5  A    between atoms: C_10  and  C_12
REMARK    6  A    between atoms: C_18  and  C_21
REMARK    7  A    between atoms: N_23  and  C_24
REMARK    8  A    between atoms: C_24  and  C_25
REMARK    9  A    between atoms: C_25  and  C_26
REMARK                            x       y       z     vdW  Elec       q    Type
REMARK                         _______ _______ _______ _____ _____    ______ ____
ROOT
ATOM      1  C   UNL     1       3.025  -1.706   4.820  0.00  0.00    -0.027 C 
ATOM      2  C   UNL     1       3.547  -0.587   5.729  0.00  0.00    +0.092 C 
ATOM      3  S   UNL     1       4.469  -1.349   7.101  0.00  0.00    +0.020 S 
ATOM      4  O   UNL     1       3.575  -2.090   7.919  0.00  0.00    -0.257 OA
ATOM      5  C   UNL     1       5.592  -2.493   6.239  0.00  0.00    +0.097 C 
ATOM      6  C   UNL     1       4.764  -3.328   5.254  0.00  0.00    +0.029 C 
ATOM      7  N   UNL     1       4.152  -2.450   4.253  0.00  0.00    +0.392 N 
ATOM      8  H   UNL     1       3.823  -3.010   3.481  0.00  0.00    -0.084 HD
ATOM      9  H   UNL     1       4.843  -1.797   3.917  0.00  0.00    -0.084 HD
ENDROOT
BRANCH   1  19
ATOM     10  C   UNL     1      -0.001   2.143   0.639  0.00  0.00    +0.016 C 
ATOM     11  C   UNL     1      -0.063   0.619   0.518  0.00  0.00    -0.010 C 
ATOM     12  C   UNL     1      -1.523   0.171   0.538  0.00  0.00    +0.012 C 
ATOM     13  C   UNL     1      -2.083   0.410   1.945  0.00  0.00    +0.012 C 
ATOM     14  C   UNL     1      -1.428  -0.588   2.899  0.00  0.00    -0.010 C 
ATOM     15  C   UNL     1       0.071  -0.553   2.756  0.00  0.00    -0.038 A 
ATOM     16  C   UNL     1       0.698  -0.002   1.660  0.00  0.00    -0.038 A 
ATOM     17  C   UNL     1       2.084  -0.008   1.586  0.00  0.00    +0.004 A 
ATOM     18  C   UNL     1       2.838  -0.557   2.603  0.00  0.00    +0.002 A 
ATOM     19  C   UNL     1       2.209  -1.106   3.704  0.00  0.00    -0.060 A 
ATOM     20  C   UNL     1       0.832  -1.103   3.779  0.00  0.00    +0.006 A 
ATOM     21  C   UNL     1      -1.806  -0.232   4.338  0.00  0.00    +0.016 C 
ATOM     22  C   UNL     1      -1.933  -1.997   2.580  0.00  0.00    +0.016 C 
ATOM     23  C   UNL     1       0.577   0.192  -0.805  0.00  0.00    +0.016 C 
ENDBRANCH   1  19
BRANCH   6  24
ATOM     24  C   UNL     1       3.683  -4.062   6.005  0.00  0.00    +0.200 C 
ATOM     25  O   UNL     1       3.857  -4.380   7.162  0.00  0.00    -0.278 OA
ATOM     26  N   UNL     1       2.523  -4.366   5.390  0.00  0.00    -0.316 N 
ATOM     27  H   UNL     1       2.384  -4.112   4.464  0.00  0.00    +0.149 HD
BRANCH  26  28
ATOM     28  C   UNL     1       1.472  -5.079   6.120  0.00  0.00    +0.109 C 
BRANCH  28  29
ATOM     29  C   UNL     1       0.270  -5.297   5.199  0.00  0.00    +0.056 C 
BRANCH  29  30
ATOM     30  C   UNL     1      -0.811  -6.032   5.949  0.00  0.00    -0.011 A 
ATOM     31  C   UNL     1      -0.903  -7.408   5.859  0.00  0.00    +0.006 A 
ATOM     32  C   UNL     1      -1.895  -8.081   6.547  0.00  0.00    +0.000 A 
ATOM     33  C   UNL     1      -2.795  -7.380   7.327  0.00  0.00    +0.003 A 
ATOM     34  C   UNL     1      -2.704  -6.004   7.420  0.00  0.00    +0.038 A 
ATOM     35  C   UNL     1      -1.708  -5.329   6.735  0.00  0.00    +0.127 A 
ATOM     36  F   UNL     1      -1.616  -3.984   6.829  0.00  0.00    -0.205 F 
ENDBRANCH  29  30
ENDBRANCH  28  29
ENDBRANCH  26  28
ENDBRANCH   6  24
TORSDOF 5
