REMARK  Name = ZINC09587023
REMARK  9 active torsions:
REMARK  status: ('A' for Active; 'I' for Inactive)
REMARK    1  A    between atoms: C_1  and  C_2
REMARK    2  A    between atoms: C_7  and  C_9
REMARK    3  A    between atoms: C_7  and  C_10
REMARK    4  A    between atoms: N_13  and  C_17
REMARK    5  A    between atoms: C_17  and  C_18
REMARK    6  A    between atoms: N_20  and  C_21
REMARK    7  A    between atoms: C_21  and  C_22
REMARK    8  A    between atoms: C_25  and  O_28
REMARK    9  A    between atoms: O_28  and  C_29
REMARK                            x       y       z     vdW  Elec       q    Type
REMARK                         _______ _______ _______ _____ _____    ______ ____
ROOT
ATOM      1  C   UNL     1      -5.421  -3.333  -2.299  0.00  0.00    +0.231 C 
ATOM      2  O   UNL     1      -5.099  -2.195  -2.568  0.00  0.00    -0.274 OA
ATOM      3  N   UNL     1      -6.600  -3.820  -2.734  0.00  0.00    -0.310 N 
ATOM      4  H   UNL     1      -6.858  -4.730  -2.518  0.00  0.00    +0.149 HD
ENDROOT
BRANCH   1   5
ATOM      5  C   UNL     1      -4.504  -4.202  -1.478  0.00  0.00    +0.213 C 
BRANCH   5  17
ATOM      6  C   UNL     1      -0.470   1.500  -0.267  0.00  0.00    +0.007 C 
ATOM      7  C   UNL     1      -0.411  -0.029  -0.238  0.00  0.00    -0.011 C 
ATOM      8  C   UNL     1      -1.831  -0.593  -0.135  0.00  0.00    +0.038 C 
ATOM      9  C   UNL     1      -1.772  -2.115  -0.085  0.00  0.00    +0.113 C 
ATOM     10  C   UNL     1      -0.942  -2.585   1.105  0.00  0.00    +0.041 C 
ATOM     11  C   UNL     1       0.474  -2.014   0.997  0.00  0.00    -0.032 C 
ATOM     12  C   UNL     1       0.406  -0.485   0.972  0.00  0.00    +0.009 C 
ATOM     13  C   UNL     1       1.131  -2.516  -0.290  0.00  0.00    +0.011 C 
ATOM     14  C   UNL     1       1.300  -2.468   2.203  0.00  0.00    +0.011 C 
ATOM     15  C   UNL     1      -3.166  -2.696  -0.019  0.00  0.00    +0.247 C 
ATOM     16  O   UNL     1      -3.992  -2.522   0.851  0.00  0.00    -0.273 OA
ATOM     17  N   UNL     1      -3.297  -3.447  -1.132  0.00  0.00    -0.215 N 
ATOM     18  C   UNL     1      -2.187  -3.418  -1.880  0.00  0.00    +0.310 C 
ATOM     19  O   UNL     1      -2.065  -4.016  -2.931  0.00  0.00    -0.252 OA
ATOM     20  N   UNL     1      -1.223  -2.650  -1.338  0.00  0.00    -0.285 N 
ATOM     21  H   UNL     1      -0.339  -2.483  -1.703  0.00  0.00    +0.151 HD
ENDBRANCH   5  17
ENDBRANCH   1   5
BRANCH   3  22
ATOM     22  C   UNL     1      -7.493  -2.975  -3.531  0.00  0.00    +0.139 C 
BRANCH  22  23
ATOM     23  C   UNL     1      -8.734  -3.752  -3.888  0.00  0.00    -0.030 A 
ATOM     24  C   UNL     1      -8.771  -4.499  -5.051  0.00  0.00    +0.009 A 
ATOM     25  C   UNL     1      -9.908  -5.211  -5.380  0.00  0.00    +0.046 A 
ATOM     26  C   UNL     1     -11.013  -5.177  -4.542  0.00  0.00    +0.128 A 
ATOM     27  C   UNL     1     -10.974  -4.426  -3.376  0.00  0.00    +0.046 A 
ATOM     28  C   UNL     1      -9.832  -3.720  -3.048  0.00  0.00    +0.009 A 
BRANCH  26  29
ATOM     29  O   UNL     1     -12.133  -5.876  -4.864  0.00  0.00    -0.456 OA
BRANCH  29  30
ATOM     30  C   UNL     1     -12.089  -6.684  -5.956  0.00  0.00    +0.129 A 
ATOM     31  C   UNL     1     -11.425  -7.900  -5.894  0.00  0.00    +0.049 A 
ATOM     32  C   UNL     1     -11.381  -8.720  -7.005  0.00  0.00    +0.042 A 
ATOM     33  C   UNL     1     -12.001  -8.328  -8.180  0.00  0.00    +0.124 A 
ATOM     34  C   UNL     1     -12.664  -7.114  -8.243  0.00  0.00    +0.042 A 
ATOM     35  C   UNL     1     -12.714  -6.295  -7.133  0.00  0.00    +0.049 A 
ATOM     36  F   UNL     1     -11.957  -9.131  -9.266  0.00  0.00    -0.205 F 
ENDBRANCH  29  30
ENDBRANCH  26  29
ENDBRANCH  22  23
ENDBRANCH   3  22
TORSDOF 6
