REMARK  Name = ZINC01378073
REMARK  5 active torsions:
REMARK  status: ('A' for Active; 'I' for Inactive)
REMARK    1  A    between atoms: C_9  and  C_12
REMARK    2  A    between atoms: N_14  and  C_15
REMARK    3  A    between atoms: N_14  and  C_32
REMARK    4  A    between atoms: C_15  and  C_16
REMARK    5  A    between atoms: C_32  and  C_33
REMARK                            x       y       z     vdW  Elec       q    Type
REMARK                         _______ _______ _______ _____ _____    ______ ____
ROOT
ATOM      1  C   UNL     1       6.221   1.691  -0.234  0.00  0.00    +0.255 C 
ATOM      2  O   UNL     1       6.525   2.865  -0.329  0.00  0.00    -0.269 OA
ATOM      3  N   UNL     1       7.167   0.770   0.037  0.00  0.00    -0.290 N 
ENDROOT
BRANCH   1  12
ATOM      4  C   UNL     1       0.066   1.374  -1.053  0.00  0.00    +0.039 A 
ATOM      5  C   UNL     1       1.203   2.102  -0.909  0.00  0.00    +0.013 A 
ATOM      6  C   UNL     1       2.457   1.464  -0.734  0.00  0.00    +0.008 A 
ATOM      7  C   UNL     1       2.447   0.049  -0.718  0.00  0.00    +0.024 A 
ATOM      8  C   UNL     1       1.286  -0.679  -0.863  0.00  0.00    +0.054 A 
ATOM      9  C   UNL     1       0.084  -0.017  -1.033  0.00  0.00    +0.124 A 
ATOM     10  F   UNL     1      -1.064  -0.715  -1.178  0.00  0.00    -0.205 F 
ATOM     11  S   UNL     1       4.155  -0.375  -0.485  0.00  0.00    -0.082 S 
ATOM     12  C   UNL     1       4.825   1.277  -0.416  0.00  0.00    +0.093 A 
ATOM     13  C   UNL     1       3.722   2.059  -0.573  0.00  0.00    +0.068 A 
ATOM     14 CL   UNL     1       3.876   3.789  -0.574  0.00  0.00    -0.082 Cl
ENDBRANCH   1  12
BRANCH   3  15
ATOM     15  C   UNL     1       8.537   1.193   0.336  0.00  0.00    +0.148 C 
BRANCH  15  16
ATOM     16  C   UNL     1       8.683   1.412   1.820  0.00  0.00    +0.035 A 
ATOM     17  C   UNL     1       9.168   0.418   2.606  0.00  0.00    +0.020 A 
ATOM     18  C   UNL     1       9.298   0.661   4.042  0.00  0.00    +0.003 A 
ATOM     19  C   UNL     1       9.791  -0.328   4.901  0.00  0.00    +0.059 A 
ATOM     20  C   UNL     1       9.904  -0.069   6.251  0.00  0.00    +0.163 A 
ATOM     21  C   UNL     1       9.528   1.176   6.763  0.00  0.00    +0.164 A 
ATOM     22  C   UNL     1       9.037   2.159   5.921  0.00  0.00    +0.075 A 
ATOM     23  C   UNL     1       8.917   1.915   4.559  0.00  0.00    +0.053 A 
ATOM     24  N   UNL     1       8.430   2.884   3.705  0.00  0.00    -0.322 N 
ATOM     25  H   UNL     1       8.167   3.747   4.062  0.00  0.00    +0.169 HD
ATOM     26  C   UNL     1       8.319   2.651   2.386  0.00  0.00    +0.254 A 
ATOM     27  O   UNL     1       7.889   3.532   1.661  0.00  0.00    -0.268 OA
ATOM     28  O   UNL     1       9.643   1.442   8.092  0.00  0.00    -0.485 OA
ATOM     29  C   UNL     1       9.786   0.316   8.964  0.00  0.00    +0.270 C 
ATOM     30  C   UNL     1      10.838  -0.627   8.366  0.00  0.00    +0.270 C 
ATOM     31  O   UNL     1      10.383  -1.043   7.074  0.00  0.00    -0.485 OA
ENDBRANCH  15  16
ENDBRANCH   3  15
BRANCH   3  32
ATOM     32  C   UNL     1       6.825  -0.655   0.033  0.00  0.00    +0.140 C 
BRANCH  32  33
ATOM     33  C   UNL     1       6.936  -1.202  -1.392  0.00  0.00    +0.136 C 
ATOM     34  C   UNL     1       6.544  -2.700  -1.425  0.00  0.00    +0.035 C 
ATOM     35  C   UNL     1       6.100  -2.857  -2.905  0.00  0.00    +0.031 C 
ATOM     36  C   UNL     1       5.466  -1.481  -3.204  0.00  0.00    +0.160 C 
ATOM     37  O   UNL     1       5.991  -0.546  -2.252  0.00  0.00    -0.375 OA
ENDBRANCH  32  33
ENDBRANCH   3  32
TORSDOF 5
