REMARK  Name = ZINC00678696
REMARK  7 active torsions:
REMARK  status: ('A' for Active; 'I' for Inactive)
REMARK    1  A    between atoms: C_1  and  C_2
REMARK    2  A    between atoms: C_4  and  N_10
REMARK    3  A    between atoms: C_5  and  O_9
REMARK    4  A    between atoms: C_7  and  C_8
REMARK    5  A    between atoms: N_10  and  C_11
REMARK    6  A    between atoms: C_11  and  N_13
REMARK    7  A    between atoms: C_14  and  C_16
REMARK                            x       y       z     vdW  Elec       q    Type
REMARK                         _______ _______ _______ _____ _____    ______ ____
ROOT
ATOM      1  C   UNL     1      -0.073   0.051   0.389  0.00  0.00    +0.141 C 
ATOM      2  S   UNL     1      -1.526  -0.591   1.026  0.00  0.00    -0.018 S 
ENDROOT
BRANCH   1   3
ATOM      3  N   UNL     1       1.015  -0.735   0.266  0.00  0.00    -0.264 N 
ATOM      4  C   UNL     1       0.958  -2.027   0.645  0.00  0.00    +0.251 C 
ATOM      5  O   UNL     1      -0.074  -2.483   1.098  0.00  0.00    -0.270 OA
ATOM      6  H   UNL     1       1.838  -0.371  -0.095  0.00  0.00    +0.157 HD
BRANCH   4   7
ATOM      7  C   UNL     1       2.150  -2.889   0.511  0.00  0.00    +0.056 A 
ATOM      8  C   UNL     1       3.335  -2.370  -0.014  0.00  0.00    +0.029 A 
ATOM      9  C   UNL     1       4.446  -3.180  -0.132  0.00  0.00    +0.014 A 
ATOM     10  C   UNL     1       4.385  -4.507   0.259  0.00  0.00    +0.016 A 
ATOM     11  C   UNL     1       3.213  -5.029   0.774  0.00  0.00    +0.022 A 
ATOM     12  C   UNL     1       2.095  -4.229   0.903  0.00  0.00    +0.053 A 
ATOM     13 CL   UNL     1       0.624  -4.887   1.551  0.00  0.00    -0.083 Cl
ATOM     14  I   UNL     1       6.228  -2.401  -0.911  0.00  0.00    -0.044 I 
ENDBRANCH   4   7
ENDBRANCH   1   3
BRANCH   1  15
ATOM     15  N   UNL     1      -0.016   1.344   0.009  0.00  0.00    -0.294 N 
ATOM     16  H   UNL     1       0.827   1.728  -0.279  0.00  0.00    +0.154 HD
BRANCH  15  20
ATOM     17  C   UNL     1      -4.802   1.851  -0.999  0.00  0.00    +0.044 C 
ATOM     18  C   UNL     1      -3.509   2.402  -0.456  0.00  0.00    -0.046 A 
ATOM     19  C   UNL     1      -2.366   1.624  -0.474  0.00  0.00    +0.030 A 
ATOM     20  C   UNL     1      -1.175   2.130   0.026  0.00  0.00    +0.075 A 
ATOM     21  C   UNL     1      -1.137   3.421   0.550  0.00  0.00    +0.138 A 
ATOM     22  C   UNL     1      -2.285   4.195   0.560  0.00  0.00    +0.051 A 
ATOM     23  C   UNL     1      -3.468   3.684   0.059  0.00  0.00    -0.044 A 
ATOM     24  C   UNL     1      -4.717   4.527   0.075  0.00  0.00    +0.044 C 
BRANCH  21  25
ATOM     25  O   UNL     1       0.027   3.920   1.047  0.00  0.00    -0.505 OA
ATOM     26  H   UNL     1       0.567   4.382   0.392  0.00  0.00    +0.292 HD
ENDBRANCH  21  25
ENDBRANCH  15  20
ENDBRANCH   1  15
TORSDOF 5
