REMARK  Name = ZINC20622526
REMARK  5 active torsions:
REMARK  status: ('A' for Active; 'I' for Inactive)
REMARK    1  A    between atoms: C_1  and  C_2
REMARK    2  A    between atoms: C_2  and  C_3
REMARK    3  A    between atoms: C_3  and  C_5
REMARK    4  A    between atoms: C_3  and  N_6
REMARK    5  A    between atoms: C_9  and  C_16
REMARK                            x       y       z     vdW  Elec       q    Type
REMARK                         _______ _______ _______ _____ _____    ______ ____
ROOT
ATOM      1  C   UNL     1       3.597   4.905  -0.013  0.00  0.00    +0.018 C 
ATOM      2  C   UNL     1       2.835   3.599  -0.007  0.00  0.00    +0.011 A 
ATOM      3  C   UNL     1       3.444   2.396  -0.018  0.00  0.00    -0.022 A 
ATOM      4  C   UNL     1       2.400   1.379  -0.014  0.00  0.00    +0.004 A 
ATOM      5  C   UNL     1       2.395  -0.018  -0.021  0.00  0.00    +0.030 A 
ATOM      6  C   UNL     1       1.207  -0.695  -0.013  0.00  0.00    +0.042 A 
ATOM      7  C   UNL     1       0.002  -0.004   0.002  0.00  0.00    +0.022 A 
ATOM      8  C   UNL     1      -0.017   1.373   0.010  0.00  0.00    +0.027 A 
ATOM      9  C   UNL     1       1.180   2.082   0.002  0.00  0.00    +0.047 A 
ATOM     10  N   UNL     1       1.482   3.428   0.006  0.00  0.00    -0.359 N 
ATOM     11  H   UNL     1       0.817   4.303   0.019  0.00  0.00    +0.166 HD
ATOM     12 CL   UNL     1       1.205  -2.431  -0.022  0.00  0.00    -0.084 Cl
ATOM     13  C   UNL     1       4.940   2.213  -0.031  0.00  0.00    +0.018 C 
ATOM     14  C   UNL     1       5.582   3.552   0.361  0.00  0.00    -0.076 C 
ATOM     15  N   UNL     1       4.981   4.634  -0.433  0.00  0.00    +0.388 N 
ATOM     16  H   UNL     1       4.991   4.336  -1.492  0.00  0.00    -0.084 HD
ATOM     17  H   UNL     1       5.589   5.541  -0.301  0.00  0.00    -0.084 HD
ENDROOT
BRANCH   1  21
ATOM     18  N   UNL     1       2.356   6.458  -3.206  0.00  0.00    -0.258 N 
ATOM     19  C   UNL     1       2.942   5.589  -2.358  0.00  0.00    +0.262 A 
ATOM     20  O   UNL     1       3.457   4.570  -2.784  0.00  0.00    -0.267 OA
ATOM     21  C   UNL     1       2.951   5.864  -0.980  0.00  0.00    +0.073 A 
ATOM     22  C   UNL     1       2.373   7.014  -0.530  0.00  0.00    +0.260 A 
ATOM     23  N   UNL     1       1.792   7.874  -1.427  0.00  0.00    -0.275 N 
ATOM     24  H   UNL     1       1.323   8.804  -1.074  0.00  0.00    +0.173 HD
ATOM     25  C   UNL     1       1.790   7.587  -2.742  0.00  0.00    +0.332 A 
ATOM     26  O   UNL     1       1.270   8.361  -3.523  0.00  0.00    -0.246 OA
ATOM     27  O   UNL     1       2.372   7.305   0.788  0.00  0.00    -0.267 OA
BRANCH  18  28
ATOM     28  C   UNL     1       2.339   6.173  -4.643  0.00  0.00    +0.092 C 
ATOM     29  C   UNL     1       3.068   7.290  -5.392  0.00  0.00    +0.031 C 
BRANCH  28  31
ATOM     30  C   UNL     1       0.197   4.898  -4.473  0.00  0.00    +0.006 C 
ATOM     31  C   UNL     1       0.891   6.093  -5.130  0.00  0.00    +0.022 C 
ENDBRANCH  28  31
ENDBRANCH  18  28
ENDBRANCH   1  21
TORSDOF 3
