REMARK  Name = ZINC02430341
REMARK  7 active torsions:
REMARK  status: ('A' for Active; 'I' for Inactive)
REMARK    1  A    between atoms: C_1  and  C_2
REMARK    2  A    between atoms: C_2  and  O_3
REMARK    3  A    between atoms: O_3  and  C_4
REMARK    4  A    between atoms: C_7  and  C_10
REMARK    5  A    between atoms: C_11  and  C_21
REMARK    6  A    between atoms: N_23  and  N_24
REMARK    7  A    between atoms: C_25  and  C_26
REMARK                            x       y       z     vdW  Elec       q    Type
REMARK                         _______ _______ _______ _____ _____    ______ ____
ROOT
ATOM      1  C   UNL     1      -1.998  -6.065  -0.012  0.00  0.00    +0.109 A 
ATOM      2  C   UNL     1      -1.314  -6.984  -0.802  0.00  0.00    +0.177 A 
ATOM      3  N   UNL     1      -1.768  -8.212  -0.501  0.00  0.00    -0.124 NA
ATOM      4  N   UNL     1      -2.674  -8.137   0.408  0.00  0.00    -0.058 NA
ATOM      5  N   UNL     1      -2.857  -6.793   0.761  0.00  0.00    -0.187 N 
ATOM      6  C   UNL     1      -3.748  -6.295   1.717  0.00  0.00    +0.241 A 
ATOM      7  C   UNL     1      -4.659  -7.095   2.541  0.00  0.00    +0.206 A 
ATOM      8  N   UNL     1      -5.331  -6.286   3.313  0.00  0.00    -0.032 NA
ATOM      9  O   UNL     1      -4.902  -4.965   3.035  0.00  0.00    -0.239 OA
ATOM     10  N   UNL     1      -3.905  -5.040   2.031  0.00  0.00    -0.027 NA
ATOM     11  N   UNL     1      -4.785  -8.479   2.505  0.00  0.00    -0.337 N 
ATOM     12  H   UNL     1      -4.240  -9.000   1.895  0.00  0.00    +0.144 HD
ATOM     13  H   UNL     1      -5.418  -8.923   3.091  0.00  0.00    +0.144 HD
ENDROOT
BRANCH   1  17
ATOM     14  C   UNL     1      -1.498  -1.847   0.006  0.00  0.00    +0.121 A 
ATOM     15  C   UNL     1      -0.384  -2.677  -0.003  0.00  0.00    +0.046 A 
ATOM     16  C   UNL     1      -0.541  -4.045  -0.009  0.00  0.00    +0.013 A 
ATOM     17  C   UNL     1      -1.824  -4.599  -0.005  0.00  0.00    +0.003 A 
ATOM     18  C   UNL     1      -2.942  -3.761   0.004  0.00  0.00    +0.013 A 
ATOM     19  C   UNL     1      -2.776  -2.394   0.016  0.00  0.00    +0.046 A 
BRANCH  14  20
ATOM     20  O   UNL     1      -1.339  -0.499   0.012  0.00  0.00    -0.492 OA
BRANCH  20  22
ATOM     21  C   UNL     1      -0.019   1.526   0.010  0.00  0.00    +0.048 C 
ATOM     22  C   UNL     1       0.002  -0.004   0.002  0.00  0.00    +0.225 C 
ENDBRANCH  20  22
ENDBRANCH  14  20
ENDBRANCH   1  17
BRANCH   2  23
ATOM     23  C   UNL     1      -0.276  -6.666  -1.795  0.00  0.00    +0.286 C 
ATOM     24  O   UNL     1       0.053  -5.509  -1.982  0.00  0.00    -0.267 OA
ATOM     25  N   UNL     1       0.310  -7.655  -2.498  0.00  0.00    -0.202 N 
ATOM     26  H   UNL     1       0.047  -8.577  -2.349  0.00  0.00    +0.178 HD
BRANCH  25  27
ATOM     27  N   UNL     1       1.298  -7.353  -3.443  0.00  0.00    -0.187 NA
ATOM     28  C   UNL     1       1.863  -8.306  -4.120  0.00  0.00    +0.138 C 
BRANCH  28  29
ATOM     29  C   UNL     1       2.903  -7.987  -5.115  0.00  0.00    -0.005 A 
ATOM     30  C   UNL     1       3.288  -6.661  -5.328  0.00  0.00    +0.011 A 
ATOM     31  C   UNL     1       4.261  -6.370  -6.260  0.00  0.00    +0.020 A 
ATOM     32  C   UNL     1       4.857  -7.388  -6.984  0.00  0.00    +0.041 A 
ATOM     33  C   UNL     1       4.481  -8.705  -6.779  0.00  0.00    +0.020 A 
ATOM     34  C   UNL     1       3.513  -9.010  -5.845  0.00  0.00    +0.011 A 
ATOM     35 CL   UNL     1       6.082  -7.013  -8.156  0.00  0.00    -0.084 Cl
ENDBRANCH  28  29
ENDBRANCH  25  27
ENDBRANCH   2  23
TORSDOF 6
