REMARK  Name = ZINC06223167
REMARK  8 active torsions:
REMARK  status: ('A' for Active; 'I' for Inactive)
REMARK    1  A    between atoms: C_4  and  C_7
REMARK    2  A    between atoms: C_7  and  N_8
REMARK    3  A    between atoms: N_8  and  C_9
REMARK    4  A    between atoms: C_9  and  N_11
REMARK    5  A    between atoms: N_11  and  N_12
REMARK    6  A    between atoms: C_13  and  C_14
REMARK    7  A    between atoms: C_17  and  O_21
REMARK    8  A    between atoms: C_19  and  O_20
REMARK                            x       y       z     vdW  Elec       q    Type
REMARK                         _______ _______ _______ _____ _____    ______ ____
ROOT
ATOM      1  N   UNL     1       5.716  -1.826   2.834  0.00  0.00    -0.218 N 
ATOM      2  H   UNL     1       6.550  -2.292   3.000  0.00  0.00    +0.176 HD
ENDROOT
BRANCH   1   3
ATOM      3  C   UNL     1       5.311  -1.601   1.569  0.00  0.00    +0.150 C 
ATOM      4  S   UNL     1       6.268  -2.137   0.255  0.00  0.00    -0.017 S 
BRANCH   3   5
ATOM      5  N   UNL     1       4.152  -0.952   1.338  0.00  0.00    -0.321 N 
ATOM      6  H   UNL     1       3.610  -0.648   2.082  0.00  0.00    +0.148 HD
BRANCH   5   7
ATOM      7  C   UNL     1       3.711  -0.707  -0.038  0.00  0.00    +0.138 C 
BRANCH   7  11
ATOM      8  C   UNL     1      -0.017   1.378   0.010  0.00  0.00    +0.000 A 
ATOM      9  C   UNL     1       1.171   2.086   0.002  0.00  0.00    +0.000 A 
ATOM     10  C   UNL     1       2.377   1.411  -0.013  0.00  0.00    +0.005 A 
ATOM     11  C   UNL     1       2.396   0.029  -0.020  0.00  0.00    -0.030 A 
ATOM     12  C   UNL     1       1.208  -0.679  -0.012  0.00  0.00    +0.005 A 
ATOM     13  C   UNL     1       0.002  -0.004   0.002  0.00  0.00    +0.000 A 
ENDBRANCH   7  11
ENDBRANCH   5   7
ENDBRANCH   3   5
ENDBRANCH   1   3
BRANCH   1  14
ATOM     14  N   UNL     1       4.933  -1.387   3.909  0.00  0.00    -0.188 NA
ATOM     15  C   UNL     1       5.323  -1.604   5.128  0.00  0.00    +0.141 C 
BRANCH  15  16
ATOM     16  C   UNL     1       4.500  -1.143   6.259  0.00  0.00    +0.036 A 
ATOM     17  C   UNL     1       4.920  -1.370   7.572  0.00  0.00    +0.016 A 
ATOM     18  C   UNL     1       4.147  -0.937   8.627  0.00  0.00    +0.046 A 
ATOM     19  C   UNL     1       2.948  -0.274   8.390  0.00  0.00    +0.120 A 
ATOM     20  C   UNL     1       2.522  -0.043   7.090  0.00  0.00    +0.091 A 
ATOM     21  C   UNL     1       3.293  -0.468   6.022  0.00  0.00    +0.129 A 
BRANCH  21  22
ATOM     22  O   UNL     1       2.880  -0.238   4.749  0.00  0.00    -0.506 OA
ATOM     23  H   UNL     1       2.330  -0.942   4.381  0.00  0.00    +0.292 HD
ENDBRANCH  21  22
BRANCH  19  24
ATOM     24  O   UNL     1       2.191   0.150   9.435  0.00  0.00    -0.507 OA
ATOM     25  H   UNL     1       2.400   1.045   9.735  0.00  0.00    +0.292 HD
ENDBRANCH  19  24
ENDBRANCH  15  16
ENDBRANCH   1  14
TORSDOF 8
