REMARK  Name = ZINC35523028
REMARK  7 active torsions:
REMARK  status: ('A' for Active; 'I' for Inactive)
REMARK    1  A    between atoms: C_4  and  C_7
REMARK    2  A    between atoms: C_7  and  C_8
REMARK    3  A    between atoms: C_8  and  C_10
REMARK    4  A    between atoms: C_8  and  N_16
REMARK    5  A    between atoms: C_17  and  C_19
REMARK    6  A    between atoms: C_19  and  N_20
REMARK    7  A    between atoms: C_28  and  C_30
REMARK                            x       y       z     vdW  Elec       q    Type
REMARK                         _______ _______ _______ _____ _____    ______ ____
ROOT
ATOM      1  N   UNL     1       4.451   0.315   2.057  0.00  0.00    -0.310 N 
ATOM      2  C   UNL     1       4.378   0.412   3.400  0.00  0.00    +0.197 C 
ATOM      3  O   UNL     1       4.080  -0.559   4.062  0.00  0.00    -0.278 OA
ATOM      4  H   UNL     1       4.689   1.092   1.527  0.00  0.00    +0.149 HD
ENDROOT
BRANCH   1   5
ATOM      5  C   UNL     1       4.171  -0.963   1.399  0.00  0.00    +0.107 C 
BRANCH   5   6
ATOM      6  C   UNL     1       5.422  -1.804   1.383  0.00  0.00    -0.027 A 
ATOM      7  C   UNL     1       6.648  -1.216   1.138  0.00  0.00    +0.005 A 
ATOM      8  C   UNL     1       7.795  -1.987   1.124  0.00  0.00    +0.000 A 
ATOM      9  C   UNL     1       7.715  -3.348   1.355  0.00  0.00    +0.000 A 
ATOM     10  C   UNL     1       6.489  -3.937   1.602  0.00  0.00    +0.000 A 
ATOM     11  C   UNL     1       5.343  -3.164   1.620  0.00  0.00    +0.005 A 
ENDBRANCH   5   6
BRANCH   5  12
ATOM     12  C   UNL     1       3.711  -0.707  -0.038  0.00  0.00    +0.062 C 
BRANCH  12  16
ATOM     13  C   UNL     1      -0.017   1.378   0.010  0.00  0.00    +0.000 A 
ATOM     14  C   UNL     1       1.171   2.086   0.002  0.00  0.00    +0.000 A 
ATOM     15  C   UNL     1       2.377   1.411  -0.013  0.00  0.00    +0.004 A 
ATOM     16  C   UNL     1       2.396   0.029  -0.020  0.00  0.00    -0.045 A 
ATOM     17  C   UNL     1       1.208  -0.679  -0.012  0.00  0.00    +0.004 A 
ATOM     18  C   UNL     1       0.002  -0.004   0.002  0.00  0.00    +0.000 A 
ENDBRANCH  12  16
ENDBRANCH   5  12
ENDBRANCH   1   5
BRANCH   2  19
ATOM     19  C   UNL     1       4.666   1.727   4.077  0.00  0.00    +0.020 C 
BRANCH  19  20
ATOM     20  N   UNL     1       4.519   1.572   5.530  0.00  0.00    +0.395 N 
ATOM     21  C   UNL     1       5.538   0.636   6.026  0.00  0.00    -0.055 C 
ATOM     22  C   UNL     1       5.208   0.221   7.465  0.00  0.00    +0.103 C 
ATOM     23  N   UNL     1       4.974   1.441   8.248  0.00  0.00    -0.353 N 
ATOM     24  C   UNL     1       4.951   1.582   9.597  0.00  0.00    +0.086 A 
ATOM     25  C   UNL     1       4.707   2.880   9.880  0.00  0.00    +0.019 A 
ATOM     26  C   UNL     1       4.574   3.564   8.653  0.00  0.00    +0.021 A 
ATOM     27  C   UNL     1       4.738   2.663   7.673  0.00  0.00    +0.009 A 
ATOM     28  C   UNL     1       4.683   2.883   6.181  0.00  0.00    +0.012 C 
ATOM     29  H   UNL     1       3.602   1.207   5.738  0.00  0.00    -0.080 HD
BRANCH  28  30
ATOM     30  C   UNL     1       3.512   3.769   5.841  0.00  0.00    -0.037 A 
ATOM     31  C   UNL     1       2.296   3.207   5.500  0.00  0.00    +0.004 A 
ATOM     32  C   UNL     1       1.223   4.020   5.188  0.00  0.00    +0.000 A 
ATOM     33  C   UNL     1       1.365   5.395   5.216  0.00  0.00    +0.001 A 
ATOM     34  C   UNL     1       2.580   5.958   5.557  0.00  0.00    +0.020 A 
ATOM     35  C   UNL     1       3.653   5.145   5.876  0.00  0.00    +0.043 A 
ATOM     36 CL   UNL     1       5.178   5.851   6.311  0.00  0.00    -0.083 Cl
ENDBRANCH  28  30
ENDBRANCH  19  20
ENDBRANCH   2  19
TORSDOF 7
