REMARK  Name = ZINC16133853
REMARK  11 active torsions:
REMARK  status: ('A' for Active; 'I' for Inactive)
REMARK    1  A    between atoms: C_1  and  C_2
REMARK    2  A    between atoms: C_4  and  C_28
REMARK    3  A    between atoms: C_5  and  C_9
REMARK    4  A    between atoms: C_6  and  C_8
REMARK    5  A    between atoms: C_9  and  C_11
REMARK    6  A    between atoms: C_9  and  C_23
REMARK    7  A    between atoms: C_11  and  C_12
REMARK    8  A    between atoms: C_12  and  C_18
REMARK    9  A    between atoms: N_13  and  N_14
REMARK   10  A    between atoms: C_23  and  C_24
REMARK   11  A    between atoms: C_23  and  C_26
REMARK                            x       y       z     vdW  Elec       q    Type
REMARK                         _______ _______ _______ _____ _____    ______ ____
ROOT
ATOM      1  C   UNL     1      -1.851   1.650   1.143  0.00  0.00    +0.056 C 
ENDROOT
BRANCH   1   6
ATOM      2  C   UNL     1      -5.962  -2.377   1.669  0.00  0.00    +0.044 C 
ATOM      3  C   UNL     1      -4.890  -1.327   1.532  0.00  0.00    -0.050 A 
ATOM      4  C   UNL     1      -3.684  -1.479   2.191  0.00  0.00    +0.007 A 
ATOM      5  C   UNL     1      -2.701  -0.516   2.066  0.00  0.00    -0.046 A 
ATOM      6  C   UNL     1      -2.923   0.600   1.280  0.00  0.00    -0.036 A 
ATOM      7  C   UNL     1      -4.130   0.755   0.625  0.00  0.00    -0.046 A 
ATOM      8  C   UNL     1      -5.112  -0.211   0.747  0.00  0.00    +0.007 A 
ATOM      9  C   UNL     1      -4.375   1.974  -0.226  0.00  0.00    +0.044 C 
ATOM     10  C   UNL     1      -1.387  -0.682   2.784  0.00  0.00    +0.044 C 
ENDBRANCH   1   6
BRANCH   1  11
ATOM     11  C   UNL     1      -2.293   2.927   1.862  0.00  0.00    +0.068 C 
BRANCH  11  12
ATOM     12  C   UNL     1      -1.136   3.890   1.932  0.00  0.00    +0.074 C 
ATOM     13  N   UNL     1      -1.195   5.024   1.299  0.00  0.00    -0.183 NA
BRANCH  13  14
ATOM     14  N   UNL     1      -0.195   5.986   1.490  0.00  0.00    -0.191 N 
ATOM     15  C   UNL     1      -0.279   7.178   0.868  0.00  0.00    +0.317 C 
ATOM     16  O   UNL     1       0.589   8.014   1.034  0.00  0.00    -0.251 OA
ATOM     17  N   UNL     1      -1.326   7.446   0.063  0.00  0.00    -0.312 N 
ATOM     18  H   UNL     1       0.559   5.793   2.069  0.00  0.00    +0.179 HD
ATOM     19  H   UNL     1      -2.019   6.780  -0.069  0.00  0.00    +0.147 HD
ATOM     20  H   UNL     1      -1.387   8.305  -0.385  0.00  0.00    +0.147 HD
ENDBRANCH  13  14
BRANCH  12  21
ATOM     21  C   UNL     1       0.057   3.548   2.715  0.00  0.00    +0.035 A 
ATOM     22  C   UNL     1       0.145   2.875   3.921  0.00  0.00    +0.017 A 
ATOM     23  C   UNL     1       1.393   2.668   4.463  0.00  0.00    +0.008 A 
ATOM     24  C   UNL     1       2.488   3.137   3.811  0.00  0.00    +0.046 A 
ATOM     25  S   UNL     1       1.772   3.899   2.364  0.00  0.00    -0.095 S 
ENDBRANCH  12  21
ENDBRANCH  11  12
ENDBRANCH   1  11
BRANCH   1  26
ATOM     26  C   UNL     1      -1.620   1.953  -0.339  0.00  0.00    +0.201 C 
BRANCH  26  27
ATOM     27  C   UNL     1      -1.195   0.725  -1.030  0.00  0.00    +0.081 C 
ATOM     28  N   UNL     1      -0.867  -0.222  -1.564  0.00  0.00    -0.195 NA
ENDBRANCH  26  27
BRANCH  26  29
ATOM     29  C   UNL     1      -0.573   2.979  -0.472  0.00  0.00    +0.081 C 
ATOM     30  N   UNL     1       0.235   3.771  -0.575  0.00  0.00    -0.195 NA
ENDBRANCH  26  29
ENDBRANCH   1  26
TORSDOF 8
