REMARK  Name = ZINC14884379
REMARK  9 active torsions:
REMARK  status: ('A' for Active; 'I' for Inactive)
REMARK    1  A    between atoms: C_1  and  C_2
REMARK    2  A    between atoms: C_2  and  C_3
REMARK    3  A    between atoms: C_3  and  C_4
REMARK    4  A    between atoms: C_4  and  C_19
REMARK    5  A    between atoms: N_7  and  C_11
REMARK    6  A    between atoms: C_11  and  C_12
REMARK    7  A    between atoms: C_12  and  C_13
REMARK    8  A    between atoms: C_18  and  N_68
REMARK    9  A    between atoms: C_25  and  C_27
REMARK                            x       y       z     vdW  Elec       q    Type
REMARK                         _______ _______ _______ _____ _____    ______ ____
ROOT
ATOM      1  C   UNL     1      -3.727  -1.103  -5.405  0.00  0.00    +0.115 C 
ATOM      2  C   UNL     1      -3.048  -0.032  -4.574  0.00  0.00    +0.247 C 
ATOM      3  O   UNL     1      -2.520   0.982  -4.976  0.00  0.00    -0.273 OA
ATOM      4  N   UNL     1      -3.153  -0.443  -3.295  0.00  0.00    -0.224 N 
ATOM      5  C   UNL     1      -3.803  -1.609  -3.203  0.00  0.00    +0.309 C 
ATOM      6  O   UNL     1      -4.024  -2.178  -2.152  0.00  0.00    -0.252 OA
ATOM      7  N   UNL     1      -4.184  -2.081  -4.403  0.00  0.00    -0.285 N 
ATOM      8  H   UNL     1      -4.666  -2.905  -4.576  0.00  0.00    +0.151 HD
ENDROOT
BRANCH   1   9
ATOM      9  C   UNL     1      -2.737  -1.750  -6.376  0.00  0.00    +0.024 C 
ATOM     10  C   UNL     1      -3.423  -2.904  -7.110  0.00  0.00    +0.025 C 
ATOM     11  C   UNL     1      -2.439  -3.527  -8.106  0.00  0.00    +0.108 C 
ATOM     12  N   UNL     1      -1.217  -3.911  -7.386  0.00  0.00    -0.297 N 
ATOM     13  C   UNL     1      -0.528  -2.898  -6.575  0.00  0.00    +0.108 C 
ATOM     14  C   UNL     1      -1.533  -2.283  -5.596  0.00  0.00    +0.025 C 
ATOM     15  C   UNL     1      -0.738  -5.168  -7.468  0.00  0.00    +0.249 C 
ATOM     16  O   UNL     1       0.315  -5.453  -6.932  0.00  0.00    -0.270 OA
BRANCH  15  17
ATOM     17  C   UNL     1      -1.492  -6.198  -8.209  0.00  0.00    +0.072 A 
ATOM     18  C   UNL     1      -1.879  -5.969  -9.531  0.00  0.00    +0.019 A 
ATOM     19  C   UNL     1      -2.583  -6.933 -10.218  0.00  0.00    +0.039 A 
ATOM     20  C   UNL     1      -2.908  -8.133  -9.600  0.00  0.00    +0.126 A 
ATOM     21  C   UNL     1      -2.528  -8.368  -8.289  0.00  0.00    +0.077 A 
ATOM     22  C   UNL     1      -1.817  -7.410  -7.591  0.00  0.00    +0.138 A 
ATOM     23  F   UNL     1      -1.441  -7.643  -6.314  0.00  0.00    -0.205 F 
ATOM     24  F   UNL     1      -3.598  -9.074 -10.280  0.00  0.00    -0.205 F 
ENDBRANCH  15  17
ENDBRANCH   1   9
BRANCH   1  25
ATOM     25  C   UNL     1      -4.917  -0.514  -6.165  0.00  0.00    +0.035 C 
BRANCH  25  27
ATOM     26  C   UNL     1      -7.054   0.760  -5.939  0.00  0.00    +0.004 C 
ATOM     27  C   UNL     1      -5.864   0.172  -5.178  0.00  0.00    -0.001 C 
ENDBRANCH  25  27
ENDBRANCH   1  25
BRANCH   4  28
ATOM     28  C   UNL     1      -2.625   0.298  -2.146  0.00  0.00    +0.116 C 
BRANCH  28  29
ATOM     29  C   UNL     1      -1.190  -0.151  -1.865  0.00  0.00    +0.004 C 
BRANCH  29  30
ATOM     30  C   UNL     1      -0.679   0.536  -0.597  0.00  0.00    -0.068 C 
ATOM     31  C   UNL     1      -1.512   0.079   0.619  0.00  0.00    -0.017 C 
ATOM     32  C   UNL     1      -0.451  -0.038   1.745  0.00  0.00    -0.020 C 
ATOM     33  C   UNL     1       0.782  -0.553   0.960  0.00  0.00    -0.079 C 
ATOM     34  C   UNL     1       1.231  -0.711  -1.422  0.00  0.00    -0.096 C 
ATOM     35  N   UNL     1       0.720   0.158  -0.330  0.00  0.00    +0.380 N 
ATOM     36  H   UNL     1       1.297   1.006  -0.278  0.00  0.00    -0.082 HD
ENDBRANCH  29  30
ENDBRANCH  28  29
ENDBRANCH   4  28
TORSDOF 7
