REMARK  Name = ZINC38673062
REMARK  13 active torsions:
REMARK  status: ('A' for Active; 'I' for Inactive)
REMARK    1  A    between atoms: C_1  and  C_2
REMARK    2  A    between atoms: C_2  and  N_3
REMARK    3  A    between atoms: N_3  and  C_4
REMARK    4  A    between atoms: N_3  and  S_6
REMARK    5  A    between atoms: C_4  and  C_5
REMARK    6  A    between atoms: S_6  and  C_9
REMARK    7  A    between atoms: C_12  and  C_15
REMARK    8  A    between atoms: N_17  and  C_18
REMARK    9  A    between atoms: C_18  and  C_19
REMARK   10  A    between atoms: C_19  and  C_21
REMARK   11  A    between atoms: C_19  and  N_32
REMARK   12  A    between atoms: N_30  and  C_31
REMARK   13  A    between atoms: N_35  and  C_38
REMARK                            x       y       z     vdW  Elec       q    Type
REMARK                         _______ _______ _______ _____ _____    ______ ____
ROOT
ATOM      1  C   UNL     1       0.423   5.623  -8.515  0.00  0.00    +0.104 C 
ENDROOT
BRANCH   1   2
ATOM      2  C   UNL     1       0.647   6.982  -9.129  0.00  0.00    -0.028 A 
ATOM      3  C   UNL     1       1.157   8.011  -8.358  0.00  0.00    +0.007 A 
ATOM      4  C   UNL     1       1.361   9.255  -8.919  0.00  0.00    +0.024 A 
ATOM      5  C   UNL     1       1.055   9.473 -10.258  0.00  0.00    +0.033 A 
ATOM      6  C   UNL     1       0.547   8.441 -11.031  0.00  0.00    -0.026 A 
ATOM      7  C   UNL     1       0.348   7.194 -10.460  0.00  0.00    +0.010 A 
ATOM      8  C   UNL     1       0.215   8.637 -12.486  0.00  0.00    +0.038 C 
ATOM      9  C   UNL     1       0.021  10.122 -12.795  0.00  0.00    +0.024 C 
ATOM     10  C   UNL     1       1.232  10.901 -12.267  0.00  0.00    +0.105 C 
ATOM     11  N   UNL     1       1.265  10.743 -10.806  0.00  0.00    -0.333 N 
ATOM     12  C   UNL     1       1.513  11.897  -9.938  0.00  0.00    +0.129 C 
ENDBRANCH   1   2
BRANCH   1  13
ATOM     13  N   UNL     1       1.534   5.306  -7.608  0.00  0.00    -0.297 NA
ATOM     14  C   UNL     1       2.817   5.308  -8.326  0.00  0.00    +0.066 C 
ATOM     15  C   UNL     1       3.951   5.033  -7.336  0.00  0.00    -0.064 C 
ATOM     16  N   UNL     1       3.733   3.731  -6.691  0.00  0.00    +0.379 N 
ATOM     17  C   UNL     1       2.460   3.753  -5.958  0.00  0.00    -0.064 C 
ATOM     18  C   UNL     1       1.313   4.018  -6.936  0.00  0.00    +0.066 C 
ATOM     19  C   UNL     1       4.832   3.459  -5.755  0.00  0.00    -0.096 C 
ATOM     20  H   UNL     1       3.704   3.008  -7.394  0.00  0.00    -0.082 HD
ENDBRANCH   1  13
BRANCH   1  21
ATOM     21  C   UNL     1      -0.891   5.629  -7.731  0.00  0.00    +0.128 C 
BRANCH  21  24
ATOM     22  C   UNL     1      -3.269   5.914  -8.178  0.00  0.00    +0.244 C 
ATOM     23  O   UNL     1      -3.479   5.778  -6.989  0.00  0.00    -0.270 OA
ATOM     24  N   UNL     1      -2.008   5.856  -8.651  0.00  0.00    -0.310 N 
ATOM     25  H   UNL     1      -1.840   5.964  -9.600  0.00  0.00    +0.149 HD
BRANCH  22  29
ATOM     26  C   UNL     1      -6.508   6.573 -10.846  0.00  0.00    +0.106 A 
ATOM     27  C   UNL     1      -6.751   6.418  -9.492  0.00  0.00    +0.029 A 
ATOM     28  C   UNL     1      -5.703   6.204  -8.621  0.00  0.00    +0.015 A 
ATOM     29  C   UNL     1      -4.396   6.143  -9.107  0.00  0.00    +0.037 A 
ATOM     30  C   UNL     1      -4.159   6.300 -10.473  0.00  0.00    +0.015 A 
ATOM     31  C   UNL     1      -5.216   6.508 -11.335  0.00  0.00    +0.029 A 
BRANCH  26  32
ATOM     32  S   UNL     1      -7.852   6.847 -11.952  0.00  0.00    +0.061 S 
ATOM     33  O   UNL     1      -7.312   7.497 -13.094  0.00  0.00    -0.153 OA
ATOM     34  O   UNL     1      -8.905   7.410 -11.181  0.00  0.00    -0.153 OA
BRANCH  32  35
ATOM     35  N   UNL     1      -8.379   5.361 -12.459  0.00  0.00    -0.177 NA
BRANCH  35  37
ATOM     36  C   UNL     1      -8.776   3.687 -10.721  0.00  0.00    +0.022 C 
ATOM     37  C   UNL     1      -9.424   4.659 -11.709  0.00  0.00    +0.106 C 
ENDBRANCH  35  37
BRANCH  35  38
ATOM     38  C   UNL     1      -7.801   4.748 -13.658  0.00  0.00    +0.106 C 
ATOM     39  C   UNL     1      -8.680   5.068 -14.868  0.00  0.00    +0.022 C 
ENDBRANCH  35  38
ENDBRANCH  32  35
ENDBRANCH  26  32
ENDBRANCH  22  29
ENDBRANCH  21  24
ENDBRANCH   1  21
TORSDOF 9
