REMARK  Name = ZINC39841247
REMARK  10 active torsions:
REMARK  status: ('A' for Active; 'I' for Inactive)
REMARK    1  A    between atoms: C_1  and  C_2
REMARK    2  A    between atoms: C_2  and  C_3
REMARK    3  A    between atoms: C_3  and  C_4
REMARK    4  A    between atoms: C_4  and  C_5
REMARK    5  A    between atoms: C_5  and  C_6
REMARK    6  A    between atoms: C_6  and  N_7
REMARK    7  A    between atoms: C_8  and  N_9
REMARK    8  A    between atoms: C_10  and  C_23
REMARK    9  A    between atoms: C_28  and  C_31
REMARK   10  A    between atoms: C_31  and  C_32
REMARK                            x       y       z     vdW  Elec       q    Type
REMARK                         _______ _______ _______ _____ _____    ______ ____
ROOT
ATOM      1  N   UNL     1      -4.220  -4.651  -0.008  0.00  0.00    -0.313 N 
ATOM      2  C   UNL     1      -4.807  -4.864   1.155  0.00  0.00    +0.110 A 
ATOM      3  C   UNL     1      -6.129  -5.355   1.231  0.00  0.00    +0.075 A 
ATOM      4  C   UNL     1      -6.827  -5.622   0.051  0.00  0.00    +0.033 A 
ATOM      5  C   UNL     1      -6.179  -5.386  -1.159  0.00  0.00    +0.083 A 
ATOM      6  C   UNL     1      -4.849  -4.886  -1.162  0.00  0.00    +0.150 A 
ATOM      7  N   UNL     1      -4.246  -4.662  -2.334  0.00  0.00    -0.211 NA
ATOM      8  C   UNL     1      -4.851  -4.888  -3.495  0.00  0.00    +0.143 A 
ATOM      9  C   UNL     1      -4.141  -4.625  -4.686  0.00  0.00    +0.047 A 
ATOM     10  C   UNL     1      -4.737  -4.847  -5.889  0.00  0.00    +0.005 A 
ATOM     11  C   UNL     1      -6.052  -5.337  -5.931  0.00  0.00    +0.018 A 
ATOM     12  C   UNL     1      -6.720  -5.584  -4.784  0.00  0.00    +0.096 A 
ATOM     13  N   UNL     1      -6.132  -5.365  -3.572  0.00  0.00    -0.268 N 
ATOM     14  C   UNL     1      -6.831  -5.636  -2.445  0.00  0.00    +0.268 A 
ATOM     15  O   UNL     1      -7.971  -6.061  -2.499  0.00  0.00    -0.267 OA
ENDROOT
BRANCH   3  16
ATOM     16  C   UNL     1      -6.763  -5.585   2.539  0.00  0.00    +0.250 C 
ATOM     17  O   UNL     1      -6.221  -6.300   3.361  0.00  0.00    -0.270 OA
ATOM     18  N   UNL     1      -7.944  -5.003   2.828  0.00  0.00    -0.297 N 
ATOM     19  C   UNL     1      -8.659  -4.217   1.812  0.00  0.00    +0.108 C 
ATOM     20  C   UNL     1      -8.967  -2.832   2.388  0.00  0.00    +0.023 C 
ATOM     21  C   UNL     1      -9.725  -2.990   3.709  0.00  0.00    -0.004 C 
ATOM     22  C   UNL     1      -8.851  -3.746   4.712  0.00  0.00    +0.023 C 
ATOM     23  C   UNL     1      -8.544  -5.147   4.161  0.00  0.00    +0.108 C 
BRANCH  21  24
ATOM     24  C   UNL     1     -10.065  -1.608   4.270  0.00  0.00    +0.038 C 
BRANCH  24  25
ATOM     25  C   UNL     1     -10.916  -1.762   5.504  0.00  0.00    -0.047 A 
ATOM     26  C   UNL     1     -12.293  -1.807   5.393  0.00  0.00    +0.003 A 
ATOM     27  C   UNL     1     -13.073  -1.949   6.525  0.00  0.00    +0.000 A 
ATOM     28  C   UNL     1     -12.476  -2.046   7.768  0.00  0.00    +0.000 A 
ATOM     29  C   UNL     1     -11.099  -2.002   7.879  0.00  0.00    +0.000 A 
ATOM     30  C   UNL     1     -10.319  -1.864   6.747  0.00  0.00    +0.003 A 
ENDBRANCH  24  25
ENDBRANCH  21  24
ENDBRANCH   3  16
BRANCH   2  31
ATOM     31  N   UNL     1      -4.115  -4.600   2.318  0.00  0.00    -0.344 N 
ATOM     32  H   UNL     1      -3.184  -4.331   2.279  0.00  0.00    +0.144 HD
ATOM     33  H   UNL     1      -4.560  -4.683   3.176  0.00  0.00    +0.144 HD
ENDBRANCH   2  31
BRANCH   1  34
ATOM     34  C   UNL     1      -2.847  -4.141  -0.034  0.00  0.00    +0.125 C 
BRANCH  34  35
ATOM     35  C   UNL     1      -2.873  -2.611  -0.043  0.00  0.00    +0.022 C 
BRANCH  35  36
ATOM     36  C   UNL     1      -1.439  -2.077  -0.069  0.00  0.00    +0.002 C 
BRANCH  36  37
ATOM     37  C   UNL     1      -1.464  -0.547  -0.078  0.00  0.00    -0.000 C 
BRANCH  37  39
ATOM     38  C   UNL     1      -0.056   1.516  -0.113  0.00  0.00    +0.004 C 
ATOM     39  C   UNL     1      -0.030  -0.014  -0.104  0.00  0.00    -0.003 C 
ENDBRANCH  37  39
ENDBRANCH  36  37
ENDBRANCH  35  36
ENDBRANCH  34  35
ENDBRANCH   1  34
TORSDOF 9
