REMARK  Name = ZINC67587502
REMARK  9 active torsions:
REMARK  status: ('A' for Active; 'I' for Inactive)
REMARK    1  A    between atoms: C_1  and  C_2
REMARK    2  A    between atoms: C_3  and  O_25
REMARK    3  A    between atoms: C_4  and  C_10
REMARK    4  A    between atoms: C_5  and  C_8
REMARK    5  A    between atoms: C_8  and  O_9
REMARK    6  A    between atoms: C_10  and  N_11
REMARK    7  A    between atoms: C_14  and  C_17
REMARK    8  A    between atoms: C_17  and  C_19
REMARK    9  A    between atoms: C_17  and  O_24
REMARK                            x       y       z     vdW  Elec       q    Type
REMARK                         _______ _______ _______ _____ _____    ______ ____
ROOT
ATOM      1  N   UNL     1       1.415  -3.087  -2.917  0.00  0.00    +0.382 N 
ATOM      2  C   UNL     1       2.053  -1.803  -3.227  0.00  0.00    -0.078 C 
ATOM      3  C   UNL     1       3.521  -2.034  -3.594  0.00  0.00    -0.012 C 
ATOM      4  C   UNL     1       3.597  -2.952  -4.817  0.00  0.00    +0.019 C 
ATOM      5  C   UNL     1       2.864  -4.260  -4.508  0.00  0.00    -0.012 C 
ATOM      6  C   UNL     1       1.420  -3.947  -4.107  0.00  0.00    -0.078 C 
ATOM      7  H   UNL     1       1.922  -3.542  -2.173  0.00  0.00    -0.081 HD
ENDROOT
BRANCH   1   8
ATOM      8  C   UNL     1       0.029  -2.853  -2.491  0.00  0.00    -0.039 C 
BRANCH   8  12
ATOM      9  C   UNL     1      -0.018   1.503   0.010  0.00  0.00    +0.069 C 
ATOM     10  C   UNL     1       0.002  -0.004   0.002  0.00  0.00    +0.080 A 
ATOM     11  C   UNL     1       0.006  -0.684  -1.208  0.00  0.00    +0.139 A 
ATOM     12  C   UNL     1       0.025  -2.075  -1.200  0.00  0.00    -0.014 A 
ATOM     13  C   UNL     1       0.039  -2.727   0.022  0.00  0.00    +0.001 A 
ATOM     14  C   UNL     1       0.035  -1.980   1.185  0.00  0.00    +0.117 A 
ATOM     15  N   UNL     1       0.022  -0.662   1.144  0.00  0.00    -0.256 NA
BRANCH  11  16
ATOM     16  O   UNL     1      -0.010  -0.001  -2.382  0.00  0.00    -0.505 OA
ATOM     17  H   UNL     1       0.869   0.209  -2.727  0.00  0.00    +0.292 HD
ENDBRANCH  11  16
BRANCH  13  18
ATOM     18  C   UNL     1       0.059  -4.233   0.083  0.00  0.00    +0.192 C 
BRANCH  18  19
ATOM     19  O   UNL     1       0.072  -4.654   1.448  0.00  0.00    -0.390 OA
ATOM     20  H   UNL     1       0.085  -5.614   1.563  0.00  0.00    +0.210 HD
ENDBRANCH  18  19
ENDBRANCH  13  18
ENDBRANCH   8  12
ENDBRANCH   1   8
BRANCH   4  21
ATOM     21  C   UNL     1       5.062  -3.251  -5.141  0.00  0.00    +0.154 C 
BRANCH  21  22
ATOM     22  C   UNL     1       5.141  -4.053  -6.415  0.00  0.00    +0.018 A 
ATOM     23  C   UNL     1       5.432  -3.633  -7.671  0.00  0.00    +0.014 A 
ATOM     24  C   UNL     1       5.448  -4.556  -8.699  0.00  0.00    +0.008 A 
ATOM     25  C   UNL     1       5.172  -5.854  -8.421  0.00  0.00    +0.045 A 
ATOM     26  S   UNL     1       4.884  -5.802  -6.660  0.00  0.00    -0.099 S 
ENDBRANCH  21  22
BRANCH  21  27
ATOM     27  O   UNL     1       5.644  -3.999  -4.071  0.00  0.00    -0.386 OA
ATOM     28  H   UNL     1       5.210  -4.847  -3.902  0.00  0.00    +0.210 HD
ENDBRANCH  21  27
ENDBRANCH   4  21
TORSDOF 8
