REMARK  Name = ZINC09409998
REMARK  11 active torsions:
REMARK  status: ('A' for Active; 'I' for Inactive)
REMARK    1  A    between atoms: C_1  and  C_2
REMARK    2  A    between atoms: C_6  and  O_28
REMARK    3  A    between atoms: C_12  and  C_13
REMARK    4  A    between atoms: C_13  and  C_14
REMARK    5  A    between atoms: C_14  and  C_15
REMARK    6  A    between atoms: N_17  and  C_18
REMARK    7  A    between atoms: C_21  and  S_24
REMARK    8  A    between atoms: S_24  and  N_27
REMARK    9  A    between atoms: O_28  and  C_29
REMARK   10  A    between atoms: C_29  and  C_30
REMARK   11  A    between atoms: C_30  and  C_32
REMARK                            x       y       z     vdW  Elec       q    Type
REMARK                         _______ _______ _______ _____ _____    ______ ____
ROOT
ATOM      1  C   UNL     1       0.025   0.018   2.484  0.00  0.00    +0.052 C 
ENDROOT
BRANCH   1  13
ATOM      2  C   UNL     1      -0.007   1.519   0.017  0.00  0.00    +0.045 C 
ATOM      3  C   UNL     1       0.007   0.013   0.000  0.00  0.00    -0.030 A 
ATOM      4  C   UNL     1      -0.002  -0.726  -1.264  0.00  0.00    +0.021 A 
ATOM      5  C   UNL     1      -0.012  -0.053  -2.492  0.00  0.00    +0.015 A 
ATOM      6  C   UNL     1      -0.013  -0.765  -3.656  0.00  0.00    +0.046 A 
ATOM      7  C   UNL     1       0.000  -2.158  -3.631  0.00  0.00    +0.124 A 
ATOM      8  C   UNL     1       0.015  -2.841  -2.425  0.00  0.00    +0.092 A 
ATOM      9  C   UNL     1       0.017  -2.132  -1.233  0.00  0.00    +0.143 A 
ATOM     10  O   UNL     1       0.032  -2.778  -0.047  0.00  0.00    -0.422 OA
ATOM     11  C   UNL     1       0.034  -2.107   1.116  0.00  0.00    +0.341 A 
ATOM     12  O   UNL     1       0.047  -2.732   2.161  0.00  0.00    -0.245 OA
ATOM     13  C   UNL     1       0.022  -0.698   1.158  0.00  0.00    +0.041 A 
BRANCH   7  14
ATOM     14  O   UNL     1      -0.002  -2.852  -4.797  0.00  0.00    -0.488 OA
BRANCH  14  15
ATOM     15  C   UNL     1      -0.017  -2.090  -6.006  0.00  0.00    +0.259 C 
BRANCH  15  16
ATOM     16  C   UNL     1      -0.017  -3.024  -7.189  0.00  0.00    -0.043 C 
ATOM     17  C   UNL     1      -0.004  -4.320  -7.000  0.00  0.00    +0.011 C 
ATOM     18  C   UNL     1      -0.032  -2.466  -8.589  0.00  0.00    +0.042 C 
ENDBRANCH  15  16
ENDBRANCH  14  15
ENDBRANCH   7  14
ENDBRANCH   1  13
BRANCH   1  19
ATOM     19  C   UNL     1      -1.416   0.247   2.943  0.00  0.00    +0.101 C 
BRANCH  19  20
ATOM     20  C   UNL     1      -1.413   0.963   4.269  0.00  0.00    +0.218 C 
ATOM     21  O   UNL     1      -0.362   1.261   4.795  0.00  0.00    -0.275 OA
ATOM     22  N   UNL     1      -2.579   1.272   4.871  0.00  0.00    -0.285 N 
ATOM     23  H   UNL     1      -3.420   1.095   4.420  0.00  0.00    +0.155 HD
BRANCH  22  24
ATOM     24  C   UNL     1      -2.577   1.850   6.145  0.00  0.00    +0.033 A 
ATOM     25  C   UNL     1      -3.582   1.539   7.052  0.00  0.00    +0.025 A 
ATOM     26  C   UNL     1      -3.574   2.105   8.311  0.00  0.00    +0.030 A 
ATOM     27  C   UNL     1      -2.573   2.991   8.666  0.00  0.00    +0.105 A 
ATOM     28  C   UNL     1      -1.574   3.308   7.763  0.00  0.00    +0.030 A 
ATOM     29  C   UNL     1      -1.573   2.740   6.505  0.00  0.00    +0.025 A 
BRANCH  27  30
ATOM     30  S   UNL     1      -2.570   3.717  10.271  0.00  0.00    +0.056 S 
ATOM     31  O   UNL     1      -3.305   2.841  11.115  0.00  0.00    -0.153 OA
ATOM     32  O   UNL     1      -1.227   4.091  10.546  0.00  0.00    -0.153 OA
BRANCH  30  33
ATOM     33  N   UNL     1      -3.442   5.122  10.174  0.00  0.00    -0.204 NA
ATOM     34  H   UNL     1      -3.835   5.392   9.329  0.00  0.00    +0.144 HD
ATOM     35  H   UNL     1      -3.558   5.676  10.962  0.00  0.00    +0.144 HD
ENDBRANCH  30  33
ENDBRANCH  27  30
ENDBRANCH  22  24
ENDBRANCH  19  20
ENDBRANCH   1  19
TORSDOF 9
