REMARK  Name = ZINC09092333
REMARK  9 active torsions:
REMARK  status: ('A' for Active; 'I' for Inactive)
REMARK    1  A    between atoms: C_1  and  C_2
REMARK    2  A    between atoms: C_7  and  N_12
REMARK    3  A    between atoms: C_9  and  C_11
REMARK    4  A    between atoms: C_13  and  C_15
REMARK    5  A    between atoms: C_15  and  C_17
REMARK    6  A    between atoms: C_15  and  S_18
REMARK    7  A    between atoms: S_18  and  C_19
REMARK    8  A    between atoms: C_22  and  C_25
REMARK    9  A    between atoms: N_23  and  N_24
REMARK                            x       y       z     vdW  Elec       q    Type
REMARK                         _______ _______ _______ _____ _____    ______ ____
ROOT
ATOM      1  S   UNL     1       1.561   2.014  -0.269  0.00  0.00    -0.072 S 
ENDROOT
BRANCH   1   2
ATOM      2  C   UNL     1       2.255   1.010  -1.540  0.00  0.00    +0.209 A 
ATOM      3  N   UNL     1       1.603   0.168  -2.311  0.00  0.00    -0.121 NA
ATOM      4  N   UNL     1       2.415  -0.396  -3.132  0.00  0.00    -0.127 NA
ATOM      5  C   UNL     1       3.635   0.043  -2.930  0.00  0.00    +0.183 A 
ATOM      6  N   UNL     1       3.570   0.958  -1.904  0.00  0.00    -0.224 N 
BRANCH   5   7
ATOM      7  C   UNL     1       4.850  -0.367  -3.665  0.00  0.00    +0.035 A 
ATOM      8  C   UNL     1       6.011  -0.705  -2.968  0.00  0.00    +0.013 A 
ATOM      9  C   UNL     1       7.141  -1.087  -3.660  0.00  0.00    +0.001 A 
ATOM     10  C   UNL     1       7.126  -1.137  -5.043  0.00  0.00    +0.001 A 
ATOM     11  C   UNL     1       5.979  -0.804  -5.741  0.00  0.00    +0.016 A 
ATOM     12  C   UNL     1       4.839  -0.424  -5.061  0.00  0.00    +0.029 A 
ATOM     13 BR   UNL     1       3.270   0.022  -6.016  0.00  0.00    -0.050 Br
ENDBRANCH   5   7
BRANCH   6  14
ATOM     14  N   UNL     1       4.605   1.666  -1.363  0.00  0.00    -0.295 N 
ATOM     15  H   UNL     1       5.078   1.129  -0.652  0.00  0.00    +0.163 HD
ATOM     16  H   UNL     1       5.250   1.967  -2.078  0.00  0.00    +0.163 HD
ENDBRANCH   6  14
ENDBRANCH   1   2
BRANCH   1  17
ATOM     17  C   UNL     1      -0.178   1.530  -0.400  0.00  0.00    +0.137 C 
ATOM     18  C   UNL     1      -0.729   1.970  -1.757  0.00  0.00    +0.029 C 
BRANCH  17  20
ATOM     19  N   UNL     1      -2.117   1.635   1.133  0.00  0.00    -0.311 N 
ATOM     20  C   UNL     1      -0.967   2.191   0.701  0.00  0.00    +0.226 C 
ATOM     21  O   UNL     1      -0.568   3.223   1.198  0.00  0.00    -0.275 OA
ATOM     22  H   UNL     1      -2.436   0.810   0.735  0.00  0.00    +0.149 HD
BRANCH  19  28
ATOM     23  C   UNL     1      -6.626   2.130   3.099  0.00  0.00    +0.008 C 
ATOM     24  C   UNL     1      -5.156   2.539   3.209  0.00  0.00    -0.009 C 
ATOM     25  C   UNL     1      -4.605   2.099   4.567  0.00  0.00    +0.003 C 
ATOM     26  C   UNL     1      -3.135   2.509   4.678  0.00  0.00    +0.002 C 
ATOM     27  C   UNL     1      -2.333   1.838   3.560  0.00  0.00    +0.022 C 
ATOM     28  C   UNL     1      -2.884   2.278   2.203  0.00  0.00    +0.076 C 
ATOM     29  C   UNL     1      -4.354   1.869   2.092  0.00  0.00    +0.009 C 
ATOM     30  C   UNL     1      -4.905   2.309   0.734  0.00  0.00    +0.009 C 
ENDBRANCH  19  28
ENDBRANCH  17  20
ENDBRANCH   1  17
TORSDOF 6
