REMARK  Name = ZINC13149147
REMARK  5 active torsions:
REMARK  status: ('A' for Active; 'I' for Inactive)
REMARK    1  A    between atoms: C_4  and  C_7
REMARK    2  A    between atoms: C_7  and  C_9
REMARK    3  A    between atoms: C_11  and  C_23
REMARK    4  A    between atoms: C_17  and  C_18
REMARK    5  A    between atoms: C_17  and  O_22
REMARK                            x       y       z     vdW  Elec       q    Type
REMARK                         _______ _______ _______ _____ _____    ______ ____
ROOT
ATOM      1  C   UNL     1       1.055   2.188  -0.036  0.00  0.00    +0.144 C 
ATOM      2  C   UNL     1      -0.186   1.312  -0.242  0.00  0.00    +0.120 C 
ATOM      3  N   UNL     1      -0.920   1.216   1.021  0.00  0.00    -0.292 N 
ATOM      4  C   UNL     1      -0.882   2.204   1.927  0.00  0.00    +0.302 C 
ATOM      5  O   UNL     1      -1.519   2.078   2.955  0.00  0.00    -0.253 OA
ATOM      6  N   UNL     1      -0.170   3.326   1.744  0.00  0.00    -0.264 N 
ATOM      7  C   UNL     1       0.608   3.543   0.523  0.00  0.00    +0.243 C 
ATOM      8  H   UNL     1      -1.445   0.421   1.206  0.00  0.00    +0.151 HD
ATOM      9  H   UNL     1      -0.170   4.007   2.435  0.00  0.00    +0.153 HD
ENDROOT
BRANCH   2  10
ATOM     10  C   UNL     1      -1.070   1.929  -1.294  0.00  0.00    -0.025 A 
ATOM     11  C   UNL     1      -2.154   2.701  -0.921  0.00  0.00    +0.005 A 
ATOM     12  C   UNL     1      -2.962   3.272  -1.886  0.00  0.00    +0.001 A 
ATOM     13  C   UNL     1      -2.692   3.063  -3.225  0.00  0.00    +0.015 A 
ATOM     14  C   UNL     1      -1.611   2.287  -3.600  0.00  0.00    +0.018 A 
ATOM     15  C   UNL     1      -0.799   1.720  -2.633  0.00  0.00    +0.020 A 
ATOM     16 BR   UNL     1      -1.242   2.000  -5.432  0.00  0.00    -0.050 Br
ENDBRANCH   2  10
BRANCH   7  17
ATOM     17  C   UNL     1       1.838   4.394   0.845  0.00  0.00    +0.436 C 
ATOM     18  F   UNL     1       2.673   4.450  -0.276  0.00  0.00    -0.166 F 
ATOM     19  F   UNL     1       1.432   5.689   1.189  0.00  0.00    -0.166 F 
ATOM     20  F   UNL     1       2.533   3.823   1.916  0.00  0.00    -0.166 F 
ENDBRANCH   7  17
BRANCH   1  21
ATOM     21  C   UNL     1       1.989   1.521   0.940  0.00  0.00    +0.173 C 
ATOM     22  O   UNL     1       1.717   1.498   2.121  0.00  0.00    -0.292 OA
BRANCH  21  26
ATOM     23  C   UNL     1       5.573  -0.276  -0.445  0.00  0.00    +0.000 A 
ATOM     24  C   UNL     1       5.319  -0.205   0.914  0.00  0.00    +0.001 A 
ATOM     25  C   UNL     1       4.157   0.378   1.372  0.00  0.00    +0.011 A 
ATOM     26  C   UNL     1       3.233   0.898   0.460  0.00  0.00    +0.018 A 
ATOM     27  C   UNL     1       3.494   0.817  -0.912  0.00  0.00    +0.011 A 
ATOM     28  C   UNL     1       4.664   0.235  -1.354  0.00  0.00    +0.001 A 
ENDBRANCH  21  26
ENDBRANCH   1  21
BRANCH   7  29
ATOM     29  O   UNL     1      -0.199   4.217  -0.445  0.00  0.00    -0.364 OA
ATOM     30  H   UNL     1      -0.518   5.083  -0.158  0.00  0.00    +0.212 HD
ENDBRANCH   7  29
TORSDOF 5
