REMARK  Name = ZINC35301084
REMARK  6 active torsions:
REMARK  status: ('A' for Active; 'I' for Inactive)
REMARK    1  A    between atoms: C_1  and  O_2
REMARK    2  A    between atoms: O_2  and  C_3
REMARK    3  A    between atoms: C_6  and  C_9
REMARK    4  A    between atoms: N_17  and  C_20
REMARK    5  A    between atoms: C_28  and  N_32
REMARK    6  A    between atoms: C_29  and  C_30
REMARK                            x       y       z     vdW  Elec       q    Type
REMARK                         _______ _______ _______ _____ _____    ______ ____
ROOT
ATOM      1  C   UNL     1       2.505  -2.503  -4.381  0.00  0.00    +0.075 C 
ATOM      2  C   UNL     1       3.738  -3.153  -3.890  0.00  0.00    +0.110 C 
ATOM      3  C   UNL     1       4.403  -4.198  -4.798  0.00  0.00    +0.152 C 
ATOM      4  C   UNL     1       5.347  -4.835  -3.763  0.00  0.00    +0.240 C 
ATOM      5  O   UNL     1       6.406  -5.378  -3.994  0.00  0.00    -0.274 OA
ATOM      6  N   UNL     1       4.777  -4.677  -2.552  0.00  0.00    -0.209 N 
ATOM      7  C   UNL     1       3.726  -3.838  -2.558  0.00  0.00    +0.232 C 
ATOM      8  O   UNL     1       2.936  -3.663  -1.655  0.00  0.00    -0.274 OA
ATOM      9  S   UNL     1       3.184  -5.478  -5.238  0.00  0.00    -0.096 S 
ATOM     10  C   UNL     1       1.693  -4.593  -5.509  0.00  0.00    +0.074 C 
ATOM     11  C   UNL     1       1.497  -3.366  -5.050  0.00  0.00    +0.064 C 
ENDROOT
BRANCH   6  12
ATOM     12  C   UNL     1       5.224  -5.344  -1.403  0.00  0.00    +0.044 A 
ATOM     13  C   UNL     1       4.586  -5.139  -0.187  0.00  0.00    +0.025 A 
ATOM     14  C   UNL     1       5.029  -5.797   0.944  0.00  0.00    +0.022 A 
ATOM     15  C   UNL     1       6.107  -6.660   0.866  0.00  0.00    +0.041 A 
ATOM     16  C   UNL     1       6.745  -6.866  -0.345  0.00  0.00    +0.022 A 
ATOM     17  C   UNL     1       6.303  -6.215  -1.480  0.00  0.00    +0.025 A 
ATOM     18 CL   UNL     1       6.661  -7.486   2.289  0.00  0.00    -0.084 Cl
ENDBRANCH   6  12
BRANCH   1  22
ATOM     19  C   UNL     1       0.607  -0.607  -1.055  0.00  0.00    +0.120 A 
ATOM     20  C   UNL     1       0.258  -1.903  -1.408  0.00  0.00    +0.046 A 
ATOM     21  C   UNL     1       0.873  -2.514  -2.484  0.00  0.00    +0.008 A 
ATOM     22  C   UNL     1       1.835  -1.835  -3.209  0.00  0.00    -0.038 A 
ATOM     23  C   UNL     1       2.184  -0.543  -2.859  0.00  0.00    +0.008 A 
ATOM     24  C   UNL     1       1.568   0.074  -1.788  0.00  0.00    +0.046 A 
BRANCH  19  26
ATOM     25  C   UNL     1      -0.978  -0.766   0.711  0.00  0.00    +0.277 C 
ATOM     26  O   UNL     1       0.003  -0.004   0.003  0.00  0.00    -0.495 OA
ENDBRANCH  19  26
ENDBRANCH   1  22
BRANCH  10  27
ATOM     27  N   UNL     1       0.671  -5.215  -6.186  0.00  0.00    -0.352 N 
ATOM     28  H   UNL     1       0.782  -6.124  -6.504  0.00  0.00    +0.143 HD
ATOM     29  H   UNL     1      -0.162  -4.744  -6.346  0.00  0.00    +0.143 HD
ENDBRANCH  10  27
BRANCH  11  30
ATOM     30  C   UNL     1       0.200  -2.801  -5.266  0.00  0.00    +0.098 C 
ATOM     31  N   UNL     1      -0.830  -2.352  -5.438  0.00  0.00    -0.191 NA
ENDBRANCH  11  30
TORSDOF 5
