REMARK  Name = ZINC05105838
REMARK  8 active torsions:
REMARK  status: ('A' for Active; 'I' for Inactive)
REMARK    1  A    between atoms: C_1  and  C_2
REMARK    2  A    between atoms: C_2  and  O_3
REMARK    3  A    between atoms: O_3  and  C_4
REMARK    4  A    between atoms: C_17  and  C_20
REMARK    5  A    between atoms: N_22  and  C_23
REMARK    6  A    between atoms: C_24  and  C_31
REMARK    7  A    between atoms: C_26  and  C_30
REMARK    8  A    between atoms: C_28  and  C_29
REMARK                            x       y       z     vdW  Elec       q    Type
REMARK                         _______ _______ _______ _____ _____    ______ ____
ROOT
ATOM      1  C   UNL     1       7.370  -4.447   1.915  0.00  0.00    +0.122 A 
ATOM      2  C   UNL     1       7.022  -4.748   0.602  0.00  0.00    +0.048 A 
ATOM      3  C   UNL     1       5.819  -4.360   0.073  0.00  0.00    +0.032 A 
ATOM      4  C   UNL     1       4.887  -3.636   0.852  0.00  0.00    +0.081 A 
ATOM      5  C   UNL     1       5.271  -3.347   2.180  0.00  0.00    +0.044 A 
ATOM      6  C   UNL     1       6.478  -3.737   2.705  0.00  0.00    +0.063 A 
ATOM      7  S   UNL     1       3.867  -2.447   2.793  0.00  0.00    -0.052 S 
ATOM      8  C   UNL     1       2.886  -2.517   1.301  0.00  0.00    +0.162 A 
ATOM      9  N   UNL     1       3.667  -3.183   0.483  0.00  0.00    -0.225 NA
ATOM     10  N   UNL     1       1.628  -1.997   1.067  0.00  0.00    -0.309 N 
ATOM     11  C   UNL     1       0.657  -2.508   2.043  0.00  0.00    +0.107 C 
ATOM     12  C   UNL     1      -0.747  -2.029   1.667  0.00  0.00    +0.020 C 
ATOM     13  C   UNL     1      -0.770  -0.498   1.649  0.00  0.00    +0.016 C 
ATOM     14  C   UNL     1       0.283   0.010   0.660  0.00  0.00    +0.093 C 
ATOM     15  C   UNL     1       1.657  -0.529   1.066  0.00  0.00    +0.119 C 
ENDROOT
BRANCH  14  16
ATOM     16  C   UNL     1       0.308   1.516   0.680  0.00  0.00    +0.222 C 
ATOM     17  O   UNL     1      -0.447   2.126   1.409  0.00  0.00    -0.275 OA
ATOM     18  N   UNL     1       1.164   2.187  -0.116  0.00  0.00    -0.285 N 
ATOM     19  H   UNL     1       1.801   1.700  -0.662  0.00  0.00    +0.155 HD
BRANCH  18  20
ATOM     20  C   UNL     1       1.134   3.586  -0.154  0.00  0.00    +0.039 A 
ATOM     21  C   UNL     1      -0.061   4.250  -0.398  0.00  0.00    -0.029 A 
ATOM     22  C   UNL     1      -0.088   5.630  -0.431  0.00  0.00    +0.008 A 
ATOM     23  C   UNL     1       1.075   6.351  -0.231  0.00  0.00    -0.050 A 
ATOM     24  C   UNL     1       2.268   5.692   0.007  0.00  0.00    +0.008 A 
ATOM     25  C   UNL     1       2.300   4.312   0.046  0.00  0.00    -0.029 A 
ATOM     26  C   UNL     1       3.601   3.595   0.304  0.00  0.00    +0.045 C 
ATOM     27  C   UNL     1       1.043   7.857  -0.273  0.00  0.00    +0.044 C 
ATOM     28  C   UNL     1      -1.328   3.465  -0.621  0.00  0.00    +0.045 C 
ENDBRANCH  18  20
ENDBRANCH  14  16
BRANCH   1  29
ATOM     29  O   UNL     1       8.570  -4.842   2.417  0.00  0.00    -0.492 OA
BRANCH  29  31
ATOM     30  C   UNL     1      10.726  -5.925   2.276  0.00  0.00    +0.048 C 
ATOM     31  C   UNL     1       9.433  -5.568   1.540  0.00  0.00    +0.225 C 
ENDBRANCH  29  31
ENDBRANCH   1  29
TORSDOF 4
