REMARK  Name = ZINC36073598
REMARK  13 active torsions:
REMARK  status: ('A' for Active; 'I' for Inactive)
REMARK    1  A    between atoms: C_1  and  C_2
REMARK    2  A    between atoms: C_6  and  C_7
REMARK    3  A    between atoms: C_7  and  N_8
REMARK    4  A    between atoms: N_8  and  C_9
REMARK    5  A    between atoms: N_8  and  C_21
REMARK    6  A    between atoms: C_9  and  C_10
REMARK    7  A    between atoms: C_10  and  C_11
REMARK    8  A    between atoms: C_21  and  C_22
REMARK    9  A    between atoms: C_24  and  C_27
REMARK   10  A    between atoms: N_29  and  C_30
REMARK   11  A    between atoms: C_30  and  C_31
REMARK   12  A    between atoms: C_31  and  C_32
REMARK   13  A    between atoms: C_31  and  C_33
REMARK                            x       y       z     vdW  Elec       q    Type
REMARK                         _______ _______ _______ _____ _____    ______ ____
ROOT
ATOM      1  N   UNL     1      -1.232   0.255   2.878  0.00  0.00    +0.389 N 
ATOM      2  H   UNL     1      -1.500   0.703   2.015  0.00  0.00    -0.081 HD
ENDROOT
BRANCH   1   3
ATOM      3  C   UNL     1       0.151  -0.229   2.770  0.00  0.00    -0.035 C 
BRANCH   3   9
ATOM      4  C   UNL     1       0.209  -3.165   3.674  0.00  0.00    +0.044 C 
ATOM      5  C   UNL     1       0.653  -2.027   4.557  0.00  0.00    -0.042 A 
ATOM      6  C   UNL     1       1.120  -2.273   5.835  0.00  0.00    +0.011 A 
ATOM      7  C   UNL     1       1.512  -1.228   6.604  0.00  0.00    +0.045 A 
ATOM      8  S   UNL     1       1.224   0.159   5.516  0.00  0.00    -0.103 S 
ATOM      9  C   UNL     1       0.607  -0.749   4.109  0.00  0.00    -0.024 A 
ENDBRANCH   3   9
ENDBRANCH   1   3
BRANCH   1  10
ATOM     10  C   UNL     1      -2.129  -0.879   3.139  0.00  0.00    -0.073 C 
BRANCH  10  11
ATOM     11  C   UNL     1      -2.198  -1.771   1.898  0.00  0.00    +0.019 C 
BRANCH  11  12
ATOM     12  C   UNL     1      -3.074  -2.963   2.184  0.00  0.00    -0.024 A 
ATOM     13  C   UNL     1      -2.661  -4.207   2.474  0.00  0.00    +0.087 A 
ATOM     14  N   UNL     1      -3.740  -5.023   2.673  0.00  0.00    -0.360 N 
ATOM     15  H   UNL     1      -3.693  -5.966   2.895  0.00  0.00    +0.165 HD
ATOM     16  C   UNL     1      -4.905  -4.307   2.512  0.00  0.00    +0.047 A 
ATOM     17  C   UNL     1      -4.539  -2.983   2.204  0.00  0.00    +0.003 A 
ATOM     18  C   UNL     1      -5.526  -2.019   1.990  0.00  0.00    +0.010 A 
ATOM     19  C   UNL     1      -6.844  -2.366   2.084  0.00  0.00    +0.001 A 
ATOM     20  C   UNL     1      -7.211  -3.669   2.392  0.00  0.00    +0.002 A 
ATOM     21  C   UNL     1      -6.253  -4.638   2.597  0.00  0.00    +0.026 A 
ENDBRANCH  11  12
ENDBRANCH  10  11
ENDBRANCH   1  10
BRANCH   1  22
ATOM     22  C   UNL     1      -1.329   1.220   3.982  0.00  0.00    +0.019 C 
BRANCH  22  23
ATOM     23  C   UNL     1      -0.504   2.438   3.657  0.00  0.00    +0.179 A 
ATOM     24  N   UNL     1      -0.935   3.495   3.036  0.00  0.00    -0.210 NA
ATOM     25  C   UNL     1       0.092   4.381   2.927  0.00  0.00    +0.163 A 
ATOM     26  C   UNL     1       1.177   3.809   3.516  0.00  0.00    +0.230 A 
ATOM     27  O   UNL     1       0.789   2.606   3.968  0.00  0.00    -0.449 OA
BRANCH  25  28
ATOM     28  C   UNL     1       0.039   5.710   2.291  0.00  0.00    +0.266 C 
ATOM     29  O   UNL     1       1.033   6.409   2.260  0.00  0.00    -0.268 OA
ATOM     30  N   UNL     1      -1.112   6.149   1.744  0.00  0.00    -0.310 N 
ATOM     31  H   UNL     1      -1.905   5.592   1.769  0.00  0.00    +0.149 HD
BRANCH  30  32
ATOM     32  C   UNL     1      -1.164   7.470   1.112  0.00  0.00    +0.107 C 
BRANCH  32  33
ATOM     33  C   UNL     1      -2.575   7.723   0.575  0.00  0.00    -0.000 C 
ATOM     34  C   UNL     1      -3.560   7.793   1.743  0.00  0.00    +0.009 C 
ATOM     35  C   UNL     1      -2.599   9.045  -0.194  0.00  0.00    +0.009 C 
ENDBRANCH  32  33
ENDBRANCH  30  32
ENDBRANCH  25  28
ENDBRANCH  22  23
ENDBRANCH   1  22
TORSDOF 10
