REMARK  Name = ZINC63686413
REMARK  9 active torsions:
REMARK  status: ('A' for Active; 'I' for Inactive)
REMARK    1  A    between atoms: C_1  and  C_2
REMARK    2  A    between atoms: C_4  and  C_30
REMARK    3  A    between atoms: C_9  and  C_13
REMARK    4  A    between atoms: C_13  and  S_14
REMARK    5  A    between atoms: S_14  and  C_15
REMARK    6  A    between atoms: C_19  and  C_22
REMARK    7  A    between atoms: N_20  and  C_21
REMARK    8  A    between atoms: C_22  and  O_23
REMARK    9  A    between atoms: O_23  and  C_24
REMARK                            x       y       z     vdW  Elec       q    Type
REMARK                         _______ _______ _______ _____ _____    ______ ____
ROOT
ATOM      1  S   UNL     1       2.728  -4.360   4.212  0.00  0.00    -0.112 S 
ENDROOT
BRANCH   1   2
ATOM      2  C   UNL     1       2.894  -5.261   5.778  0.00  0.00    +0.237 C 
ATOM      3  N   UNL     1       1.816  -4.885   6.709  0.00  0.00    -0.238 N 
ATOM      4  N   UNL     1       1.097  -6.059   6.965  0.00  0.00    -0.170 NA
ATOM      5  C   UNL     1       1.585  -7.060   6.330  0.00  0.00    +0.155 C 
ATOM      6  N   UNL     1       2.691  -6.705   5.567  0.00  0.00    -0.290 N 
ATOM      7  C   UNL     1       3.496  -7.589   4.720  0.00  0.00    +0.133 C 
ATOM      8  H   UNL     1       1.640  -4.002   7.071  0.00  0.00    +0.171 HD
BRANCH   5   9
ATOM      9  C   UNL     1       1.028  -8.458   6.404  0.00  0.00    +0.302 C 
BRANCH   9  10
ATOM     10  O   UNL     1      -0.104  -8.474   7.277  0.00  0.00    -0.485 OA
BRANCH  10  11
ATOM     11  C   UNL     1      -0.729  -9.667   7.455  0.00  0.00    +0.121 A 
ATOM     12  C   UNL     1      -0.258 -10.801   6.809  0.00  0.00    +0.045 A 
ATOM     13  C   UNL     1      -0.895 -12.014   6.993  0.00  0.00    +0.004 A 
ATOM     14  C   UNL     1      -2.000 -12.097   7.820  0.00  0.00    +0.000 A 
ATOM     15  C   UNL     1      -2.471 -10.969   8.465  0.00  0.00    +0.004 A 
ATOM     16  C   UNL     1      -1.834  -9.755   8.289  0.00  0.00    +0.045 A 
ENDBRANCH  10  11
ENDBRANCH   9  10
ENDBRANCH   5   9
ENDBRANCH   1   2
BRANCH   1  17
ATOM     17  C   UNL     1       1.058  -4.777   3.640  0.00  0.00    +0.125 C 
BRANCH  17  26
ATOM     18  C   UNL     1      -0.520   1.451   0.038  0.00  0.00    +0.044 C 
ATOM     19  C   UNL     1      -0.237  -0.029   0.015  0.00  0.00    -0.048 A 
ATOM     20  C   UNL     1      -0.231  -0.708  -1.195  0.00  0.00    +0.007 A 
ATOM     21  C   UNL     1       0.024  -2.051  -1.237  0.00  0.00    -0.037 A 
ATOM     22  C   UNL     1       0.281  -2.742  -0.053  0.00  0.00    +0.048 A 
ATOM     23  C   UNL     1       0.277  -2.059   1.176  0.00  0.00    +0.051 A 
ATOM     24  C   UNL     1       0.020  -0.691   1.195  0.00  0.00    +0.029 A 
ATOM     25  N   UNL     1       0.532  -2.752   2.338  0.00  0.00    -0.357 N 
ATOM     26  C   UNL     1       0.788  -4.083   2.330  0.00  0.00    +0.030 A 
ATOM     27  C   UNL     1       0.810  -4.810   1.194  0.00  0.00    +0.073 A 
ATOM     28  C   UNL     1       0.560  -4.189  -0.052  0.00  0.00    +0.190 A 
ATOM     29  O   UNL     1       0.576  -4.829  -1.090  0.00  0.00    -0.287 OA
ATOM     30  C   UNL     1       0.027  -2.780  -2.556  0.00  0.00    +0.044 C 
ATOM     31  H   UNL     1       0.528  -2.276   3.183  0.00  0.00    +0.166 HD
ENDBRANCH  17  26
ENDBRANCH   1  17
TORSDOF 6
