REMARK  Name = ZINC39607832
REMARK  7 active torsions:
REMARK  status: ('A' for Active; 'I' for Inactive)
REMARK    1  A    between atoms: C_1  and  C_2
REMARK    2  A    between atoms: C_2  and  C_4
REMARK    3  A    between atoms: C_2  and  N_7
REMARK    4  A    between atoms: C_4  and  C_5
REMARK    5  A    between atoms: C_4  and  C_6
REMARK    6  A    between atoms: C_8  and  C_10
REMARK    7  A    between atoms: C_21  and  C_23
REMARK                            x       y       z     vdW  Elec       q    Type
REMARK                         _______ _______ _______ _____ _____    ______ ____
ROOT
ATOM      1  C   UNL     1       0.146  -1.011  -3.320  0.00  0.00    +0.100 C 
ATOM      2  C   UNL     1       0.980  -2.298  -3.133  0.00  0.00    +0.121 C 
ATOM      3  N   UNL     1       0.160  -3.369  -3.747  0.00  0.00    -0.296 N 
ATOM      4  C   UNL     1      -0.418  -2.740  -4.959  0.00  0.00    +0.115 C 
ATOM      5  C   UNL     1      -0.767  -1.304  -4.522  0.00  0.00    -0.004 C 
ATOM      6  C   UNL     1      -0.482  -0.323  -5.654  0.00  0.00    -0.010 C 
ATOM      7  C   UNL     1      -1.442  -0.596  -6.816  0.00  0.00    -0.082 C 
ATOM      8  N   UNL     1      -2.827  -0.450  -6.352  0.00  0.00    +0.379 N 
ATOM      9  C   UNL     1      -3.122  -1.459  -5.328  0.00  0.00    -0.082 C 
ATOM     10  C   UNL     1      -2.233  -1.222  -4.104  0.00  0.00    -0.010 C 
ATOM     11  C   UNL     1      -0.019  -4.629  -3.304  0.00  0.00    +0.248 C 
ATOM     12  O   UNL     1      -0.650  -5.424  -3.974  0.00  0.00    -0.270 OA
ATOM     13  H   UNL     1      -2.954   0.471  -5.961  0.00  0.00    -0.086 HD
ATOM     14  H   UNL     1      -3.455  -0.570  -7.133  0.00  0.00    -0.086 HD
ENDROOT
BRANCH  11  15
ATOM     15  C   UNL     1       0.550  -5.044  -2.005  0.00  0.00    +0.055 A 
ATOM     16  C   UNL     1       1.781  -4.537  -1.585  0.00  0.00    +0.014 A 
ATOM     17  C   UNL     1       2.306  -4.927  -0.371  0.00  0.00    +0.001 A 
ATOM     18  C   UNL     1       1.617  -5.821   0.430  0.00  0.00    +0.001 A 
ATOM     19  C   UNL     1       0.397  -6.328   0.021  0.00  0.00    +0.021 A 
ATOM     20  C   UNL     1      -0.144  -5.941  -1.190  0.00  0.00    +0.053 A 
ATOM     21 CL   UNL     1      -1.679  -6.572  -1.699  0.00  0.00    -0.083 Cl
ENDBRANCH  11  15
BRANCH   1  23
ATOM     22  N   UNL     1      -1.030   0.528  -1.781  0.00  0.00    -0.312 N 
ATOM     23  C   UNL     1      -0.679  -0.737  -2.089  0.00  0.00    +0.218 C 
ATOM     24  O   UNL     1      -1.026  -1.653  -1.375  0.00  0.00    -0.275 OA
ATOM     25  H   UNL     1      -0.752   1.261  -2.352  0.00  0.00    +0.149 HD
BRANCH  22  27
ATOM     26  C   UNL     1      -3.315   0.619  -0.914  0.00  0.00    +0.028 C 
ATOM     27  C   UNL     1      -1.831   0.794  -0.584  0.00  0.00    +0.072 C 
BRANCH  27  28
ATOM     28  C   UNL     1      -1.581   2.228  -0.112  0.00  0.00    +0.003 C 
ATOM     29  C   UNL     1      -2.091   3.210  -1.168  0.00  0.00    +0.009 C 
ATOM     30  C   UNL     1      -2.320   2.467   1.206  0.00  0.00    +0.009 C 
ENDBRANCH  27  28
ENDBRANCH  22  27
ENDBRANCH   1  23
TORSDOF 4
