REMARK  Name = ZINC04222464
REMARK  8 active torsions:
REMARK  status: ('A' for Active; 'I' for Inactive)
REMARK    1  A    between atoms: C_1  and  C_2
REMARK    2  A    between atoms: C_5  and  O_37
REMARK    3  A    between atoms: C_7  and  C_34
REMARK    4  A    between atoms: C_7  and  C_35
REMARK    5  A    between atoms: C_17  and  C_19
REMARK    6  A    between atoms: C_23  and  C_25
REMARK    7  A    between atoms: C_25  and  C_26
REMARK    8  A    between atoms: C_35  and  O_36
REMARK                            x       y       z     vdW  Elec       q    Type
REMARK                         _______ _______ _______ _____ _____    ______ ____
ROOT
ATOM      1  C   UNL     1       8.909   1.866   0.402  0.00  0.00    +0.012 C 
ATOM      2  C   UNL     1       8.402   2.558   1.669  0.00  0.00    -0.019 C 
ATOM      3  C   UNL     1       9.432   2.370   2.791  0.00  0.00    +0.010 C 
ATOM      4  C   UNL     1      10.755   3.045   2.433  0.00  0.00    +0.032 C 
ATOM      5  C   UNL     1      10.507   4.543   2.239  0.00  0.00    +0.123 C 
ATOM      6  C   UNL     1       9.530   4.733   1.080  0.00  0.00    +0.021 C 
ATOM      7  C   UNL     1       8.195   4.049   1.391  0.00  0.00    +0.011 C 
ATOM      8  C   UNL     1       7.302   4.207   0.145  0.00  0.00    +0.049 C 
ATOM      9  C   UNL     1       6.147   3.275   0.256  0.00  0.00    +0.015 A 
ATOM     10  C   UNL     1       6.002   2.230   1.110  0.00  0.00    +0.058 A 
ATOM     11  N   UNL     1       4.864   1.548   1.010  0.00  0.00    -0.229 NA
ATOM     12  C   UNL     1       3.935   1.858   0.130  0.00  0.00    +0.165 A 
ATOM     13  S   UNL     1       4.635   3.234  -0.669  0.00  0.00    -0.057 S 
ATOM     14  N   UNL     1       2.707   1.247  -0.098  0.00  0.00    -0.264 N 
ATOM     15  C   UNL     1       1.884   1.723  -1.052  0.00  0.00    +0.222 C 
ATOM     16  O   UNL     1       2.214   2.685  -1.713  0.00  0.00    -0.275 OA
ATOM     17  C   UNL     1       7.084   1.917   2.123  0.00  0.00    +0.054 C 
ATOM     18  C   UNL     1       9.294   6.229   0.862  0.00  0.00    +0.016 C 
ATOM     19  H   UNL     1       2.443   0.478   0.431  0.00  0.00    +0.157 HD
ENDROOT
BRANCH  15  20
ATOM     20  C   UNL     1       0.553   1.061  -1.299  0.00  0.00    +0.075 C 
ATOM     21  C   UNL     1      -0.541   1.486  -0.305  0.00  0.00    +0.013 C 
ATOM     22  C   UNL     1      -0.871   2.629  -1.281  0.00  0.00    +0.001 C 
ATOM     23  C   UNL     1      -0.283   1.745  -2.393  0.00  0.00    +0.013 C 
ENDBRANCH  15  20
BRANCH   5  24
ATOM     24  O   UNL     1      11.741   5.198   1.937  0.00  0.00    -0.391 OA
ATOM     25  H   UNL     1      12.409   5.117   2.631  0.00  0.00    +0.210 HD
ENDBRANCH   5  24
BRANCH  17  26
ATOM     26  C   UNL     1       7.258   0.399   2.205  0.00  0.00    +0.106 C 
BRANCH  26  27
ATOM     27  C   UNL     1       6.034  -0.214   2.837  0.00  0.00    +0.216 C 
ATOM     28  O   UNL     1       5.114   0.494   3.187  0.00  0.00    -0.276 OA
ATOM     29  N   UNL     1       5.963  -1.548   3.013  0.00  0.00    -0.301 N 
ATOM     30  C   UNL     1       7.068  -2.419   2.588  0.00  0.00    +0.108 C 
ATOM     31  C   UNL     1       7.493  -3.286   3.783  0.00  0.00    +0.019 C 
ATOM     32  C   UNL     1       6.272  -4.037   4.321  0.00  0.00    +0.003 C 
ATOM     33  C   UNL     1       5.225  -3.031   4.805  0.00  0.00    +0.019 C 
ATOM     34  C   UNL     1       4.777  -2.160   3.627  0.00  0.00    +0.108 C 
ENDBRANCH  26  27
ENDBRANCH  17  26
BRANCH   6  35
ATOM     35  C   UNL     1      10.127   4.124  -0.191  0.00  0.00    +0.165 C 
BRANCH  35  36
ATOM     36  O   UNL     1      11.288   4.864  -0.573  0.00  0.00    -0.394 OA
ATOM     37  H   UNL     1      11.719   4.533  -1.373  0.00  0.00    +0.209 HD
ENDBRANCH  35  36
ENDBRANCH   6  35
TORSDOF 6
