REMARK  Name = ZINC37060411
REMARK  5 active torsions:
REMARK  status: ('A' for Active; 'I' for Inactive)
REMARK    1  A    between atoms: C_1  and  C_2
REMARK    2  A    between atoms: C_2  and  C_4
REMARK    3  A    between atoms: C_2  and  N_12
REMARK    4  A    between atoms: N_12  and  C_13
REMARK    5  A    between atoms: C_15  and  N_20
REMARK                            x       y       z     vdW  Elec       q    Type
REMARK                         _______ _______ _______ _____ _____    ______ ____
ROOT
ATOM      1  N   UNL     1       0.688  -0.476  -1.203  0.00  0.00    -0.335 N 
ATOM      2  H   UNL     1       0.175  -0.710  -1.993  0.00  0.00    +0.147 HD
ENDROOT
BRANCH   1   3
ATOM      3  C   UNL     1       2.082  -0.591  -1.215  0.00  0.00    +0.065 A 
ATOM      4  C   UNL     1       2.816  -0.263  -0.084  0.00  0.00    +0.058 A 
ATOM      5  C   UNL     1       4.193  -0.378  -0.099  0.00  0.00    +0.128 A 
ATOM      6  C   UNL     1       4.840  -0.819  -1.238  0.00  0.00    +0.035 A 
ATOM      7  C   UNL     1       4.113  -1.146  -2.368  0.00  0.00    +0.042 A 
ATOM      8  C   UNL     1       2.734  -1.040  -2.359  0.00  0.00    +0.144 A 
ATOM      9  F   UNL     1       2.023  -1.365  -3.460  0.00  0.00    -0.204 F 
BRANCH   5  10
ATOM     10  N   UNL     1       4.977  -0.028   1.107  0.00  0.00    +0.056 N 
ATOM     11  O   UNL     1       4.412   0.358   2.104  0.00  0.00    -0.126 OA
ATOM     12  O   UNL     1       6.181  -0.128   1.095  0.00  0.00    -0.126 OA
ENDBRANCH   5  10
ENDBRANCH   1   3
BRANCH   1  14
ATOM     13  C   UNL     1      -0.019   1.526   0.010  0.00  0.00    +0.033 C 
ATOM     14  C   UNL     1       0.002  -0.004   0.002  0.00  0.00    +0.098 C 
BRANCH  14  15
ATOM     15  C   UNL     1      -1.412  -0.526   0.013  0.00  0.00    -0.026 A 
ATOM     16  C   UNL     1      -2.141  -0.569  -1.161  0.00  0.00    +0.007 A 
ATOM     17  C   UNL     1      -3.438  -1.046  -1.153  0.00  0.00    +0.022 A 
ATOM     18  C   UNL     1      -4.007  -1.482   0.031  0.00  0.00    +0.059 A 
ATOM     19  C   UNL     1      -3.276  -1.440   1.206  0.00  0.00    +0.060 A 
ATOM     20  C   UNL     1      -1.976  -0.966   1.195  0.00  0.00    +0.027 A 
ATOM     21 CL   UNL     1      -3.989  -1.986   2.692  0.00  0.00    -0.082 Cl
ATOM     22 CL   UNL     1      -5.636  -2.082   0.042  0.00  0.00    -0.082 Cl
ENDBRANCH  14  15
ENDBRANCH   1  14
TORSDOF 4
