REMARK  Name = ZINC09007811
REMARK  10 active torsions:
REMARK  status: ('A' for Active; 'I' for Inactive)
REMARK    1  A    between atoms: C_1  and  C_2
REMARK    2  A    between atoms: C_2  and  O_3
REMARK    3  A    between atoms: O_3  and  C_4
REMARK    4  A    between atoms: C_4  and  C_6
REMARK    5  A    between atoms: C_11  and  N_12
REMARK    6  A    between atoms: C_11  and  N_56
REMARK    7  A    between atoms: C_16  and  C_17
REMARK    8  A    between atoms: C_20  and  N_23
REMARK    9  A    between atoms: N_23  and  C_24
REMARK   10  A    between atoms: N_23  and  C_25
REMARK                            x       y       z     vdW  Elec       q    Type
REMARK                         _______ _______ _______ _____ _____    ______ ____
ROOT
ATOM      1  N   UNL     1       2.091   8.723  -2.692  0.00  0.00    -0.272 N 
ATOM      2  C   UNL     1       0.880   8.804  -3.217  0.00  0.00    +0.257 C 
ATOM      3  O   UNL     1      -0.113   8.910  -2.521  0.00  0.00    -0.269 OA
ATOM      4  C   UNL     1       0.793   8.761  -4.690  0.00  0.00    +0.077 C 
ATOM      5  C   UNL     1      -0.299   8.822  -5.494  0.00  0.00    +0.028 C 
ATOM      6  S   UNL     1       2.520   8.604  -5.123  0.00  0.00    -0.061 S 
ATOM      7  C   UNL     1       3.189   8.612  -3.467  0.00  0.00    +0.119 C 
ATOM      8  S   UNL     1       4.827   8.502  -2.981  0.00  0.00    -0.027 S 
ENDROOT
BRANCH   5   9
ATOM      9  C   UNL     1      -1.645   8.768  -4.911  0.00  0.00    -0.024 A 
ATOM     10  C   UNL     1      -1.910   7.912  -3.834  0.00  0.00    +0.010 A 
ATOM     11  C   UNL     1      -3.167   7.869  -3.288  0.00  0.00    +0.023 A 
ATOM     12  C   UNL     1      -4.183   8.665  -3.811  0.00  0.00    +0.029 A 
ATOM     13  C   UNL     1      -3.925   9.513  -4.885  0.00  0.00    +0.023 A 
ATOM     14  C   UNL     1      -2.670   9.567  -5.433  0.00  0.00    +0.010 A 
BRANCH  12  15
ATOM     15  N   UNL     1      -5.459   8.614  -3.257  0.00  0.00    -0.336 N 
ATOM     16  C   UNL     1      -6.529   9.451  -3.804  0.00  0.00    +0.129 C 
ATOM     17  C   UNL     1      -5.732   7.723  -2.127  0.00  0.00    +0.129 C 
ENDBRANCH  12  15
ENDBRANCH   5   9
BRANCH   1  18
ATOM     18  C   UNL     1       2.243   8.762  -1.235  0.00  0.00    +0.039 C 
BRANCH  18  24
ATOM     19  C   UNL     1       1.498   5.315   1.183  0.00  0.00    +0.094 C 
ATOM     20  C   UNL     1       0.766   5.471  -0.153  0.00  0.00    -0.004 C 
ATOM     21  C   UNL     1       0.790   6.942  -0.574  0.00  0.00    -0.076 C 
ATOM     22  C   UNL     1       2.889   7.300   0.583  0.00  0.00    -0.076 C 
ATOM     23  C   UNL     1       2.930   5.839   1.037  0.00  0.00    -0.004 C 
ATOM     24  N   UNL     1       2.195   7.378  -0.720  0.00  0.00    +0.390 N 
ATOM     25  H   UNL     1       2.669   6.757  -1.387  0.00  0.00    -0.080 HD
BRANCH  19  26
ATOM     26  C   UNL     1       1.532   3.860   1.572  0.00  0.00    +0.310 C 
ATOM     27  O   UNL     1       2.591   3.298   1.721  0.00  0.00    -0.251 OA
BRANCH  26  28
ATOM     28  O   UNL     1       0.384   3.187   1.754  0.00  0.00    -0.465 OA
BRANCH  28  30
ATOM     29  C   UNL     1      -0.908   1.194   2.289  0.00  0.00    +0.048 C 
ATOM     30  C   UNL     1       0.492   1.788   2.128  0.00  0.00    +0.229 C 
ENDBRANCH  28  30
ENDBRANCH  26  28
ENDBRANCH  19  26
ENDBRANCH  18  24
ENDBRANCH   1  18
TORSDOF 7
