REMARK  Name = ZINC42293078
REMARK  2 active torsions:
REMARK  status: ('A' for Active; 'I' for Inactive)
REMARK    1  A    between atoms: N_11  and  C_12
REMARK    2  A    between atoms: C_12  and  C_13
REMARK                            x       y       z     vdW  Elec       q    Type
REMARK                         _______ _______ _______ _____ _____    ______ ____
ROOT
ATOM      1  C   UNL     1      -0.019   1.539   0.011  0.00  0.00    +0.004 C 
ATOM      2  C   UNL     1       1.453   1.998  -0.001  0.00  0.00    +0.021 C 
ATOM      3  C   UNL     1       2.299   0.716  -0.017  0.00  0.00    +0.086 C 
ATOM      4  C   UNL     1       1.391  -0.366   0.600  0.00  0.00    +0.135 C 
ATOM      5  C   UNL     1       0.002  -0.004   0.002  0.00  0.00    +0.033 C 
ATOM      6  O   UNL     1       1.304  -0.193   2.017  0.00  0.00    -0.374 OA
ATOM      7  C   UNL     1       2.556  -0.123   2.697  0.00  0.00    +0.175 C 
ATOM      8  C   UNL     1       3.341   1.074   2.149  0.00  0.00    +0.113 C 
ATOM      9  N   UNL     1       3.532   0.870   0.738  0.00  0.00    -0.289 NA
ENDROOT
BRANCH   9  10
ATOM     10  C   UNL     1       4.356   1.954   0.186  0.00  0.00    +0.144 C 
BRANCH  10  11
ATOM     11  C   UNL     1       5.719   1.926   0.827  0.00  0.00    +0.104 A 
ATOM     12  C   UNL     1       6.005   2.612   1.965  0.00  0.00    +0.122 A 
ATOM     13  S   UNL     1       7.620   2.223   2.210  0.00  0.00    +0.049 S 
ATOM     14  N   UNL     1       7.858   1.260   0.932  0.00  0.00    -0.109 NA
ATOM     15  N   UNL     1       6.720   1.232   0.330  0.00  0.00    -0.143 NA
ATOM     16 CL   UNL     1       4.969   3.628   2.919  0.00  0.00    -0.072 Cl
ENDBRANCH  10  11
ENDBRANCH   9  10
TORSDOF 2
