REMARK  Name = ZINC39721976
REMARK  12 active torsions:
REMARK  status: ('A' for Active; 'I' for Inactive)
REMARK    1  A    between atoms: C_1  and  C_2
REMARK    2  A    between atoms: C_2  and  C_3
REMARK    3  A    between atoms: C_3  and  C_4
REMARK    4  A    between atoms: C_4  and  C_5
REMARK    5  A    between atoms: N_13  and  C_14
REMARK    6  A    between atoms: C_14  and  C_16
REMARK    7  A    between atoms: C_21  and  N_22
REMARK    8  A    between atoms: N_22  and  S_23
REMARK    9  A    between atoms: S_23  and  C_26
REMARK   10  A    between atoms: C_29  and  C_32
REMARK   11  A    between atoms: N_33  and  C_34
REMARK   12  A    between atoms: C_34  and  C_35
REMARK                            x       y       z     vdW  Elec       q    Type
REMARK                         _______ _______ _______ _____ _____    ______ ____
ROOT
ATOM      1  C   UNL     1      -8.622  -4.506  -3.100  0.00  0.00    +0.271 C 
ATOM      2  O   UNL     1      -7.828  -4.367  -4.014  0.00  0.00    -0.268 OA
ENDROOT
BRANCH   1  11
ATOM      3  C   UNL     1      -2.429  -2.440  -0.550  0.00  0.00    -0.046 A 
ATOM      4  C   UNL     1      -3.039  -2.493   0.692  0.00  0.00    +0.006 A 
ATOM      5  C   UNL     1      -4.357  -2.864   0.823  0.00  0.00    +0.027 A 
ATOM      6  C   UNL     1      -5.119  -3.200  -0.305  0.00  0.00    +0.058 A 
ATOM      7  C   UNL     1      -4.477  -3.139  -1.550  0.00  0.00    +0.039 A 
ATOM      8  C   UNL     1      -3.161  -2.762  -1.680  0.00  0.00    +0.020 A 
ATOM      9  S   UNL     1      -5.750  -3.625  -2.685  0.00  0.00    -0.052 S 
ATOM     10  C   UNL     1      -6.996  -3.878  -1.586  0.00  0.00    +0.168 A 
ATOM     11  N   UNL     1      -8.240  -4.267  -1.840  0.00  0.00    -0.152 NA
ATOM     12  N   UNL     1      -6.442  -3.594  -0.378  0.00  0.00    -0.310 N 
BRANCH   3  13
ATOM     13  C   UNL     1      -0.984  -2.031  -0.672  0.00  0.00    +0.035 C 
BRANCH  13  14
ATOM     14  C   UNL     1      -0.896  -0.513  -0.845  0.00  0.00    +0.004 C 
BRANCH  14  16
ATOM     15  C   UNL     1       0.659   1.420  -1.141  0.00  0.00    +0.004 C 
ATOM     16  C   UNL     1       0.571  -0.098  -0.968  0.00  0.00    -0.003 C 
ENDBRANCH  14  16
ENDBRANCH  13  14
ENDBRANCH   3  13
BRANCH  12  17
ATOM     17  C   UNL     1      -7.245  -3.705   0.843  0.00  0.00    +0.212 C 
BRANCH  17  18
ATOM     18  C   UNL     1      -7.901  -2.416   1.117  0.00  0.00    -0.084 C 
ATOM     19  C   UNL     1      -8.424  -1.388   1.336  0.00  0.00    +0.005 C 
ENDBRANCH  17  18
ENDBRANCH  12  17
ENDBRANCH   1  11
BRANCH   1  20
ATOM     20  C   UNL     1     -10.006  -4.940  -3.383  0.00  0.00    +0.061 A 
ATOM     21  C   UNL     1     -10.920  -5.096  -2.340  0.00  0.00    +0.015 A 
ATOM     22  C   UNL     1     -12.209  -5.500  -2.610  0.00  0.00    +0.001 A 
ATOM     23  C   UNL     1     -12.605  -5.754  -3.913  0.00  0.00    +0.002 A 
ATOM     24  C   UNL     1     -11.712  -5.605  -4.955  0.00  0.00    +0.025 A 
ATOM     25  C   UNL     1     -10.410  -5.192  -4.702  0.00  0.00    +0.060 A 
BRANCH  25  26
ATOM     26  N   UNL     1      -9.511  -5.034  -5.750  0.00  0.00    -0.216 N 
ATOM     27  H   UNL     1      -8.576  -5.257  -5.625  0.00  0.00    +0.174 HD
BRANCH  26  28
ATOM     28  S   UNL     1     -10.037  -4.465  -7.214  0.00  0.00    +0.072 S 
ATOM     29  O   UNL     1      -8.881  -4.293  -8.022  0.00  0.00    -0.150 OA
ATOM     30  O   UNL     1     -11.123  -5.295  -7.605  0.00  0.00    -0.150 OA
BRANCH  28  31
ATOM     31  C   UNL     1     -10.705  -2.858  -6.939  0.00  0.00    +0.109 A 
ATOM     32  C   UNL     1     -12.043  -2.709  -6.625  0.00  0.00    +0.029 A 
ATOM     33  C   UNL     1     -12.566  -1.448  -6.410  0.00  0.00    +0.005 A 
ATOM     34  C   UNL     1     -11.752  -0.336  -6.507  0.00  0.00    -0.050 A 
ATOM     35  C   UNL     1     -10.413  -0.485  -6.820  0.00  0.00    +0.005 A 
ATOM     36  C   UNL     1      -9.889  -1.746  -7.032  0.00  0.00    +0.029 A 
ATOM     37  C   UNL     1     -12.322   1.039  -6.273  0.00  0.00    +0.044 C 
ENDBRANCH  28  31
ENDBRANCH  26  28
ENDBRANCH  25  26
ENDBRANCH   1  20
TORSDOF 10
