REMARK  Name = ZINC19338458
REMARK  8 active torsions:
REMARK  status: ('A' for Active; 'I' for Inactive)
REMARK    1  A    between atoms: C_1  and  C_2
REMARK    2  A    between atoms: C_2  and  C_21
REMARK    3  A    between atoms: N_3  and  N_4
REMARK    4  A    between atoms: C_5  and  C_7
REMARK    5  A    between atoms: C_10  and  O_13
REMARK    6  A    between atoms: O_13  and  C_14
REMARK    7  A    between atoms: C_14  and  C_15
REMARK    8  A    between atoms: C_25  and  N_27
REMARK                            x       y       z     vdW  Elec       q    Type
REMARK                         _______ _______ _______ _____ _____    ______ ____
ROOT
ATOM      1  N   UNL     1       9.682  -4.044  -1.132  0.00  0.00    -0.203 N 
ATOM      2  C   UNL     1       8.954  -3.638  -2.191  0.00  0.00    +0.263 C 
ATOM      3  O   UNL     1       9.349  -3.858  -3.320  0.00  0.00    -0.268 OA
ATOM      4  H   UNL     1       9.325  -3.845  -0.110  0.00  0.00    +0.178 HD
ENDROOT
BRANCH   2   5
ATOM      5  C   UNL     1       7.679  -2.926  -1.980  0.00  0.00    +0.039 A 
ATOM      6  C   UNL     1       6.923  -2.503  -3.078  0.00  0.00    +0.016 A 
ATOM      7  C   UNL     1       5.734  -1.839  -2.877  0.00  0.00    +0.046 A 
ATOM      8  C   UNL     1       5.285  -1.588  -1.585  0.00  0.00    +0.121 A 
ATOM      9  C   UNL     1       6.037  -2.001  -0.492  0.00  0.00    +0.046 A 
ATOM     10  C   UNL     1       7.225  -2.671  -0.684  0.00  0.00    +0.016 A 
BRANCH   8  11
ATOM     11  O   UNL     1       4.113  -0.932  -1.392  0.00  0.00    -0.487 OA
BRANCH  11  12
ATOM     12  C   UNL     1       3.711  -0.707  -0.039  0.00  0.00    +0.264 C 
BRANCH  12  13
ATOM     13  C   UNL     1       2.396   0.029  -0.022  0.00  0.00    -0.010 A 
ATOM     14  C   UNL     1       1.208  -0.679  -0.014  0.00  0.00    +0.007 A 
ATOM     15  C   UNL     1       0.002  -0.004   0.002  0.00  0.00    +0.000 A 
ATOM     16  C   UNL     1      -0.017   1.378   0.010  0.00  0.00    +0.000 A 
ATOM     17  C   UNL     1       1.171   2.086   0.002  0.00  0.00    +0.000 A 
ATOM     18  C   UNL     1       2.377   1.411  -0.014  0.00  0.00    +0.007 A 
ENDBRANCH  12  13
ENDBRANCH  11  12
ENDBRANCH   8  11
ENDBRANCH   2   5
BRANCH   1  21
ATOM     19  C   UNL     1      11.104  -4.839   1.088  0.00  0.00    +0.068 C 
ATOM     20  C   UNL     1      11.593  -5.112  -0.311  0.00  0.00    +0.063 C 
ATOM     21  N   UNL     1      10.893  -4.721  -1.331  0.00  0.00    -0.184 NA
BRANCH  20  22
ATOM     22  C   UNL     1      12.868  -5.824  -0.522  0.00  0.00    -0.001 A 
ATOM     23  C   UNL     1      13.624  -6.246   0.575  0.00  0.00    +0.010 A 
ATOM     24  C   UNL     1      14.816  -6.912   0.374  0.00  0.00    +0.003 A 
ATOM     25  C   UNL     1      15.265  -7.164  -0.909  0.00  0.00    +0.028 A 
ATOM     26  C   UNL     1      14.521  -6.747  -2.006  0.00  0.00    +0.069 A 
ATOM     27  C   UNL     1      13.320  -6.083  -1.817  0.00  0.00    +0.037 A 
BRANCH  26  28
ATOM     28  N   UNL     1      14.983  -7.005  -3.305  0.00  0.00    -0.200 N 
ATOM     29  C   UNL     1      16.071  -7.721  -3.662  0.00  0.00    +0.250 A 
ATOM     30  N   UNL     1      16.132  -7.710  -4.968  0.00  0.00    -0.116 NA
ATOM     31  N   UNL     1      15.156  -7.037  -5.461  0.00  0.00    -0.023 NA
ATOM     32  N   UNL     1      14.408  -6.579  -4.515  0.00  0.00    -0.039 NA
ENDBRANCH  26  28
ENDBRANCH  20  22
ENDBRANCH   1  21
TORSDOF 7
