REMARK  Name = ZINC35897037
REMARK  12 active torsions:
REMARK  status: ('A' for Active; 'I' for Inactive)
REMARK    1  A    between atoms: C_1  and  C_2
REMARK    2  A    between atoms: C_6  and  C_8
REMARK    3  A    between atoms: C_12  and  O_26
REMARK    4  A    between atoms: C_19  and  C_21
REMARK    5  A    between atoms: O_26  and  C_27
REMARK    6  A    between atoms: C_27  and  C_29
REMARK    7  A    between atoms: C_27  and  C_30
REMARK    8  A    between atoms: N_32  and  C_33
REMARK    9  A    between atoms: C_33  and  C_34
REMARK   10  A    between atoms: C_34  and  N_35
REMARK   11  A    between atoms: N_35  and  C_36
REMARK   12  A    between atoms: N_35  and  C_37
REMARK                            x       y       z     vdW  Elec       q    Type
REMARK                         _______ _______ _______ _____ _____    ______ ____
ROOT
ATOM      1  C   UNL     1       0.132  -2.695   2.541  0.00  0.00    +0.137 C 
ATOM      2  C   UNL     1       1.483  -3.308   2.813  0.00  0.00    -0.016 A 
ATOM      3  C   UNL     1       2.604  -2.514   2.616  0.00  0.00    +0.051 A 
ATOM      4  C   UNL     1       3.871  -3.016   2.858  0.00  0.00    +0.122 A 
ATOM      5  C   UNL     1       4.017  -4.323   3.303  0.00  0.00    +0.046 A 
ATOM      6  C   UNL     1       2.902  -5.109   3.493  0.00  0.00    +0.007 A 
ATOM      7  C   UNL     1       1.630  -4.607   3.244  0.00  0.00    -0.040 A 
ATOM      8  C   UNL     1       0.462  -5.536   3.450  0.00  0.00    +0.054 C 
ATOM      9  C   UNL     1      -0.838  -4.748   3.611  0.00  0.00    +0.113 C 
ATOM     10  N   UNL     1      -0.893  -3.744   2.537  0.00  0.00    -0.290 N 
ATOM     11  C   UNL     1      -1.849  -3.785   1.587  0.00  0.00    +0.219 C 
ATOM     12  O   UNL     1      -1.840  -2.978   0.682  0.00  0.00    -0.275 OA
ENDROOT
BRANCH   1  18
ATOM     13  C   UNL     1      -0.562   1.408  -0.239  0.00  0.00    +0.044 C 
ATOM     14  C   UNL     1      -0.179  -0.046  -0.130  0.00  0.00    -0.050 A 
ATOM     15  C   UNL     1       0.191  -0.749  -1.261  0.00  0.00    +0.003 A 
ATOM     16  C   UNL     1       0.542  -2.083  -1.161  0.00  0.00    +0.001 A 
ATOM     17  C   UNL     1       0.523  -2.712   0.069  0.00  0.00    +0.006 A 
ATOM     18  C   UNL     1       0.153  -2.008   1.200  0.00  0.00    -0.022 A 
ATOM     19  C   UNL     1      -0.193  -0.674   1.101  0.00  0.00    +0.009 A 
ENDBRANCH   1  18
BRANCH  11  20
ATOM     20  C   UNL     1      -2.929  -4.835   1.651  0.00  0.00    +0.075 C 
ATOM     21  C   UNL     1      -2.307  -6.241   1.524  0.00  0.00    +0.013 C 
ATOM     22  C   UNL     1      -3.334  -7.037   0.682  0.00  0.00    +0.001 C 
ATOM     23  C   UNL     1      -3.822  -5.985  -0.345  0.00  0.00    +0.001 C 
ATOM     24  C   UNL     1      -3.892  -4.672   0.462  0.00  0.00    +0.013 C 
ENDBRANCH  11  20
BRANCH   4  25
ATOM     25  O   UNL     1       4.966  -2.235   2.662  0.00  0.00    -0.480 OA
BRANCH  25  26
ATOM     26  C   UNL     1       6.243  -2.861   2.797  0.00  0.00    +0.255 C 
ATOM     27  C   UNL     1       6.739  -2.703   4.236  0.00  0.00    +0.062 C 
BRANCH  26  28
ATOM     28  C   UNL     1       7.223  -2.212   1.854  0.00  0.00    +0.253 C 
ATOM     29  O   UNL     1       6.888  -1.245   1.203  0.00  0.00    -0.272 OA
ATOM     30  N   UNL     1       8.471  -2.707   1.734  0.00  0.00    -0.314 N 
ATOM     31  H   UNL     1       8.738  -3.480   2.254  0.00  0.00    +0.149 HD
BRANCH  30  32
ATOM     32  C   UNL     1       9.424  -2.076   0.817  0.00  0.00    +0.086 C 
BRANCH  32  33
ATOM     33  C   UNL     1      10.756  -2.826   0.870  0.00  0.00    -0.061 C 
BRANCH  33  34
ATOM     34  N   UNL     1      11.711  -2.193  -0.049  0.00  0.00    +0.377 N 
ATOM     35  C   UNL     1      12.012  -0.833   0.416  0.00  0.00    -0.097 C 
ATOM     36  C   UNL     1      12.950  -2.983  -0.088  0.00  0.00    -0.097 C 
ATOM     37  H   UNL     1      11.310  -2.151  -0.974  0.00  0.00    -0.083 HD
ENDBRANCH  33  34
ENDBRANCH  32  33
ENDBRANCH  30  32
ENDBRANCH  26  28
ENDBRANCH  25  26
ENDBRANCH   4  25
TORSDOF 8
