REMARK  Name = ZINC21218545
REMARK  6 active torsions:
REMARK  status: ('A' for Active; 'I' for Inactive)
REMARK    1  A    between atoms: C_1  and  C_2
REMARK    2  A    between atoms: C_2  and  C_3
REMARK    3  A    between atoms: C_2  and  C_4
REMARK    4  A    between atoms: C_2  and  C_5
REMARK    5  A    between atoms: C_8  and  C_11
REMARK    6  A    between atoms: C_16  and  C_22
REMARK                            x       y       z     vdW  Elec       q    Type
REMARK                         _______ _______ _______ _____ _____    ______ ____
ROOT
ATOM      1  C   UNL     1      -0.076   5.774   0.032  0.00  0.00    +0.032 C 
ATOM      2  C   UNL     1      -0.816   6.284  -1.207  0.00  0.00    +0.059 C 
ATOM      3  C   UNL     1      -0.880   7.791  -1.174  0.00  0.00    +0.018 C 
ATOM      4  C   UNL     1      -0.923   8.456  -0.001  0.00  0.00    +0.020 C 
ATOM      5  C   UNL     1      -0.992   9.965   0.008  0.00  0.00    +0.065 C 
ATOM      6  C   UNL     1      -1.823  10.442  -1.185  0.00  0.00    +0.109 C 
ATOM      7  C   UNL     1      -1.345   9.740  -2.431  0.00  0.00    +0.218 C 
ATOM      8  O   UNL     1      -1.369  10.318  -3.497  0.00  0.00    -0.275 OA
ATOM      9  N   UNL     1      -0.894   8.476  -2.362  0.00  0.00    -0.289 N 
ATOM     10  C   UNL     1      -0.902   7.774   1.228  0.00  0.00    +0.162 C 
ATOM     11  O   UNL     1      -0.956   8.406   2.264  0.00  0.00    -0.292 OA
ATOM     12  C   UNL     1      -0.812   6.272   1.280  0.00  0.00    +0.088 C 
ATOM     13  H   UNL     1      -0.531   7.991  -3.281  0.00  0.00    +0.155 HD
ENDROOT
BRANCH   5  14
ATOM     14  C   UNL     1       0.400  10.532  -0.090  0.00  0.00    -0.001 A 
ATOM     15  C   UNL     1       1.193  10.235  -1.183  0.00  0.00    +0.045 A 
ATOM     16  C   UNL     1       2.471  10.759  -1.274  0.00  0.00    +0.124 A 
ATOM     17  C   UNL     1       2.958  11.575  -0.267  0.00  0.00    +0.041 A 
ATOM     18  C   UNL     1       2.167  11.869   0.828  0.00  0.00    +0.041 A 
ATOM     19  C   UNL     1       0.888  11.347   0.917  0.00  0.00    +0.127 A 
ATOM     20  F   UNL     1       0.115  11.634   1.988  0.00  0.00    -0.205 F 
ATOM     21  F   UNL     1       3.244  10.471  -2.343  0.00  0.00    -0.205 F 
ENDBRANCH   5  14
BRANCH   1  25
ATOM     22  C   UNL     1      -0.018   1.503   0.010  0.00  0.00    -0.042 A 
ATOM     23  C   UNL     1      -1.225   2.178   0.020  0.00  0.00    +0.004 A 
ATOM     24  C   UNL     1      -1.244   3.560   0.032  0.00  0.00    +0.004 A 
ATOM     25  C   UNL     1      -0.056   4.267   0.025  0.00  0.00    -0.043 A 
ATOM     26  C   UNL     1       1.151   3.592   0.010  0.00  0.00    +0.004 A 
ATOM     27  C   UNL     1       1.169   2.210   0.003  0.00  0.00    +0.004 A 
BRANCH  22  29
ATOM     28  C   UNL     1       0.742  -0.511   1.242  0.00  0.00    +0.015 C 
ATOM     29  C   UNL     1       0.002  -0.004   0.002  0.00  0.00    -0.013 C 
ATOM     30  C   UNL     1      -1.433  -0.534   0.013  0.00  0.00    +0.015 C 
ATOM     31  C   UNL     1       0.718  -0.497  -1.257  0.00  0.00    +0.015 C 
ENDBRANCH  22  29
ENDBRANCH   1  25
TORSDOF 3
