REMARK  Name = ZINC22347298
REMARK  11 active torsions:
REMARK  status: ('A' for Active; 'I' for Inactive)
REMARK    1  A    between atoms: C_1  and  C_2
REMARK    2  A    between atoms: C_5  and  S_8
REMARK    3  A    between atoms: S_8  and  N_11
REMARK    4  A    between atoms: N_11  and  C_12
REMARK    5  A    between atoms: N_11  and  C_29
REMARK    6  A    between atoms: C_12  and  C_13
REMARK    7  A    between atoms: N_15  and  C_16
REMARK    8  A    between atoms: C_19  and  C_27
REMARK    9  A    between atoms: C_19  and  C_28
REMARK   10  A    between atoms: C_33  and  C_36
REMARK   11  A    between atoms: C_34  and  C_35
REMARK                            x       y       z     vdW  Elec       q    Type
REMARK                         _______ _______ _______ _____ _____    ______ ____
ROOT
ATOM      1  N   UNL     1      -3.576   1.853  -1.019  0.00  0.00    -0.194 N 
ENDROOT
BRANCH   1   2
ATOM      2  C   UNL     1      -3.882   2.111  -2.357  0.00  0.00    +0.055 A 
ATOM      3  C   UNL     1      -3.111   3.006  -3.088  0.00  0.00    +0.025 A 
ATOM      4  C   UNL     1      -3.414   3.254  -4.412  0.00  0.00    +0.002 A 
ATOM      5  C   UNL     1      -4.490   2.621  -5.008  0.00  0.00    +0.004 A 
ATOM      6  C   UNL     1      -5.263   1.734  -4.282  0.00  0.00    -0.046 A 
ATOM      7  C   UNL     1      -4.962   1.476  -2.958  0.00  0.00    -0.025 A 
ATOM      8  C   UNL     1      -5.804   0.508  -2.168  0.00  0.00    +0.046 C 
ATOM      9  C   UNL     1      -6.434   1.047  -4.935  0.00  0.00    +0.044 C 
ENDBRANCH   1   2
BRANCH   1  10
ATOM     10  S   UNL     1      -4.368   2.670   0.184  0.00  0.00    +0.075 S 
ATOM     11  O   UNL     1      -5.654   2.995  -0.325  0.00  0.00    -0.150 OA
ATOM     12  O   UNL     1      -4.189   1.914   1.374  0.00  0.00    -0.150 OA
BRANCH  10  17
ATOM     13  C   UNL     1      -1.465   7.895   1.002  0.00  0.00    +0.044 C 
ATOM     14  C   UNL     1      -2.190   6.590   0.799  0.00  0.00    -0.050 A 
ATOM     15  C   UNL     1      -3.256   6.522  -0.079  0.00  0.00    +0.005 A 
ATOM     16  C   UNL     1      -3.921   5.324  -0.267  0.00  0.00    +0.029 A 
ATOM     17  C   UNL     1      -3.520   4.196   0.423  0.00  0.00    +0.109 A 
ATOM     18  C   UNL     1      -2.458   4.265   1.305  0.00  0.00    +0.029 A 
ATOM     19  C   UNL     1      -1.790   5.462   1.489  0.00  0.00    +0.005 A 
ENDBRANCH  10  17
ENDBRANCH   1  10
BRANCH   1  20
ATOM     20  C   UNL     1      -2.554   0.860  -0.680  0.00  0.00    +0.227 C 
BRANCH  20  21
ATOM     21  C   UNL     1      -1.193   1.505  -0.722  0.00  0.00    +0.233 C 
ATOM     22  O   UNL     1      -1.093   2.698  -0.916  0.00  0.00    -0.274 OA
ATOM     23  N   UNL     1      -0.086   0.757  -0.543  0.00  0.00    -0.307 N 
ATOM     24  H   UNL     1      -0.172  -0.334  -0.436  0.00  0.00    +0.149 HD
BRANCH  23  25
ATOM     25  C   UNL     1       1.230   1.397  -0.490  0.00  0.00    +0.110 C 
ATOM     26  C   UNL     1       2.274   0.469  -1.118  0.00  0.00    +0.074 C 
ATOM     27  C   UNL     1       3.667   1.021  -0.791  0.00  0.00    +0.107 C 
ATOM     28  O   UNL     1       3.859   0.953   0.623  0.00  0.00    -0.486 OA
ATOM     29  C   UNL     1       2.876   1.444   1.421  0.00  0.00    +0.126 A 
ATOM     30  C   UNL     1       1.597   1.675   0.946  0.00  0.00    +0.015 A 
ATOM     31  C   UNL     1       0.624   2.171   1.798  0.00  0.00    +0.009 A 
ATOM     32  C   UNL     1       0.925   2.439   3.119  0.00  0.00    +0.001 A 
ATOM     33  C   UNL     1       2.203   2.213   3.596  0.00  0.00    +0.004 A 
ATOM     34  C   UNL     1       3.176   1.717   2.752  0.00  0.00    +0.046 A 
ATOM     35  C   UNL     1       4.733   0.181  -1.497  0.00  0.00    +0.055 C 
ATOM     36  C   UNL     1       3.767   2.476  -1.255  0.00  0.00    +0.055 C 
ENDBRANCH  23  25
ENDBRANCH  20  21
ENDBRANCH   1  20
TORSDOF 6
