REMARK  Name = ZINC49509480
REMARK  11 active torsions:
REMARK  status: ('A' for Active; 'I' for Inactive)
REMARK    1  A    between atoms: C_1  and  N_2
REMARK    2  A    between atoms: N_2  and  C_3
REMARK    3  A    between atoms: N_2  and  C_4
REMARK    4  A    between atoms: C_7  and  C_10
REMARK    5  A    between atoms: C_10  and  C_11
REMARK    6  A    between atoms: C_11  and  C_12
REMARK    7  A    between atoms: C_12  and  N_13
REMARK    8  A    between atoms: C_14  and  C_16
REMARK    9  A    between atoms: N_18  and  C_19
REMARK   10  A    between atoms: N_25  and  S_29
REMARK   11  A    between atoms: S_29  and  C_32
REMARK                            x       y       z     vdW  Elec       q    Type
REMARK                         _______ _______ _______ _____ _____    ______ ____
ROOT
ATOM      1  C   UNL     1      -7.634  -6.039   4.658  0.00  0.00    +0.303 C 
ATOM      2  O   UNL     1      -6.991  -5.673   5.620  0.00  0.00    -0.265 OA
ATOM      3  N   UNL     1      -8.892  -6.495   4.822  0.00  0.00    -0.278 N 
ATOM      4  H   UNL     1      -9.429  -6.724   4.047  0.00  0.00    +0.155 HD
ENDROOT
BRANCH   3   5
ATOM      5  C   UNL     1      -9.421  -6.638   6.107  0.00  0.00    +0.036 A 
ATOM      6  C   UNL     1      -9.086  -5.730   7.104  0.00  0.00    +0.024 A 
ATOM      7  C   UNL     1      -9.609  -5.873   8.373  0.00  0.00    +0.007 A 
ATOM      8  C   UNL     1     -10.470  -6.919   8.664  0.00  0.00    -0.025 A 
ATOM      9  C   UNL     1     -10.809  -7.825   7.670  0.00  0.00    +0.056 A 
ATOM     10  C   UNL     1     -10.288  -7.683   6.390  0.00  0.00    +0.048 A 
ATOM     11  N   UNL     1     -11.684  -8.885   7.934  0.00  0.00    -0.202 N 
ATOM     12  C   UNL     1     -12.004  -9.211   9.331  0.00  0.00    +0.132 C 
ATOM     13  C   UNL     1     -12.285  -7.895  10.067  0.00  0.00    +0.025 C 
ATOM     14  C   UNL     1     -11.015  -7.045  10.062  0.00  0.00    +0.038 C 
BRANCH  11  15
ATOM     15  S   UNL     1     -12.349  -9.757   6.693  0.00  0.00    +0.081 S 
ATOM     16  O   UNL     1     -13.445 -10.475   7.243  0.00  0.00    -0.149 OA
ATOM     17  O   UNL     1     -12.497  -8.860   5.601  0.00  0.00    -0.149 OA
BRANCH  15  18
ATOM     18  C   UNL     1     -11.156 -10.957   6.202  0.00  0.00    +0.146 A 
ATOM     19  C   UNL     1     -10.982 -12.223   6.654  0.00  0.00    +0.036 A 
ATOM     20  C   UNL     1      -9.969 -12.994   6.117  0.00  0.00    +0.010 A 
ATOM     21  C   UNL     1      -9.178 -12.461   5.153  0.00  0.00    +0.047 A 
ATOM     22  S   UNL     1      -9.867 -10.823   4.974  0.00  0.00    -0.077 S 
ENDBRANCH  15  18
ENDBRANCH  11  15
ENDBRANCH   3   5
BRANCH   1  24
ATOM     23  N   UNL     1      -5.774  -5.527   3.129  0.00  0.00    -0.308 N 
ATOM     24  C   UNL     1      -7.032  -5.983   3.293  0.00  0.00    +0.299 C 
ATOM     25  O   UNL     1      -7.675  -6.349   2.330  0.00  0.00    -0.265 OA
ATOM     26  H   UNL     1      -5.260  -5.235   3.898  0.00  0.00    +0.149 HD
BRANCH  23  27
ATOM     27  C   UNL     1      -5.183  -5.473   1.790  0.00  0.00    +0.105 C 
BRANCH  27  28
ATOM     28  C   UNL     1      -3.759  -4.921   1.883  0.00  0.00    +0.023 C 
BRANCH  28  29
ATOM     29  C   UNL     1      -3.142  -4.864   0.484  0.00  0.00    +0.036 C 
BRANCH  29  33
ATOM     30  C   UNL     1       0.836  -3.323   0.742  0.00  0.00    +0.029 A 
ATOM     31  C   UNL     1       0.612  -4.690   0.842  0.00  0.00    +0.023 A 
ATOM     32  C   UNL     1      -0.675  -5.185   0.758  0.00  0.00    +0.005 A 
ATOM     33  C   UNL     1      -1.739  -4.321   0.575  0.00  0.00    -0.047 A 
ATOM     34  C   UNL     1      -1.519  -2.959   0.476  0.00  0.00    +0.005 A 
ATOM     35  C   UNL     1      -0.235  -2.457   0.564  0.00  0.00    +0.023 A 
BRANCH  30  37
ATOM     36  C   UNL     1       2.371  -1.377   0.728  0.00  0.00    +0.129 C 
ATOM     37  N   UNL     1       2.136  -2.820   0.827  0.00  0.00    -0.336 N 
ATOM     38  C   UNL     1       3.265  -3.734   1.014  0.00  0.00    +0.129 C 
ENDBRANCH  30  37
ENDBRANCH  29  33
ENDBRANCH  28  29
ENDBRANCH  27  28
ENDBRANCH  23  27
ENDBRANCH   1  24
TORSDOF 9
