REMARK  Name = ZINC15320429
REMARK  4 active torsions:
REMARK  status: ('A' for Active; 'I' for Inactive)
REMARK    1  A    between atoms: C_1  and  C_2
REMARK    2  A    between atoms: N_10  and  C_13
REMARK    3  A    between atoms: N_28  and  C_31
REMARK    4  A    between atoms: C_31  and  C_32
REMARK                            x       y       z     vdW  Elec       q    Type
REMARK                         _______ _______ _______ _____ _____    ______ ____
ROOT
ATOM      1  C   UNL     1      -0.551   1.734   0.012  0.00  0.00    +0.025 C 
ATOM      2  C   UNL     1      -0.283   0.231  -0.088  0.00  0.00    +0.064 C 
ATOM      3  C   UNL     1      -1.595  -0.562   0.098  0.00  0.00    +0.107 C 
ATOM      4  C   UNL     1      -1.185  -1.825   0.904  0.00  0.00    +0.123 C 
ATOM      5  C   UNL     1      -1.422  -2.954  -0.073  0.00  0.00    +0.233 C 
ATOM      6  O   UNL     1      -1.221  -4.129   0.151  0.00  0.00    -0.274 OA
ATOM      7  N   UNL     1      -1.888  -2.456  -1.224  0.00  0.00    -0.210 N 
ATOM      8  C   UNL     1      -2.035  -1.111  -1.241  0.00  0.00    +0.232 C 
ATOM      9  O   UNL     1      -2.446  -0.448  -2.169  0.00  0.00    -0.274 OA
ATOM     10  C   UNL     1       0.316  -1.651   1.163  0.00  0.00    +0.136 C 
ATOM     11  N   UNL     1       0.594  -0.213   1.028  0.00  0.00    -0.296 NA
ATOM     12  C   UNL     1       0.707  -2.177   2.515  0.00  0.00    +0.004 A 
ATOM     13  C   UNL     1       0.316  -1.873   3.799  0.00  0.00    +0.008 A 
ATOM     14  C   UNL     1       0.872  -2.549   4.871  0.00  0.00    +0.000 A 
ATOM     15  C   UNL     1       1.820  -3.531   4.647  0.00  0.00    +0.002 A 
ATOM     16  C   UNL     1       2.215  -3.840   3.362  0.00  0.00    +0.024 A 
ATOM     17  C   UNL     1       1.660  -3.164   2.278  0.00  0.00    +0.042 A 
ATOM     18  N   UNL     1       1.891  -3.293   0.906  0.00  0.00    -0.265 N 
ATOM     19  C   UNL     1       1.140  -2.440   0.183  0.00  0.00    +0.246 C 
ATOM     20  O   UNL     1       1.131  -2.330  -1.025  0.00  0.00    -0.273 OA
ATOM     21  H   UNL     1       1.565  -0.045   0.813  0.00  0.00    +0.123 HD
ENDROOT
BRANCH   7  22
ATOM     22  C   UNL     1      -2.207  -3.263  -2.325  0.00  0.00    +0.045 A 
ATOM     23  C   UNL     1      -1.450  -3.185  -3.487  0.00  0.00    +0.024 A 
ATOM     24  C   UNL     1      -1.766  -3.981  -4.571  0.00  0.00    +0.003 A 
ATOM     25  C   UNL     1      -2.835  -4.855  -4.500  0.00  0.00    +0.020 A 
ATOM     26  C   UNL     1      -3.591  -4.935  -3.345  0.00  0.00    +0.043 A 
ATOM     27  C   UNL     1      -3.276  -4.145  -2.255  0.00  0.00    +0.044 A 
ATOM     28 CL   UNL     1      -4.933  -6.034  -3.260  0.00  0.00    -0.083 Cl
ENDBRANCH   7  22
BRANCH  18  29
ATOM     29  C   UNL     1       2.839  -4.245   0.323  0.00  0.00    +0.148 C 
BRANCH  29  30
ATOM     30  C   UNL     1       2.135  -5.547   0.041  0.00  0.00    -0.030 A 
ATOM     31  C   UNL     1       2.089  -6.532   1.010  0.00  0.00    +0.008 A 
ATOM     32  C   UNL     1       1.443  -7.726   0.753  0.00  0.00    +0.038 A 
ATOM     33  C   UNL     1       0.841  -7.936  -0.476  0.00  0.00    +0.123 A 
ATOM     34  C   UNL     1       0.887  -6.948  -1.446  0.00  0.00    +0.038 A 
ATOM     35  C   UNL     1       1.529  -5.753  -1.185  0.00  0.00    +0.008 A 
ATOM     36  F   UNL     1       0.209  -9.103  -0.729  0.00  0.00    -0.205 F 
ENDBRANCH  29  30
ENDBRANCH  18  29
TORSDOF 3
