REMARK  Name = ZINC63479920
REMARK  3 active torsions:
REMARK  status: ('A' for Active; 'I' for Inactive)
REMARK    1  A    between atoms: C_7  and  C_10
REMARK    2  A    between atoms: C_10  and  C_11
REMARK    3  A    between atoms: N_19  and  C_22
REMARK                            x       y       z     vdW  Elec       q    Type
REMARK                         _______ _______ _______ _____ _____    ______ ____
ROOT
ATOM      1  C   UNL     1       0.392  -3.639  -1.441  0.00  0.00    +0.072 C 
ATOM      2  C   UNL     1      -0.497  -4.901  -1.469  0.00  0.00    +0.107 C 
ATOM      3  C   UNL     1       0.501  -6.091  -1.541  0.00  0.00    +0.123 C 
ATOM      4  C   UNL     1       0.212  -6.703  -2.893  0.00  0.00    +0.233 C 
ATOM      5  O   UNL     1       0.770  -7.675  -3.356  0.00  0.00    -0.274 OA
ATOM      6  N   UNL     1      -0.756  -6.007  -3.500  0.00  0.00    -0.210 N 
ATOM      7  C   UNL     1      -1.236  -4.963  -2.786  0.00  0.00    +0.232 C 
ATOM      8  O   UNL     1      -2.110  -4.200  -3.135  0.00  0.00    -0.274 OA
ATOM      9  C   UNL     1       1.886  -5.433  -1.541  0.00  0.00    +0.136 C 
ATOM     10  N   UNL     1       1.676  -4.059  -2.062  0.00  0.00    -0.295 NA
ATOM     11  C   UNL     1       2.860  -6.189  -2.399  0.00  0.00    +0.006 A 
ATOM     12  C   UNL     1       2.882  -6.530  -3.733  0.00  0.00    +0.046 A 
ATOM     13  C   UNL     1       3.948  -7.251  -4.247  0.00  0.00    +0.124 A 
ATOM     14  C   UNL     1       4.990  -7.626  -3.415  0.00  0.00    +0.040 A 
ATOM     15  C   UNL     1       4.970  -7.286  -2.078  0.00  0.00    +0.026 A 
ATOM     16  C   UNL     1       3.901  -6.562  -1.555  0.00  0.00    +0.039 A 
ATOM     17  N   UNL     1       3.656  -6.106  -0.256  0.00  0.00    -0.283 N 
ATOM     18  C   UNL     1       2.493  -5.434  -0.165  0.00  0.00    +0.243 C 
ATOM     19  O   UNL     1       2.026  -4.926   0.833  0.00  0.00    -0.273 OA
ATOM     20  F   UNL     1       3.972  -7.586  -5.555  0.00  0.00    -0.205 F 
ATOM     21  H   UNL     1       1.611  -4.050  -3.069  0.00  0.00    +0.124 HD
ATOM     22  H   UNL     1       4.255  -6.257   0.492  0.00  0.00    +0.155 HD
ENDROOT
BRANCH   6  23
ATOM     23  C   UNL     1      -1.241  -6.334  -4.775  0.00  0.00    +0.044 A 
ATOM     24  C   UNL     1      -1.010  -5.482  -5.846  0.00  0.00    +0.027 A 
ATOM     25  C   UNL     1      -1.489  -5.807  -7.101  0.00  0.00    +0.040 A 
ATOM     26  C   UNL     1      -2.198  -6.981  -7.290  0.00  0.00    +0.124 A 
ATOM     27  C   UNL     1      -2.429  -7.832  -6.222  0.00  0.00    +0.040 A 
ATOM     28  C   UNL     1      -1.947  -7.514  -4.968  0.00  0.00    +0.027 A 
ATOM     29  F   UNL     1      -2.666  -7.296  -8.518  0.00  0.00    -0.205 F 
ENDBRANCH   6  23
BRANCH   1  30
ATOM     30  C   UNL     1       0.623  -3.183   0.001  0.00  0.00    +0.052 C 
BRANCH  30  37
ATOM     31  C   UNL     1      -3.420  -3.523   2.146  0.00  0.00    +0.001 A 
ATOM     32  C   UNL     1      -4.083  -2.297   2.292  0.00  0.00    +0.002 A 
ATOM     33  C   UNL     1      -3.571  -1.132   1.842  0.00  0.00    +0.026 A 
ATOM     34  C   UNL     1      -2.309  -1.108   1.186  0.00  0.00    +0.043 A 
ATOM     35  N   UNL     1      -1.613  -0.125   0.669  0.00  0.00    -0.380 N 
ATOM     36  C   UNL     1      -0.370  -0.673   0.114  0.00  0.00    +0.144 C 
ATOM     37  C   UNL     1      -0.419  -2.161   0.377  0.00  0.00    -0.040 C 
ATOM     38  C   UNL     1      -1.588  -2.390   1.018  0.00  0.00    -0.001 A 
ATOM     39  C   UNL     1      -2.215  -3.611   1.538  0.00  0.00    +0.010 A 
ATOM     40  H   UNL     1      -1.876   0.809   0.655  0.00  0.00    +0.160 HD
ENDBRANCH  30  37
ENDBRANCH   1  30
TORSDOF 3
