REMARK  Name = ZINC01003004
REMARK  8 active torsions:
REMARK  status: ('A' for Active; 'I' for Inactive)
REMARK    1  A    between atoms: C_3  and  O_9
REMARK    2  A    between atoms: O_9  and  C_10
REMARK    3  A    between atoms: C_10  and  C_11
REMARK    4  A    between atoms: C_14  and  C_16
REMARK    5  A    between atoms: C_25  and  C_33
REMARK    6  A    between atoms: C_26  and  N_32
REMARK    7  A    between atoms: C_27  and  C_28
REMARK    8  A    between atoms: C_27  and  C_30
REMARK                            x       y       z     vdW  Elec       q    Type
REMARK                         _______ _______ _______ _____ _____    ______ ____
ROOT
ATOM      1  C   UNL     1      -3.663   1.650  -0.463  0.00  0.00    +0.102 C 
ATOM      2  C   UNL     1      -3.708   2.963   0.320  0.00  0.00    +0.033 C 
ATOM      3  C   UNL     1      -4.995   3.718   0.081  0.00  0.00    +0.009 C 
ATOM      4  C   UNL     1      -4.820   4.828  -0.954  0.00  0.00    +0.005 C 
ATOM      5  C   UNL     1      -3.741   5.794  -0.448  0.00  0.00    +0.027 C 
ATOM      6  C   UNL     1      -2.456   5.019  -0.313  0.00  0.00    -0.022 C 
ATOM      7  C   UNL     1      -2.463   3.740   0.009  0.00  0.00    -0.029 C 
ATOM      8  C   UNL     1      -1.180   2.989   0.029  0.00  0.00    +0.074 C 
ATOM      9  C   UNL     1      -1.204   1.633   0.017  0.00  0.00    +0.054 C 
ATOM     10  C   UNL     1      -2.467   0.827   0.018  0.00  0.00    +0.191 C 
ENDROOT
BRANCH   1  14
ATOM     11  C   UNL     1      -6.548  -0.200   0.796  0.00  0.00    +0.142 A 
ATOM     12  C   UNL     1      -6.851  -0.199  -0.515  0.00  0.00    +0.048 A 
ATOM     13  C   UNL     1      -5.811   0.496  -1.175  0.00  0.00    +0.045 A 
ATOM     14  C   UNL     1      -4.935   0.877  -0.227  0.00  0.00    +0.112 A 
ATOM     15  O   UNL     1      -5.384   0.448   0.963  0.00  0.00    -0.461 OA
BRANCH  11  16
ATOM     16  C   UNL     1      -7.372  -0.829   1.890  0.00  0.00    +0.303 C 
BRANCH  16  17
ATOM     17  O   UNL     1      -6.960  -2.184   2.079  0.00  0.00    -0.483 OA
BRANCH  17  20
ATOM     18  C   UNL     1      -9.277  -3.036   4.751  0.00  0.00    +0.042 A 
ATOM     19  C   UNL     1      -8.619  -2.308   3.778  0.00  0.00    +0.050 A 
ATOM     20  C   UNL     1      -7.608  -2.899   3.036  0.00  0.00    +0.140 A 
ATOM     21  C   UNL     1      -7.261  -4.223   3.269  0.00  0.00    +0.085 A 
ATOM     22  C   UNL     1      -7.917  -4.946   4.247  0.00  0.00    +0.062 A 
ATOM     23  C   UNL     1      -8.927  -4.354   4.986  0.00  0.00    +0.125 A 
ATOM     24  F   UNL     1      -9.571  -5.064   5.939  0.00  0.00    -0.205 F 
ATOM     25 CL   UNL     1      -6.000  -4.967   2.336  0.00  0.00    -0.080 Cl
ENDBRANCH  17  20
ENDBRANCH  16  17
ENDBRANCH  11  16
ENDBRANCH   1  14
BRANCH   9  26
ATOM     26  N   UNL     1      -0.011   0.966   0.007  0.00  0.00    -0.358 N 
ATOM     27  H   UNL     1       0.004  -0.134  -0.003  0.00  0.00    +0.142 HD
ATOM     28  H   UNL     1       0.934   1.529   0.011  0.00  0.00    +0.142 HD
ENDBRANCH   9  26
BRANCH  10  29
ATOM     29  C   UNL     1      -2.296  -0.336  -0.868  0.00  0.00    +0.091 C 
ATOM     30  N   UNL     1      -2.164  -1.233  -1.552  0.00  0.00    -0.194 NA
ENDBRANCH  10  29
BRANCH  10  31
ATOM     31  C   UNL     1      -2.732   0.351   1.386  0.00  0.00    +0.091 C 
ATOM     32  N   UNL     1      -2.936  -0.017   2.441  0.00  0.00    -0.194 NA
ENDBRANCH  10  31
BRANCH   8  33
ATOM     33  C   UNL     1       0.068   3.691   0.056  0.00  0.00    +0.101 C 
ATOM     34  N   UNL     1       1.058   4.247   0.078  0.00  0.00    -0.191 NA
ENDBRANCH   8  33
TORSDOF 8
