REMARK  Name = ZINC39546141
REMARK  9 active torsions:
REMARK  status: ('A' for Active; 'I' for Inactive)
REMARK    1  A    between atoms: C_1  and  N_2
REMARK    2  A    between atoms: C_7  and  O_24
REMARK    3  A    between atoms: C_8  and  O_23
REMARK    4  A    between atoms: C_9  and  O_22
REMARK    5  A    between atoms: C_11  and  C_13
REMARK    6  A    between atoms: C_13  and  C_14
REMARK    7  A    between atoms: C_17  and  O_21
REMARK    8  A    between atoms: C_18  and  O_20
REMARK    9  A    between atoms: O_24  and  C_25
REMARK                            x       y       z     vdW  Elec       q    Type
REMARK                         _______ _______ _______ _____ _____    ______ ____
ROOT
ATOM      1  C   UNL     1      -0.585   1.486   0.810  0.00  0.00    -0.095 C 
ATOM      2  N   UNL     1      -0.358   0.056   0.561  0.00  0.00    +0.383 N 
ATOM      3  C   UNL     1      -1.598  -0.691   0.820  0.00  0.00    -0.074 C 
ATOM      4  C   UNL     1      -1.438  -2.108   0.268  0.00  0.00    +0.017 C 
ATOM      5  C   UNL     1      -0.155  -2.713   0.779  0.00  0.00    -0.040 A 
ATOM      6  C   UNL     1       0.014  -4.086   0.687  0.00  0.00    +0.053 A 
ATOM      7  C   UNL     1       1.178  -4.682   1.141  0.00  0.00    +0.165 A 
ATOM      8  C   UNL     1       2.184  -3.897   1.693  0.00  0.00    +0.201 A 
ATOM      9  C   UNL     1       2.012  -2.523   1.785  0.00  0.00    +0.164 A 
ATOM     10  C   UNL     1       0.839  -1.931   1.328  0.00  0.00    -0.012 A 
ATOM     11  C   UNL     1       0.692  -0.437   1.456  0.00  0.00    -0.030 C 
ATOM     12  H   UNL     1      -0.075  -0.079  -0.398  0.00  0.00    -0.081 HD
ENDROOT
BRANCH   9  13
ATOM     13  O   UNL     1       2.995  -1.753   2.324  0.00  0.00    -0.503 OA
ATOM     14  H   UNL     1       3.687  -1.502   1.697  0.00  0.00    +0.292 HD
ENDBRANCH   9  13
BRANCH   8  15
ATOM     15  O   UNL     1       3.332  -4.474   2.142  0.00  0.00    -0.501 OA
ATOM     16  H   UNL     1       4.026  -4.542   1.471  0.00  0.00    +0.292 HD
ENDBRANCH   8  15
BRANCH   7  17
ATOM     17  O   UNL     1       1.337  -6.029   1.049  0.00  0.00    -0.491 OA
ATOM     18  C   UNL     1       0.260  -6.771   0.471  0.00  0.00    +0.277 C 
ENDBRANCH   7  17
BRANCH  11  19
ATOM     19  C   UNL     1       2.019   0.233   1.095  0.00  0.00    +0.024 C 
BRANCH  19  20
ATOM     20  C   UNL     1       2.341  -0.038  -0.352  0.00  0.00    -0.045 A 
ATOM     21  C   UNL     1       3.030  -1.184  -0.703  0.00  0.00    +0.007 A 
ATOM     22  C   UNL     1       3.328  -1.438  -2.029  0.00  0.00    +0.049 A 
ATOM     23  C   UNL     1       2.934  -0.542  -3.010  0.00  0.00    +0.158 A 
ATOM     24  C   UNL     1       2.240   0.611  -2.658  0.00  0.00    +0.158 A 
ATOM     25  C   UNL     1       1.941   0.857  -1.327  0.00  0.00    +0.052 A 
BRANCH  24  26
ATOM     26  O   UNL     1       1.852   1.493  -3.618  0.00  0.00    -0.503 OA
ATOM     27  H   UNL     1       0.975   1.315  -3.984  0.00  0.00    +0.292 HD
ENDBRANCH  24  26
BRANCH  23  28
ATOM     28  O   UNL     1       3.227  -0.790  -4.315  0.00  0.00    -0.503 OA
ATOM     29  H   UNL     1       2.547  -1.295  -4.782  0.00  0.00    +0.292 HD
ENDBRANCH  23  28
ENDBRANCH  19  20
ENDBRANCH  11  19
TORSDOF 7
