REMARK  Name = ZINC36528094
REMARK  11 active torsions:
REMARK  status: ('A' for Active; 'I' for Inactive)
REMARK    1  A    between atoms: C_1  and  C_2
REMARK    2  A    between atoms: C_2  and  C_3
REMARK    3  A    between atoms: C_2  and  C_4
REMARK    4  A    between atoms: C_2  and  N_5
REMARK    5  A    between atoms: C_6  and  C_8
REMARK    6  A    between atoms: C_8  and  C_10
REMARK    7  A    between atoms: C_8  and  N_24
REMARK    8  A    between atoms: N_24  and  C_25
REMARK    9  A    between atoms: C_26  and  C_28
REMARK   10  A    between atoms: C_30  and  N_37
REMARK   11  A    between atoms: C_32  and  N_34
REMARK                            x       y       z     vdW  Elec       q    Type
REMARK                         _______ _______ _______ _____ _____    ______ ____
ROOT
ATOM      1  C   UNL     1       2.852  -0.672  -2.561  0.00  0.00    +0.193 C 
ENDROOT
BRANCH   1   2
ATOM      2  C   UNL     1       2.169  -0.016  -3.734  0.00  0.00    -0.010 A 
ATOM      3  C   UNL     1       1.403   1.073  -3.526  0.00  0.00    +0.015 A 
ATOM      4  C   UNL     1       0.742   1.725  -4.593  0.00  0.00    -0.017 A 
ATOM      5  C   UNL     1      -0.053   2.858  -4.366  0.00  0.00    +0.008 A 
ATOM      6  C   UNL     1      -0.678   3.466  -5.414  0.00  0.00    +0.001 A 
ATOM      7  C   UNL     1      -0.541   2.979  -6.709  0.00  0.00    +0.001 A 
ATOM      8  C   UNL     1       0.226   1.878  -6.962  0.00  0.00    +0.009 A 
ATOM      9  C   UNL     1       0.879   1.233  -5.911  0.00  0.00    -0.010 A 
ATOM     10  C   UNL     1       1.712   0.049  -6.137  0.00  0.00    -0.010 A 
ATOM     11  C   UNL     1       2.352  -0.553  -5.029  0.00  0.00    -0.012 A 
ATOM     12  C   UNL     1       3.155  -1.684  -5.236  0.00  0.00    +0.009 A 
ATOM     13  C   UNL     1       3.313  -2.181  -6.496  0.00  0.00    +0.001 A 
ATOM     14  C   UNL     1       2.687  -1.582  -7.584  0.00  0.00    +0.001 A 
ATOM     15  C   UNL     1       1.889  -0.487  -7.414  0.00  0.00    +0.009 A 
ENDBRANCH   1   2
BRANCH   1  17
ATOM     16  N   UNL     1       0.899  -0.618  -1.044  0.00  0.00    -0.309 N 
ATOM     17  C   UNL     1       2.173  -0.249  -1.284  0.00  0.00    +0.239 C 
ATOM     18  O   UNL     1       2.773   0.423  -0.473  0.00  0.00    -0.273 OA
ATOM     19  H   UNL     1       0.396  -1.094  -1.722  0.00  0.00    +0.149 HD
BRANCH  16  21
ATOM     20  C   UNL     1       0.265   1.217   0.444  0.00  0.00    +0.031 C 
ATOM     21  C   UNL     1       0.275  -0.300   0.243  0.00  0.00    +0.026 C 
ATOM     22  C   UNL     1       1.070  -0.959   1.372  0.00  0.00    +0.031 C 
ATOM     23  C   UNL     1      -1.162  -0.826   0.257  0.00  0.00    +0.031 C 
ENDBRANCH  16  21
ENDBRANCH   1  17
BRANCH   1  24
ATOM     24  N   UNL     1       4.259  -0.266  -2.525  0.00  0.00    -0.285 N 
ATOM     25  C   UNL     1       4.610   1.157  -2.513  0.00  0.00    +0.133 C 
ATOM     26  C   UNL     1       5.230  -1.200  -2.502  0.00  0.00    +0.247 C 
ATOM     27  O   UNL     1       4.945  -2.375  -2.622  0.00  0.00    -0.270 OA
BRANCH  26  28
ATOM     28  C   UNL     1       6.641  -0.794  -2.331  0.00  0.00    +0.041 A 
ATOM     29  C   UNL     1       6.965   0.289  -1.512  0.00  0.00    +0.046 A 
ATOM     30  C   UNL     1       8.284   0.661  -1.356  0.00  0.00    +0.129 A 
ATOM     31  C   UNL     1       9.285  -0.036  -2.010  0.00  0.00    +0.065 A 
ATOM     32  C   UNL     1       8.971  -1.110  -2.823  0.00  0.00    +0.129 A 
ATOM     33  C   UNL     1       7.656  -1.497  -2.983  0.00  0.00    +0.046 A 
BRANCH  32  34
ATOM     34  N   UNL     1      10.048  -1.850  -3.518  0.00  0.00    +0.057 N 
ATOM     35  O   UNL     1      11.201  -1.515  -3.375  0.00  0.00    -0.126 OA
ATOM     36  O   UNL     1       9.775  -2.789  -4.229  0.00  0.00    -0.126 OA
ENDBRANCH  32  34
BRANCH  30  37
ATOM     37  N   UNL     1       8.630   1.810  -0.488  0.00  0.00    +0.057 N 
ATOM     38  O   UNL     1       7.756   2.420   0.083  0.00  0.00    -0.126 OA
ATOM     39  O   UNL     1       9.785   2.137  -0.351  0.00  0.00    -0.126 OA
ENDBRANCH  30  37
ENDBRANCH  26  28
ENDBRANCH   1  24
TORSDOF 7
