REMARK  Name = ZINC05056509
REMARK  13 active torsions:
REMARK  status: ('A' for Active; 'I' for Inactive)
REMARK    1  A    between atoms: C_1  and  C_2
REMARK    2  A    between atoms: C_2  and  C_3
REMARK    3  A    between atoms: C_2  and  C_4
REMARK    4  A    between atoms: C_4  and  C_5
REMARK    5  A    between atoms: C_9  and  S_11
REMARK    6  A    between atoms: S_11  and  C_12
REMARK    7  A    between atoms: C_12  and  C_14
REMARK    8  A    between atoms: C_12  and  C_17
REMARK    9  A    between atoms: C_14  and  C_16
REMARK   10  A    between atoms: N_19  and  C_20
REMARK   11  A    between atoms: N_19  and  C_21
REMARK   12  A    between atoms: N_24  and  C_29
REMARK   13  A    between atoms: N_27  and  C_28
REMARK                            x       y       z     vdW  Elec       q    Type
REMARK                         _______ _______ _______ _____ _____    ______ ____
ROOT
ATOM      1  C   UNL     1       1.103   2.026   0.002  0.00  0.00    +0.133 A 
ATOM      2  N   UNL     1       2.296   1.462  -0.012  0.00  0.00    -0.214 NA
ATOM      3  C   UNL     1       2.416   0.142  -0.020  0.00  0.00    +0.154 A 
ATOM      4  C   UNL     1       1.249  -0.646  -0.013  0.00  0.00    +0.114 A 
ATOM      5  C   UNL     1       0.002  -0.004   0.002  0.00  0.00    +0.116 A 
ATOM      6  N   UNL     1      -0.016   1.330   0.009  0.00  0.00    -0.225 NA
ATOM      7  C   UNL     1       1.389  -2.106  -0.023  0.00  0.00    +0.268 A 
ATOM      8  O   UNL     1       0.410  -2.828  -0.017  0.00  0.00    -0.267 OA
ATOM      9  N   UNL     1       2.637  -2.625  -0.038  0.00  0.00    -0.263 N 
ATOM     10  C   UNL     1       3.720  -1.832  -0.044  0.00  0.00    +0.333 A 
ATOM     11  O   UNL     1       4.819  -2.350  -0.058  0.00  0.00    -0.246 OA
ATOM     12  N   UNL     1       3.641  -0.489  -0.036  0.00  0.00    -0.281 N 
ATOM     13  C   UNL     1       4.869   0.309  -0.043  0.00  0.00    +0.155 C 
ATOM     14  C   UNL     1       2.811  -4.080  -0.048  0.00  0.00    +0.157 C 
ENDROOT
BRANCH   1  15
ATOM     15  C   UNL     1       1.016   3.531   0.011  0.00  0.00    +0.079 C 
BRANCH  15  17
ATOM     16  C   UNL     1       2.336   3.699   2.126  0.00  0.00    +0.007 C 
ATOM     17  C   UNL     1       1.001   4.032   1.457  0.00  0.00    -0.010 C 
ATOM     18  C   UNL     1       0.788   5.547   1.469  0.00  0.00    +0.007 C 
ENDBRANCH  15  17
ENDBRANCH   1  15
BRANCH   5  19
ATOM     19  S   UNL     1      -1.496  -0.932   0.011  0.00  0.00    -0.084 S 
BRANCH  19  20
ATOM     20  C   UNL     1      -2.701   0.418   0.029  0.00  0.00    +0.204 C 
BRANCH  20  21
ATOM     21  C   UNL     1      -4.093  -0.149  -0.085  0.00  0.00    +0.236 C 
ATOM     22  O   UNL     1      -4.316  -1.286   0.276  0.00  0.00    -0.274 OA
ATOM     23  N   UNL     1      -5.090   0.606  -0.588  0.00  0.00    -0.306 N 
ATOM     24  C   UNL     1      -6.442   0.054  -0.699  0.00  0.00    +0.131 C 
ATOM     25  C   UNL     1      -4.820   1.978  -1.024  0.00  0.00    +0.131 C 
ENDBRANCH  20  21
BRANCH  20  26
ATOM     26  C   UNL     1      -2.576   1.186   1.320  0.00  0.00    +0.152 C 
ATOM     27  O   UNL     1      -2.754   2.380   1.331  0.00  0.00    -0.296 OA
ATOM     28  C   UNL     1      -2.230   0.463   2.596  0.00  0.00    +0.087 C 
ENDBRANCH  20  26
ENDBRANCH  19  20
ENDBRANCH   5  19
TORSDOF 6
