REMARK  Name = ZINC18062322
REMARK  5 active torsions:
REMARK  status: ('A' for Active; 'I' for Inactive)
REMARK    1  A    between atoms: C_4  and  C_7
REMARK    2  A    between atoms: C_7  and  O_8
REMARK    3  A    between atoms: O_8  and  C_9
REMARK    4  A    between atoms: C_9  and  C_11
REMARK    5  A    between atoms: N_20  and  C_23
REMARK                            x       y       z     vdW  Elec       q    Type
REMARK                         _______ _______ _______ _____ _____    ______ ____
ROOT
ATOM      1  C   UNL     1       5.609  -1.859   3.118  0.00  0.00    +0.157 C 
ATOM      2  N   UNL     1       5.271  -1.560   4.332  0.00  0.00    -0.183 NA
ATOM      3  N   UNL     1       6.081  -1.915   5.253  0.00  0.00    -0.255 N 
ATOM      4  C   UNL     1       7.247  -2.607   4.681  0.00  0.00    +0.194 C 
ATOM      5  C   UNL     1       6.939  -2.585   3.157  0.00  0.00    +0.164 C 
ATOM      6  C   UNL     1       6.725  -4.044   2.822  0.00  0.00    +0.238 C 
ATOM      7  O   UNL     1       6.457  -4.478   1.722  0.00  0.00    -0.274 OA
ATOM      8  N   UNL     1       6.880  -4.782   3.928  0.00  0.00    -0.208 N 
ATOM      9  C   UNL     1       7.191  -4.074   5.041  0.00  0.00    +0.249 C 
ATOM     10  O   UNL     1       7.383  -4.531   6.147  0.00  0.00    -0.273 OA
ATOM     11  H   UNL     1       5.947  -1.751   6.199  0.00  0.00    +0.169 HD
ENDROOT
BRANCH   8  12
ATOM     12  C   UNL     1       6.744  -6.177   3.933  0.00  0.00    +0.047 A 
ATOM     13  C   UNL     1       7.667  -6.968   3.263  0.00  0.00    +0.044 A 
ATOM     14  C   UNL     1       7.531  -8.344   3.270  0.00  0.00    +0.044 A 
ATOM     15  C   UNL     1       6.476  -8.932   3.944  0.00  0.00    +0.040 A 
ATOM     16  C   UNL     1       5.554  -8.146   4.612  0.00  0.00    +0.044 A 
ATOM     17  C   UNL     1       5.689  -6.770   4.613  0.00  0.00    +0.044 A 
ATOM     18 CL   UNL     1       4.231  -8.888   5.457  0.00  0.00    -0.083 Cl
ATOM     19 CL   UNL     1       8.685  -9.333   2.432  0.00  0.00    -0.083 Cl
ENDBRANCH   8  12
BRANCH   1  20
ATOM     20  C   UNL     1       4.837  -1.552   1.916  0.00  0.00    +0.356 C 
ATOM     21  O   UNL     1       5.253  -1.888   0.824  0.00  0.00    -0.244 OA
BRANCH  20  22
ATOM     22  O   UNL     1       3.662  -0.897   2.018  0.00  0.00    -0.456 OA
BRANCH  22  23
ATOM     23  C   UNL     1       2.960  -0.631   0.802  0.00  0.00    +0.268 C 
BRANCH  23  27
ATOM     24  C   UNL     1      -0.668   1.448   1.675  0.00  0.00    +0.000 A 
ATOM     25  C   UNL     1       0.493   2.157   1.432  0.00  0.00    +0.000 A 
ATOM     26  C   UNL     1       1.667   1.484   1.150  0.00  0.00    +0.007 A 
ATOM     27  C   UNL     1       1.680   0.103   1.111  0.00  0.00    -0.010 A 
ATOM     28  C   UNL     1       0.519  -0.606   1.355  0.00  0.00    +0.007 A 
ATOM     29  C   UNL     1      -0.656   0.066   1.636  0.00  0.00    +0.000 A 
ENDBRANCH  23  27
ENDBRANCH  22  23
ENDBRANCH  20  22
ENDBRANCH   1  20
TORSDOF 5
