REMARK  Name = ZINC39923395
REMARK  11 active torsions:
REMARK  status: ('A' for Active; 'I' for Inactive)
REMARK    1  A    between atoms: C_1  and  O_2
REMARK    2  A    between atoms: O_2  and  C_3
REMARK    3  A    between atoms: C_6  and  C_11
REMARK    4  A    between atoms: C_8  and  O_9
REMARK    5  A    between atoms: O_9  and  C_10
REMARK    6  A    between atoms: C_15  and  S_24
REMARK    7  A    between atoms: N_17  and  C_18
REMARK    8  A    between atoms: S_24  and  C_25
REMARK    9  A    between atoms: C_25  and  C_26
REMARK   10  A    between atoms: N_28  and  N_29
REMARK   11  A    between atoms: C_30  and  C_31
REMARK                            x       y       z     vdW  Elec       q    Type
REMARK                         _______ _______ _______ _____ _____    ______ ____
ROOT
ATOM      1  C   UNL     1       2.372  -2.520   4.329  0.00  0.00    +0.189 C 
ATOM      2  N   UNL     1       1.612  -3.735   4.699  0.00  0.00    -0.230 NA
ATOM      3  N   UNL     1       1.931  -3.948   6.120  0.00  0.00    -0.226 NA
ATOM      4  C   UNL     1       1.986  -2.564   6.660  0.00  0.00    +0.218 C 
ATOM      5  N   UNL     1       2.610  -1.775   5.578  0.00  0.00    -0.284 N 
ATOM      6  H   UNL     1       1.900  -4.525   4.142  0.00  0.00    +0.143 HD
ATOM      7  H   UNL     1       2.821  -4.412   6.225  0.00  0.00    +0.143 HD
ENDROOT
BRANCH   1  11
ATOM      8  C   UNL     1       0.089  -0.129   1.616  0.00  0.00    +0.162 A 
ATOM      9  C   UNL     1       0.507   0.400   2.827  0.00  0.00    +0.050 A 
ATOM     10  C   UNL     1       1.245  -0.376   3.702  0.00  0.00    +0.010 A 
ATOM     11  C   UNL     1       1.567  -1.679   3.372  0.00  0.00    -0.008 A 
ATOM     12  C   UNL     1       1.153  -2.212   2.166  0.00  0.00    +0.056 A 
ATOM     13  C   UNL     1       0.409  -1.442   1.287  0.00  0.00    +0.162 A 
BRANCH   8  15
ATOM     14  C   UNL     1      -0.928   1.972   1.159  0.00  0.00    +0.277 C 
ATOM     15  O   UNL     1      -0.637   0.633   0.755  0.00  0.00    -0.491 OA
ENDBRANCH   8  15
BRANCH  13  16
ATOM     16  O   UNL     1      -0.004  -1.968   0.102  0.00  0.00    -0.491 OA
ATOM     17  C   UNL     1       0.360  -3.322  -0.169  0.00  0.00    +0.277 C 
ENDBRANCH  13  16
ENDBRANCH   1  11
BRANCH   5  18
ATOM     18  C   UNL     1       3.291  -0.562   5.712  0.00  0.00    +0.033 A 
ATOM     19  C   UNL     1       3.938  -0.003   4.617  0.00  0.00    +0.023 A 
ATOM     20  C   UNL     1       4.609   1.196   4.753  0.00  0.00    +0.002 A 
ATOM     21  C   UNL     1       4.639   1.839   5.976  0.00  0.00    +0.000 A 
ATOM     22  C   UNL     1       3.996   1.285   7.068  0.00  0.00    +0.002 A 
ATOM     23  C   UNL     1       3.318   0.089   6.938  0.00  0.00    +0.023 A 
ENDBRANCH   5  18
BRANCH   4  24
ATOM     24  S   UNL     1       0.314  -1.954   7.013  0.00  0.00    -0.112 S 
BRANCH  24  25
ATOM     25  C   UNL     1      -0.585  -2.217   5.459  0.00  0.00    +0.169 C 
BRANCH  25  26
ATOM     26  C   UNL     1      -2.047  -1.915   5.668  0.00  0.00    +0.242 C 
ATOM     27  O   UNL     1      -2.443  -1.558   6.757  0.00  0.00    -0.273 OA
ATOM     28  N   UNL     1      -2.914  -2.042   4.644  0.00  0.00    -0.206 N 
ATOM     29  H   UNL     1      -2.598  -2.328   3.773  0.00  0.00    +0.177 HD
BRANCH  28  30
ATOM     30  N   UNL     1      -4.273  -1.761   4.838  0.00  0.00    -0.188 NA
ATOM     31  C   UNL     1      -5.115  -1.884   3.843  0.00  0.00    +0.136 C 
BRANCH  31  32
ATOM     32  C   UNL     1      -6.475  -1.603   4.037  0.00  0.00    +0.000 C 
ATOM     33  C   UNL     1      -7.496  -1.689   3.093  0.00  0.00    +0.004 A 
ATOM     34  C   UNL     1      -7.506  -2.058   1.730  0.00  0.00    +0.010 A 
ATOM     35  C   UNL     1      -8.675  -2.049   1.040  0.00  0.00    +0.001 A 
ATOM     36  C   UNL     1      -9.880  -1.682   1.644  0.00  0.00    +0.002 A 
ATOM     37  C   UNL     1      -9.945  -1.317   2.947  0.00  0.00    +0.026 A 
ATOM     38  C   UNL     1      -8.764  -1.301   3.735  0.00  0.00    +0.043 A 
ATOM     39  N   UNL     1      -8.564  -0.991   4.999  0.00  0.00    -0.380 N 
ATOM     40  C   UNL     1      -7.142  -1.150   5.317  0.00  0.00    +0.150 C 
ATOM     41  H   UNL     1      -9.251  -0.706   5.622  0.00  0.00    +0.160 HD
ENDBRANCH  31  32
ENDBRANCH  28  30
ENDBRANCH  25  26
ENDBRANCH  24  25
ENDBRANCH   4  24
TORSDOF 9
