REMARK  Name = ZINC57486223
REMARK  7 active torsions:
REMARK  status: ('A' for Active; 'I' for Inactive)
REMARK    1  A    between atoms: C_1  and  C_2
REMARK    2  A    between atoms: C_5  and  C_8
REMARK    3  A    between atoms: C_8  and  N_9
REMARK    4  A    between atoms: N_17  and  C_20
REMARK    5  A    between atoms: C_20  and  C_21
REMARK    6  A    between atoms: C_21  and  C_23
REMARK    7  A    between atoms: C_27  and  C_29
REMARK                            x       y       z     vdW  Elec       q    Type
REMARK                         _______ _______ _______ _____ _____    ______ ____
ROOT
ATOM      1  N   UNL     1       1.447  -4.746  -0.032  0.00  0.00    -0.256 N 
ATOM      2  C   UNL     1       2.081  -4.951  -1.209  0.00  0.00    +0.271 A 
ATOM      3  O   UNL     1       1.507  -4.747  -2.264  0.00  0.00    -0.266 OA
ATOM      4  C   UNL     1       3.405  -5.400  -1.196  0.00  0.00    +0.100 A 
ATOM      5  C   UNL     1       4.081  -5.639   0.004  0.00  0.00    +0.066 A 
ATOM      6  C   UNL     1       5.389  -6.082  -0.169  0.00  0.00    +0.034 A 
ATOM      7  C   UNL     1       5.883  -6.239  -1.416  0.00  0.00    +0.048 A 
ATOM      8  S   UNL     1       4.614  -5.800  -2.427  0.00  0.00    -0.090 S 
ATOM      9  N   UNL     1       3.356  -5.404   1.181  0.00  0.00    -0.285 N 
ATOM     10  C   UNL     1       2.088  -4.967   1.129  0.00  0.00    +0.333 A 
ATOM     11  O   UNL     1       1.494  -4.769   2.171  0.00  0.00    -0.246 OA
ENDROOT
BRANCH   1  12
ATOM     12  C   UNL     1       0.059  -4.275  -0.021  0.00  0.00    +0.165 C 
BRANCH  12  17
ATOM     13  C   UNL     1      -0.018   1.503   0.010  0.00  0.00    +0.044 C 
ATOM     14  C   UNL     1       0.002  -0.004   0.002  0.00  0.00    -0.050 A 
ATOM     15  C   UNL     1       0.006  -0.689  -1.199  0.00  0.00    +0.004 A 
ATOM     16  C   UNL     1       0.025  -2.071  -1.206  0.00  0.00    +0.005 A 
ATOM     17  C   UNL     1       0.040  -2.768  -0.013  0.00  0.00    -0.027 A 
ATOM     18  C   UNL     1       0.037  -2.084   1.188  0.00  0.00    +0.005 A 
ATOM     19  C   UNL     1       0.023  -0.702   1.195  0.00  0.00    +0.004 A 
ENDBRANCH  12  17
ENDBRANCH   1  12
BRANCH   9  20
ATOM     20  C   UNL     1       3.991  -5.630   2.482  0.00  0.00    +0.206 C 
BRANCH  20  21
ATOM     21  C   UNL     1       4.665  -4.363   2.940  0.00  0.00    +0.183 C 
ATOM     22  O   UNL     1       4.619  -3.368   2.248  0.00  0.00    -0.290 OA
BRANCH  21  23
ATOM     23  C   UNL     1       5.379  -4.332   4.226  0.00  0.00    +0.020 A 
ATOM     24  C   UNL     1       5.438  -5.480   5.024  0.00  0.00    +0.011 A 
ATOM     25  C   UNL     1       6.107  -5.452   6.230  0.00  0.00    +0.002 A 
ATOM     26  C   UNL     1       6.723  -4.293   6.660  0.00  0.00    +0.019 A 
ATOM     27  C   UNL     1       6.672  -3.138   5.875  0.00  0.00    +0.052 A 
ATOM     28  C   UNL     1       6.003  -3.159   4.652  0.00  0.00    +0.030 A 
BRANCH  27  29
ATOM     29  C   UNL     1       7.310  -1.937   6.323  0.00  0.00    +0.099 C 
ATOM     30  N   UNL     1       7.816  -0.984   6.679  0.00  0.00    -0.191 NA
ENDBRANCH  27  29
ENDBRANCH  21  23
ENDBRANCH  20  21
ENDBRANCH   9  20
TORSDOF 6
