REMARK  Name = ZINC03452728
REMARK  5 active torsions:
REMARK  status: ('A' for Active; 'I' for Inactive)
REMARK    1  A    between atoms: C_4  and  N_7
REMARK    2  A    between atoms: C_11  and  S_12
REMARK    3  A    between atoms: S_12  and  C_13
REMARK    4  A    between atoms: C_13  and  C_14
REMARK    5  A    between atoms: C_17  and  C_19
REMARK                            x       y       z     vdW  Elec       q    Type
REMARK                         _______ _______ _______ _____ _____    ______ ____
ROOT
ATOM      1  C   UNL     1       4.151  -3.667   2.775  0.00  0.00    +0.175 C 
ENDROOT
BRANCH   1   2
ATOM      2  C   UNL     1       3.452  -4.365   3.912  0.00  0.00    +0.228 A 
ATOM      3  N   UNL     1       2.699  -5.426   3.817  0.00  0.00    -0.111 NA
ATOM      4  N   UNL     1       2.265  -5.750   4.984  0.00  0.00    -0.107 NA
ATOM      5  C   UNL     1       2.730  -4.901   5.871  0.00  0.00    +0.249 A 
ATOM      6  O   UNL     1       3.495  -4.011   5.208  0.00  0.00    -0.419 OA
BRANCH   5   7
ATOM      7  C   UNL     1       2.468  -4.921   7.325  0.00  0.00    +0.052 A 
ATOM      8  C   UNL     1       3.027  -3.945   8.151  0.00  0.00    +0.014 A 
ATOM      9  C   UNL     1       2.779  -3.968   9.508  0.00  0.00    +0.001 A 
ATOM     10  C   UNL     1       1.977  -4.957  10.051  0.00  0.00    +0.001 A 
ATOM     11  C   UNL     1       1.420  -5.928   9.239  0.00  0.00    +0.016 A 
ATOM     12  C   UNL     1       1.656  -5.913   7.878  0.00  0.00    +0.030 A 
ATOM     13 BR   UNL     1       0.887  -7.236   6.768  0.00  0.00    -0.050 Br
ENDBRANCH   5   7
ENDBRANCH   1   2
BRANCH   1  14
ATOM     14  S   UNL     1       3.064  -2.386   2.091  0.00  0.00    -0.076 S 
BRANCH  14  19
ATOM     15  N   UNL     1       3.624  -0.653  -0.036  0.00  0.00    -0.277 N 
ATOM     16  C   UNL     1       4.683  -0.435  -0.878  0.00  0.00    +0.230 A 
ATOM     17  N   UNL     1       5.616  -1.284  -0.554  0.00  0.00    -0.137 NA
ATOM     18  N   UNL     1       5.226  -2.018   0.426  0.00  0.00    -0.122 NA
ATOM     19  C   UNL     1       4.013  -1.672   0.789  0.00  0.00    +0.196 A 
BRANCH  15  23
ATOM     20  C   UNL     1      -0.017   1.379   0.010  0.00  0.00    +0.000 A 
ATOM     21  C   UNL     1       1.170   2.089   0.002  0.00  0.00    +0.002 A 
ATOM     22  C   UNL     1       2.377   1.419  -0.013  0.00  0.00    +0.026 A 
ATOM     23  C   UNL     1       2.399   0.031  -0.021  0.00  0.00    +0.050 A 
ATOM     24  C   UNL     1       1.207  -0.680  -0.013  0.00  0.00    +0.026 A 
ATOM     25  C   UNL     1       0.002  -0.004   0.002  0.00  0.00    +0.002 A 
ENDBRANCH  15  23
ENDBRANCH  14  19
ENDBRANCH   1  14
TORSDOF 5
