REMARK  Name = ZINC15943738
REMARK  10 active torsions:
REMARK  status: ('A' for Active; 'I' for Inactive)
REMARK    1  A    between atoms: C_1  and  C_2
REMARK    2  A    between atoms: C_2  and  C_3
REMARK    3  A    between atoms: C_3  and  C_5
REMARK    4  A    between atoms: C_3  and  N_21
REMARK    5  A    between atoms: N_7  and  C_8
REMARK    6  A    between atoms: C_8  and  C_9
REMARK    7  A    between atoms: C_9  and  C_10
REMARK    8  A    between atoms: C_10  and  N_11
REMARK    9  A    between atoms: C_13  and  C_20
REMARK   10  A    between atoms: C_16  and  C_19
REMARK                            x       y       z     vdW  Elec       q    Type
REMARK                         _______ _______ _______ _____ _____    ______ ____
ROOT
ATOM      1  C   UNL     1      -1.433  -0.534   0.013  0.00  0.00    +0.196 C 
ENDROOT
BRANCH   1   2
ATOM      2  N   UNL     1      -2.105  -0.148  -1.230  0.00  0.00    -0.214 N 
ATOM      3  C   UNL     1      -3.214   0.625  -1.188  0.00  0.00    +0.292 A 
ATOM      4  O   UNL     1      -3.669   1.010  -0.126  0.00  0.00    -0.264 OA
ATOM      5  C   UNL     1      -3.852   0.985  -2.457  0.00  0.00    +0.118 A 
ATOM      6  C   UNL     1      -4.961   1.735  -2.769  0.00  0.00    +0.080 A 
ATOM      7  C   UNL     1      -5.093   1.737  -4.162  0.00  0.00    +0.154 A 
ATOM      8  C   UNL     1      -4.049   0.977  -4.682  0.00  0.00    +0.093 A 
ATOM      9  N   UNL     1      -3.291   0.518  -3.637  0.00  0.00    -0.291 N 
ATOM     10  C   UNL     1      -2.155  -0.266  -3.581  0.00  0.00    +0.227 A 
ATOM     11  N   UNL     1      -1.597  -0.575  -2.461  0.00  0.00    -0.157 NA
ATOM     12  C   UNL     1      -4.208   0.996  -6.089  0.00  0.00    +0.068 A 
ATOM     13  C   UNL     1      -5.297   1.736  -6.356  0.00  0.00    +0.198 A 
ATOM     14  O   UNL     1      -5.830   2.180  -5.204  0.00  0.00    -0.461 OA
ENDBRANCH   1   2
BRANCH   1  15
ATOM     15  C   UNL     1      -1.414  -2.036   0.129  0.00  0.00    +0.238 C 
ATOM     16  O   UNL     1      -1.912  -2.718  -0.742  0.00  0.00    -0.273 OA
ATOM     17  N   UNL     1      -0.842  -2.622   1.199  0.00  0.00    -0.314 N 
ATOM     18  H   UNL     1      -0.444  -2.077   1.895  0.00  0.00    +0.149 HD
BRANCH  17  19
ATOM     19  C   UNL     1      -0.823  -4.083   1.312  0.00  0.00    +0.102 C 
BRANCH  19  20
ATOM     20  C   UNL     1      -0.121  -4.485   2.610  0.00  0.00    +0.000 C 
BRANCH  20  21
ATOM     21  C   UNL     1      -0.101  -6.011   2.728  0.00  0.00    -0.077 C 
BRANCH  21  22
ATOM     22  N   UNL     1       0.573  -6.397   3.974  0.00  0.00    +0.380 N 
ATOM     23  C   UNL     1      -0.211  -5.921   5.120  0.00  0.00    -0.076 C 
ATOM     24  C   UNL     1       0.527  -6.250   6.420  0.00  0.00    -0.031 C 
ATOM     25  C   UNL     1       0.717  -7.766   6.523  0.00  0.00    +0.003 C 
ATOM     26  C   UNL     1       1.471  -8.262   5.286  0.00  0.00    -0.031 C 
ATOM     27  C   UNL     1       0.698  -7.858   4.029  0.00  0.00    -0.076 C 
ATOM     28  C   UNL     1       1.598  -9.785   5.342  0.00  0.00    +0.005 C 
ATOM     29  C   UNL     1      -0.293  -5.754   7.613  0.00  0.00    +0.005 C 
ATOM     30  H   UNL     1       1.492  -5.981   4.002  0.00  0.00    -0.082 HD
ENDBRANCH  21  22
ENDBRANCH  20  21
ENDBRANCH  19  20
ENDBRANCH  17  19
ENDBRANCH   1  15
BRANCH   1  32
ATOM     31  C   UNL     1      -0.019   1.526   0.010  0.00  0.00    +0.006 C 
ATOM     32  C   UNL     1       0.002  -0.004   0.002  0.00  0.00    +0.033 C 
ENDBRANCH   1  32
TORSDOF 7
