REMARK  Name = ZINC39926698
REMARK  4 active torsions:
REMARK  status: ('A' for Active; 'I' for Inactive)
REMARK    1  A    between atoms: C_7  and  C_10
REMARK    2  A    between atoms: N_11  and  N_12
REMARK    3  A    between atoms: C_13  and  C_15
REMARK    4  A    between atoms: C_18  and  C_20
REMARK                            x       y       z     vdW  Elec       q    Type
REMARK                         _______ _______ _______ _____ _____    ______ ____
ROOT
ATOM      1  N   UNL     1       0.256  -5.438  -0.030  0.00  0.00    -0.200 N 
ATOM      2  C   UNL     1       0.734  -6.698  -0.042  0.00  0.00    +0.299 C 
ATOM      3  O   UNL     1       1.935  -6.894  -0.054  0.00  0.00    -0.265 OA
ATOM      4  H   UNL     1      -0.701  -5.282  -0.021  0.00  0.00    +0.178 HD
ENDROOT
BRANCH   2   5
ATOM      5  C   UNL     1      -0.192  -7.831  -0.040  0.00  0.00    +0.192 A 
ATOM      6  C   UNL     1       0.160  -9.165  -0.044  0.00  0.00    +0.055 A 
ATOM      7  C   UNL     1      -1.031  -9.896  -0.039  0.00  0.00    +0.050 A 
ATOM      8  C   UNL     1      -2.057  -8.994  -0.031  0.00  0.00    +0.136 A 
ATOM      9  O   UNL     1      -1.540  -7.754  -0.026  0.00  0.00    -0.450 OA
BRANCH   8  10
ATOM     10  C   UNL     1      -3.495  -9.327  -0.023  0.00  0.00    +0.017 A 
ATOM     11  C   UNL     1      -3.906 -10.662  -0.018  0.00  0.00    +0.012 A 
ATOM     12  C   UNL     1      -5.252 -10.966  -0.010  0.00  0.00    +0.016 A 
ATOM     13  C   UNL     1      -6.194  -9.951  -0.007  0.00  0.00    +0.018 A 
ATOM     14  C   UNL     1      -5.793  -8.625  -0.013  0.00  0.00    +0.016 A 
ATOM     15  C   UNL     1      -4.451  -8.308  -0.015  0.00  0.00    +0.012 A 
ATOM     16 BR   UNL     1      -8.036 -10.377   0.003  0.00  0.00    -0.050 Br
ENDBRANCH   8  10
ENDBRANCH   2   5
BRANCH   1  18
ATOM     17  C   UNL     1       0.678  -3.127  -0.022  0.00  0.00    +0.136 C 
ATOM     18  N   UNL     1       1.142  -4.353  -0.033  0.00  0.00    -0.188 NA
BRANCH  17  25
ATOM     19  C   UNL     1      -0.016   1.353   0.009  0.00  0.00    +0.001 A 
ATOM     20  C   UNL     1       1.164   2.101   0.002  0.00  0.00    +0.002 A 
ATOM     21  C   UNL     1       2.384   1.513  -0.013  0.00  0.00    +0.026 A 
ATOM     22  C   UNL     1       2.485   0.096  -0.021  0.00  0.00    +0.043 A 
ATOM     23  N   UNL     1       3.531  -0.703  -0.035  0.00  0.00    -0.380 N 
ATOM     24  C   UNL     1       3.076  -2.097  -0.039  0.00  0.00    +0.150 C 
ATOM     25  C   UNL     1       1.564  -2.043  -0.024  0.00  0.00    +0.000 C 
ATOM     26  C   UNL     1       1.238  -0.688  -0.013  0.00  0.00    +0.004 A 
ATOM     27  C   UNL     1       0.002  -0.004   0.002  0.00  0.00    +0.010 A 
ATOM     28  H   UNL     1       4.457  -0.415  -0.043  0.00  0.00    +0.160 HD
ENDBRANCH  17  25
ENDBRANCH   1  18
TORSDOF 4
