REMARK  Name = ZINC22612577
REMARK  10 active torsions:
REMARK  status: ('A' for Active; 'I' for Inactive)
REMARK    1  A    between atoms: C_1  and  C_2
REMARK    2  A    between atoms: C_9  and  C_11
REMARK    3  A    between atoms: C_11  and  S_12
REMARK    4  A    between atoms: S_12  and  C_13
REMARK    5  A    between atoms: C_16  and  C_25
REMARK    6  A    between atoms: N_17  and  C_18
REMARK    7  A    between atoms: C_25  and  C_27
REMARK    8  A    between atoms: C_25  and  N_28
REMARK    9  A    between atoms: N_28  and  C_29
REMARK   10  A    between atoms: N_28  and  C_30
REMARK                            x       y       z     vdW  Elec       q    Type
REMARK                         _______ _______ _______ _____ _____    ______ ____
ROOT
ATOM      1  C   UNL     1      -5.309   5.881  -2.296  0.00  0.00    +0.197 A 
ATOM      2  N   UNL     1      -4.750   5.525  -3.429  0.00  0.00    -0.122 NA
ATOM      3  N   UNL     1      -5.447   5.962  -4.417  0.00  0.00    -0.135 NA
ATOM      4  C   UNL     1      -6.479   6.626  -3.979  0.00  0.00    +0.125 A 
ATOM      5  N   UNL     1      -6.430   6.599  -2.610  0.00  0.00    -0.275 N 
ENDROOT
BRANCH   5   6
ATOM      6  C   UNL     1      -7.339   7.186  -1.717  0.00  0.00    +0.050 A 
ATOM      7  C   UNL     1      -8.652   6.737  -1.667  0.00  0.00    +0.028 A 
ATOM      8  C   UNL     1      -9.543   7.312  -0.783  0.00  0.00    +0.022 A 
ATOM      9  C   UNL     1      -9.132   8.343   0.043  0.00  0.00    +0.041 A 
ATOM     10  C   UNL     1      -7.826   8.796  -0.009  0.00  0.00    +0.022 A 
ATOM     11  C   UNL     1      -6.929   8.220  -0.887  0.00  0.00    +0.028 A 
ATOM     12 CL   UNL     1     -10.258   9.069   1.148  0.00  0.00    -0.084 Cl
ENDBRANCH   5   6
BRANCH   4  13
ATOM     13  C   UNL     1      -7.532   7.299  -4.822  0.00  0.00    -0.003 C 
ATOM     14  C   UNL     1      -8.466   6.242  -5.412  0.00  0.00    -0.005 C 
BRANCH  13  15
ATOM     15  N   UNL     1      -6.885   8.044  -5.910  0.00  0.00    +0.382 N 
ATOM     16  C   UNL     1      -6.217   7.131  -6.848  0.00  0.00    -0.096 C 
ATOM     17  C   UNL     1      -7.851   8.902  -6.608  0.00  0.00    -0.096 C 
ATOM     18  H   UNL     1      -6.116   8.693  -5.465  0.00  0.00    -0.082 HD
ENDBRANCH  13  15
ENDBRANCH   4  13
BRANCH   1  19
ATOM     19  S   UNL     1      -4.722   5.510  -0.676  0.00  0.00    -0.076 S 
BRANCH  19  20
ATOM     20  C   UNL     1      -3.240   4.557  -1.090  0.00  0.00    +0.173 C 
BRANCH  20  28
ATOM     21  C   UNL     1      -1.479   3.501   2.563  0.00  0.00    +0.028 C 
ATOM     22  C   UNL     1      -0.678   3.055   1.338  0.00  0.00    +0.073 C 
ATOM     23  C   UNL     1      -0.470   1.538   1.384  0.00  0.00    +0.022 C 
ATOM     24  C   UNL     1       0.209   1.081   0.091  0.00  0.00    +0.003 C 
ATOM     25  C   UNL     1      -0.691   1.409  -1.103  0.00  0.00    +0.019 C 
ATOM     26  C   UNL     1      -0.902   2.924  -1.177  0.00  0.00    +0.108 C 
ATOM     27  N   UNL     1      -1.420   3.394   0.116  0.00  0.00    -0.298 N 
ATOM     28  C   UNL     1      -2.553   4.121   0.178  0.00  0.00    +0.226 C 
ATOM     29  O   UNL     1      -3.019   4.425   1.256  0.00  0.00    -0.275 OA
ENDBRANCH  20  28
ENDBRANCH  19  20
ENDBRANCH   1  19
TORSDOF 6
