REMARK  Name = ZINC36545862
REMARK  9 active torsions:
REMARK  status: ('A' for Active; 'I' for Inactive)
REMARK    1  A    between atoms: C_5  and  N_7
REMARK    2  A    between atoms: N_7  and  C_8
REMARK    3  A    between atoms: C_8  and  C_10
REMARK    4  A    between atoms: C_8  and  C_20
REMARK    5  A    between atoms: C_12  and  N_17
REMARK    6  A    between atoms: N_22  and  C_23
REMARK    7  A    between atoms: C_29  and  C_31
REMARK    8  A    between atoms: C_31  and  C_32
REMARK    9  A    between atoms: C_32  and  S_33
REMARK                            x       y       z     vdW  Elec       q    Type
REMARK                         _______ _______ _______ _____ _____    ______ ____
ROOT
ATOM      1  C   UNL     1       1.120  -2.687  -1.317  0.00  0.00    +0.199 C 
ENDROOT
BRANCH   1   2
ATOM      2  C   UNL     1      -0.189  -3.422  -1.179  0.00  0.00    +0.003 A 
ATOM      3  C   UNL     1      -0.205  -4.803  -1.132  0.00  0.00    +0.040 A 
ATOM      4  C   UNL     1      -1.405  -5.477  -1.005  0.00  0.00    +0.127 A 
ATOM      5  C   UNL     1      -2.591  -4.769  -0.925  0.00  0.00    +0.034 A 
ATOM      6  C   UNL     1      -2.576  -3.388  -0.971  0.00  0.00    +0.022 A 
ATOM      7  C   UNL     1      -1.374  -2.713  -1.092  0.00  0.00    +0.047 A 
ATOM      8 CL   UNL     1      -1.354  -0.978  -1.143  0.00  0.00    -0.083 Cl
BRANCH   4   9
ATOM      9  N   UNL     1      -1.422  -6.956  -0.956  0.00  0.00    +0.056 N 
ATOM     10  O   UNL     1      -0.386  -7.575  -1.027  0.00  0.00    -0.126 OA
ATOM     11  O   UNL     1      -2.472  -7.545  -0.845  0.00  0.00    -0.126 OA
ENDBRANCH   4   9
ENDBRANCH   1   2
BRANCH   1  12
ATOM     12  C   UNL     1       2.173  -3.632  -1.836  0.00  0.00    +0.239 C 
ATOM     13  O   UNL     1       3.088  -3.974  -1.117  0.00  0.00    -0.273 OA
ATOM     14  N   UNL     1       2.099  -4.097  -3.099  0.00  0.00    -0.311 N 
ATOM     15  H   UNL     1       1.410  -3.768  -3.697  0.00  0.00    +0.149 HD
BRANCH  14  16
ATOM     16  C   UNL     1       3.058  -5.099  -3.568  0.00  0.00    +0.073 C 
ATOM     17  C   UNL     1       4.329  -4.400  -4.056  0.00  0.00    +0.022 C 
ATOM     18  C   UNL     1       5.331  -5.447  -4.546  0.00  0.00    +0.002 C 
ATOM     19  C   UNL     1       4.714  -6.245  -5.697  0.00  0.00    +0.000 C 
ATOM     20  C   UNL     1       3.443  -6.944  -5.209  0.00  0.00    +0.002 C 
ATOM     21  C   UNL     1       2.441  -5.897  -4.719  0.00  0.00    +0.022 C 
ENDBRANCH  14  16
ENDBRANCH   1  12
BRANCH   1  22
ATOM     22  N   UNL     1       1.530  -2.169  -0.010  0.00  0.00    -0.254 N 
ATOM     23  C   UNL     1       1.620  -3.000   1.047  0.00  0.00    +0.222 C 
ATOM     24  O   UNL     1       1.445  -4.191   0.898  0.00  0.00    -0.275 OA
BRANCH  22  29
ATOM     25  C   UNL     1       1.172   1.400   0.804  0.00  0.00    +0.002 A 
ATOM     26  C   UNL     1       2.417   1.879   0.439  0.00  0.00    +0.002 A 
ATOM     27  C   UNL     1       3.369   1.017  -0.075  0.00  0.00    +0.022 A 
ATOM     28  C   UNL     1       3.078  -0.326  -0.225  0.00  0.00    +0.062 A 
ATOM     29  C   UNL     1       1.828  -0.809   0.141  0.00  0.00    +0.056 A 
ATOM     30  C   UNL     1       0.875   0.059   0.657  0.00  0.00    +0.025 A 
ATOM     31 CL   UNL     1       4.273  -1.406  -0.872  0.00  0.00    -0.082 Cl
ENDBRANCH  22  29
BRANCH  23  32
ATOM     32  C   UNL     1       1.938  -2.450   2.413  0.00  0.00    +0.107 C 
BRANCH  32  33
ATOM     33  C   UNL     1       1.982  -3.595   3.426  0.00  0.00    +0.075 C 
BRANCH  33  34
ATOM     34  S   UNL     1       2.365  -2.933   5.071  0.00  0.00    -0.178 S 
ATOM     35  H   UNL     1       2.375  -4.019   5.865  0.00  0.00    +0.102 HD
ENDBRANCH  33  34
ENDBRANCH  32  33
ENDBRANCH  23  32
ENDBRANCH   1  22
TORSDOF 9
