REMARK  Name = ZINC22757052
REMARK  9 active torsions:
REMARK  status: ('A' for Active; 'I' for Inactive)
REMARK    1  A    between atoms: C_1  and  C_2
REMARK    2  A    between atoms: C_2  and  C_3
REMARK    3  A    between atoms: C_3  and  C_4
REMARK    4  A    between atoms: C_4  and  C_5
REMARK    5  A    between atoms: C_7  and  C_10
REMARK    6  A    between atoms: C_10  and  S_11
REMARK    7  A    between atoms: S_11  and  C_12
REMARK    8  A    between atoms: C_15  and  C_18
REMARK    9  A    between atoms: N_16  and  N_17
REMARK                            x       y       z     vdW  Elec       q    Type
REMARK                         _______ _______ _______ _____ _____    ______ ____
ROOT
ATOM      1  C   UNL     1       0.008  -0.016   0.163  0.00  0.00    +0.209 A 
ATOM      2  N   UNL     1       1.069  -0.790   0.130  0.00  0.00    -0.121 NA
ATOM      3  N   UNL     1       0.720  -2.010  -0.077  0.00  0.00    -0.127 NA
ATOM      4  C   UNL     1      -0.585  -2.088  -0.199  0.00  0.00    +0.183 A 
ATOM      5  N   UNL     1      -1.081  -0.814  -0.048  0.00  0.00    -0.224 N 
ENDROOT
BRANCH   4   6
ATOM      6  C   UNL     1      -1.372  -3.314  -0.449  0.00  0.00    +0.039 A 
ATOM      7  C   UNL     1      -2.369  -3.319  -1.426  0.00  0.00    +0.014 A 
ATOM      8  C   UNL     1      -3.097  -4.467  -1.658  0.00  0.00    +0.021 A 
ATOM      9  C   UNL     1      -2.848  -5.611  -0.917  0.00  0.00    +0.042 A 
ATOM     10  C   UNL     1      -1.865  -5.611   0.057  0.00  0.00    +0.040 A 
ATOM     11  C   UNL     1      -1.125  -4.470   0.296  0.00  0.00    +0.053 A 
ATOM     12 CL   UNL     1       0.107  -4.471   1.518  0.00  0.00    -0.083 Cl
ATOM     13 CL   UNL     1      -3.773  -7.050  -1.212  0.00  0.00    -0.083 Cl
ENDBRANCH   4   6
BRANCH   5  14
ATOM     14  N   UNL     1      -2.390  -0.426  -0.100  0.00  0.00    -0.295 N 
ATOM     15  H   UNL     1      -3.178  -1.173  -0.279  0.00  0.00    +0.163 HD
ATOM     16  H   UNL     1      -2.656   0.632   0.036  0.00  0.00    +0.163 HD
ENDBRANCH   5  14
BRANCH   1  17
ATOM     17  S   UNL     1      -0.007   1.726   0.423  0.00  0.00    -0.075 S 
BRANCH  17  18
ATOM     18  C   UNL     1       1.766   2.030   0.618  0.00  0.00    +0.176 C 
BRANCH  18  21
ATOM     19  C   UNL     1       2.269   5.401   1.747  0.00  0.00    +0.172 A 
ATOM     20  N   UNL     1       2.029   4.106   2.021  0.00  0.00    -0.195 NA
ATOM     21  C   UNL     1       2.001   3.499   0.858  0.00  0.00    +0.238 A 
ATOM     22  O   UNL     1       2.213   4.434  -0.073  0.00  0.00    -0.337 OA
ATOM     23  N   UNL     1       2.364   5.515   0.456  0.00  0.00    -0.061 NA
BRANCH  19  24
ATOM     24  C   UNL     1       2.398   6.516   2.753  0.00  0.00    +0.080 C 
BRANCH  24  25
ATOM     25  C   UNL     1       1.021   7.132   3.010  0.00  0.00    +0.008 C 
BRANCH  25  27
ATOM     26  C   UNL     1      -0.225   8.880   4.289  0.00  0.00    +0.004 C 
ATOM     27  C   UNL     1       1.152   8.264   4.032  0.00  0.00    -0.003 C 
ENDBRANCH  25  27
ENDBRANCH  24  25
ENDBRANCH  19  24
ENDBRANCH  18  21
ENDBRANCH  17  18
ENDBRANCH   1  17
TORSDOF 8
