REMARK  Name = ZINC34699373
REMARK  13 active torsions:
REMARK  status: ('A' for Active; 'I' for Inactive)
REMARK    1  A    between atoms: C_1  and  C_2
REMARK    2  A    between atoms: N_4  and  C_5
REMARK    3  A    between atoms: N_4  and  C_13
REMARK    4  A    between atoms: C_5  and  C_6
REMARK    5  A    between atoms: C_13  and  C_14
REMARK    6  A    between atoms: N_17  and  C_29
REMARK    7  A    between atoms: C_19  and  C_21
REMARK    8  A    between atoms: C_24  and  O_27
REMARK    9  A    between atoms: O_27  and  C_28
REMARK   10  A    between atoms: C_29  and  C_30
REMARK   11  A    between atoms: C_33  and  O_37
REMARK   12  A    between atoms: C_35  and  O_36
REMARK   13  A    between atoms: O_37  and  C_38
REMARK                            x       y       z     vdW  Elec       q    Type
REMARK                         _______ _______ _______ _____ _____    ______ ____
ROOT
ATOM      1  C   UNL     1      -2.962   0.084  -1.442  0.00  0.00    -0.005 C 
ATOM      2  C   UNL     1      -3.384  -1.293  -1.998  0.00  0.00    -0.073 C 
ATOM      3  N   UNL     1      -4.850  -1.357  -1.765  0.00  0.00    +0.383 N 
ATOM      4  C   UNL     1      -5.328   0.016  -2.071  0.00  0.00    -0.070 C 
ATOM      5  C   UNL     1      -4.239   0.947  -1.490  0.00  0.00    +0.005 C 
ATOM      6  H   UNL     1      -5.045  -1.593  -0.803  0.00  0.00    -0.081 HD
ENDROOT
BRANCH   5   7
ATOM      7  C   UNL     1      -4.032   2.138  -2.391  0.00  0.00    -0.046 A 
ATOM      8  C   UNL     1      -3.726   1.949  -3.726  0.00  0.00    +0.007 A 
ATOM      9  C   UNL     1      -3.536   3.039  -4.553  0.00  0.00    +0.046 A 
ATOM     10  C   UNL     1      -3.652   4.324  -4.043  0.00  0.00    +0.120 A 
ATOM     11  C   UNL     1      -3.959   4.511  -2.703  0.00  0.00    +0.046 A 
ATOM     12  C   UNL     1      -4.154   3.418  -1.881  0.00  0.00    +0.007 A 
BRANCH  10  13
ATOM     13  O   UNL     1      -3.465   5.398  -4.854  0.00  0.00    -0.495 OA
ATOM     14  C   UNL     1      -3.600   6.691  -4.261  0.00  0.00    +0.277 C 
ENDBRANCH  10  13
ENDBRANCH   5   7
BRANCH   1  15
ATOM     15  C   UNL     1      -2.467  -0.054  -0.001  0.00  0.00    +0.110 C 
BRANCH  15  19
ATOM     16  C   UNL     1      -0.111   1.445  -0.482  0.00  0.00    +0.109 C 
ATOM     17  C   UNL     1      -0.040  -0.037  -0.220  0.00  0.00    +0.213 C 
ATOM     18  O   UNL     1       1.033  -0.602  -0.213  0.00  0.00    -0.276 OA
ATOM     19  N   UNL     1      -1.171  -0.736   0.007  0.00  0.00    -0.297 N 
BRANCH  19  20
ATOM     20  C   UNL     1      -1.102  -2.177   0.263  0.00  0.00    +0.142 C 
BRANCH  20  21
ATOM     21  C   UNL     1      -0.797  -2.415   1.719  0.00  0.00    -0.030 A 
ATOM     22  C   UNL     1       0.515  -2.506   2.144  0.00  0.00    +0.008 A 
ATOM     23  C   UNL     1       0.796  -2.724   3.480  0.00  0.00    +0.038 A 
ATOM     24  C   UNL     1      -0.238  -2.852   4.392  0.00  0.00    +0.123 A 
ATOM     25  C   UNL     1      -1.552  -2.760   3.965  0.00  0.00    +0.038 A 
ATOM     26  C   UNL     1      -1.830  -2.537   2.630  0.00  0.00    +0.008 A 
ATOM     27  F   UNL     1       0.035  -3.065   5.698  0.00  0.00    -0.205 F 
ENDBRANCH  20  21
ENDBRANCH  19  20
ENDBRANCH  15  19
ENDBRANCH   1  15
BRANCH   3  28
ATOM     28  C   UNL     1      -5.473  -2.332  -2.671  0.00  0.00    -0.039 C 
BRANCH  28  29
ATOM     29  C   UNL     1      -6.935  -2.468  -2.334  0.00  0.00    -0.022 A 
ATOM     30  C   UNL     1      -7.371  -3.534  -1.570  0.00  0.00    +0.009 A 
ATOM     31  C   UNL     1      -8.711  -3.663  -1.260  0.00  0.00    +0.046 A 
ATOM     32  C   UNL     1      -9.623  -2.720  -1.714  0.00  0.00    +0.124 A 
ATOM     33  C   UNL     1      -9.188  -1.650  -2.480  0.00  0.00    +0.091 A 
ATOM     34  C   UNL     1      -7.842  -1.520  -2.786  0.00  0.00    +0.122 A 
BRANCH  34  35
ATOM     35  O   UNL     1      -7.412  -0.469  -3.532  0.00  0.00    -0.506 OA
ATOM     36  H   UNL     1      -7.413  -0.636  -4.484  0.00  0.00    +0.292 HD
ENDBRANCH  34  35
BRANCH  32  37
ATOM     37  O   UNL     1     -10.941  -2.847  -1.408  0.00  0.00    -0.495 OA
ATOM     38  C   UNL     1     -11.317  -3.975  -0.616  0.00  0.00    +0.277 C 
ENDBRANCH  32  37
ENDBRANCH  28  29
ENDBRANCH   3  28
TORSDOF 10
