REMARK  Name = ZINC18195019
REMARK  8 active torsions:
REMARK  status: ('A' for Active; 'I' for Inactive)
REMARK    1  A    between atoms: C_1  and  C_2
REMARK    2  A    between atoms: C_3  and  C_18
REMARK    3  A    between atoms: N_10  and  C_11
REMARK    4  A    between atoms: C_11  and  C_12
REMARK    5  A    between atoms: C_18  and  C_19
REMARK    6  A    between atoms: N_21  and  N_22
REMARK    7  A    between atoms: C_23  and  C_24
REMARK    8  A    between atoms: C_33  and  O_34
REMARK                            x       y       z     vdW  Elec       q    Type
REMARK                         _______ _______ _______ _____ _____    ______ ____
ROOT
ATOM      1  C   UNL     1       3.675   3.969  -0.012  0.00  0.00    +0.135 C 
ENDROOT
BRANCH   1   4
ATOM      2  C   UNL     1       2.249   6.726   0.019  0.00  0.00    +0.064 C 
ATOM      3  C   UNL     1       1.560   5.385   0.017  0.00  0.00    +0.021 A 
ATOM      4  C   UNL     1       2.186   4.198   0.004  0.00  0.00    -0.010 A 
ATOM      5  C   UNL     1       1.146   3.166   0.008  0.00  0.00    +0.004 A 
ATOM      6  C   UNL     1       1.164   1.770   0.000  0.00  0.00    +0.010 A 
ATOM      7  C   UNL     1      -0.013   1.076   0.008  0.00  0.00    +0.001 A 
ATOM      8  C   UNL     1      -1.227   1.748   0.017  0.00  0.00    +0.002 A 
ATOM      9  C   UNL     1      -1.268   3.125   0.031  0.00  0.00    +0.026 A 
ATOM     10  C   UNL     1      -0.082   3.852   0.024  0.00  0.00    +0.050 A 
ATOM     11  N   UNL     1       0.205   5.198   0.029  0.00  0.00    -0.339 N 
BRANCH  11  12
ATOM     12  C   UNL     1      -0.793   6.271   0.043  0.00  0.00    +0.157 C 
BRANCH  12  13
ATOM     13  C   UNL     1      -1.148   6.646  -1.372  0.00  0.00    -0.028 A 
ATOM     14  C   UNL     1      -0.438   7.638  -2.023  0.00  0.00    +0.005 A 
ATOM     15  C   UNL     1      -0.761   7.979  -3.323  0.00  0.00    +0.000 A 
ATOM     16  C   UNL     1      -1.800   7.336  -3.969  0.00  0.00    +0.000 A 
ATOM     17  C   UNL     1      -2.514   6.348  -3.316  0.00  0.00    +0.000 A 
ATOM     18  C   UNL     1      -2.188   6.003  -2.017  0.00  0.00    +0.005 A 
ENDBRANCH  12  13
ENDBRANCH  11  12
ENDBRANCH   1   4
BRANCH   1  19
ATOM     19  C   UNL     1       4.158   3.901  -1.438  0.00  0.00    +0.237 C 
ATOM     20  O   UNL     1       3.369   4.026  -2.352  0.00  0.00    -0.274 OA
ATOM     21  N   UNL     1       5.465   3.702  -1.698  0.00  0.00    -0.207 N 
ATOM     22  H   UNL     1       6.095   3.602  -0.968  0.00  0.00    +0.177 HD
BRANCH  21  23
ATOM     23  N   UNL     1       5.914   3.639  -3.024  0.00  0.00    -0.188 NA
ATOM     24  C   UNL     1       7.174   3.446  -3.275  0.00  0.00    +0.142 C 
BRANCH  24  25
ATOM     25  C   UNL     1       7.645   3.380  -4.666  0.00  0.00    +0.044 A 
ATOM     26  C   UNL     1       9.060   3.170  -4.966  0.00  0.00    -0.006 A 
ATOM     27  C   UNL     1      10.008   3.014  -3.948  0.00  0.00    +0.009 A 
ATOM     28  C   UNL     1      11.317   2.815  -4.271  0.00  0.00    +0.001 A 
ATOM     29  C   UNL     1      11.725   2.759  -5.601  0.00  0.00    +0.001 A 
ATOM     30  C   UNL     1      10.829   2.900  -6.616  0.00  0.00    +0.008 A 
ATOM     31  C   UNL     1       9.470   3.107  -6.320  0.00  0.00    -0.017 A 
ATOM     32  C   UNL     1       8.516   3.258  -7.342  0.00  0.00    +0.012 A 
ATOM     33  C   UNL     1       7.205   3.458  -7.045  0.00  0.00    +0.046 A 
ATOM     34  C   UNL     1       6.752   3.521  -5.728  0.00  0.00    +0.126 A 
BRANCH  34  35
ATOM     35  O   UNL     1       5.433   3.723  -5.477  0.00  0.00    -0.506 OA
ATOM     36  H   UNL     1       5.184   4.654  -5.401  0.00  0.00    +0.292 HD
ENDBRANCH  34  35
ENDBRANCH  24  25
ENDBRANCH  21  23
ENDBRANCH   1  19
TORSDOF 7
