REMARK  Name = ZINC10108626
REMARK  12 active torsions:
REMARK  status: ('A' for Active; 'I' for Inactive)
REMARK    1  A    between atoms: C_1  and  C_2
REMARK    2  A    between atoms: C_5  and  O_36
REMARK    3  A    between atoms: C_6  and  N_8
REMARK    4  A    between atoms: C_9  and  C_35
REMARK    5  A    between atoms: N_18  and  C_23
REMARK    6  A    between atoms: N_21  and  C_22
REMARK    7  A    between atoms: C_23  and  C_24
REMARK    8  A    between atoms: C_24  and  C_25
REMARK    9  A    between atoms: C_25  and  N_72
REMARK   10  A    between atoms: C_26  and  C_34
REMARK   11  A    between atoms: C_31  and  C_33
REMARK   12  A    between atoms: O_36  and  C_37
REMARK                            x       y       z     vdW  Elec       q    Type
REMARK                         _______ _______ _______ _____ _____    ______ ____
ROOT
ATOM      1  N   UNL     1      -3.935  10.163   2.510  0.00  0.00    -0.279 N 
ATOM      2  C   UNL     1      -4.894   9.269   2.952  0.00  0.00    +0.041 A 
ATOM      3  C   UNL     1      -4.647   8.087   2.394  0.00  0.00    +0.116 A 
ATOM      4  N   UNL     1      -3.529   8.209   1.589  0.00  0.00    -0.277 N 
ATOM      5  C   UNL     1      -3.093   9.489   1.663  0.00  0.00    +0.223 A 
ATOM      6  N   UNL     1      -2.020   9.631   0.898  0.00  0.00    -0.193 NA
ATOM      7  C   UNL     1      -1.725   8.474   0.312  0.00  0.00    +0.170 A 
ATOM      8  C   UNL     1      -2.671   7.538   0.731  0.00  0.00    +0.157 A 
ATOM      9  C   UNL     1      -2.591   6.222   0.248  0.00  0.00    +0.283 A 
ATOM     10  O   UNL     1      -3.409   5.388   0.596  0.00  0.00    -0.265 OA
ATOM     11  N   UNL     1      -1.597   5.887  -0.600  0.00  0.00    -0.259 N 
ATOM     12  C   UNL     1      -0.690   6.795  -0.998  0.00  0.00    +0.333 A 
ATOM     13  O   UNL     1       0.189   6.458  -1.768  0.00  0.00    -0.246 OA
ATOM     14  N   UNL     1      -0.730   8.070  -0.566  0.00  0.00    -0.279 N 
ATOM     15  C   UNL     1       0.277   9.031  -1.023  0.00  0.00    +0.155 C 
ATOM     16  C   UNL     1      -6.022   9.581   3.902  0.00  0.00    +0.065 C 
ENDROOT
BRANCH   1  22
ATOM     17  C   UNL     1      -5.110  14.859   1.643  0.00  0.00    +0.044 C 
ATOM     18  C   UNL     1      -4.400  13.813   2.463  0.00  0.00    -0.048 A 
ATOM     19  C   UNL     1      -3.654  14.190   3.565  0.00  0.00    +0.007 A 
ATOM     20  C   UNL     1      -3.000  13.235   4.321  0.00  0.00    +0.048 A 
ATOM     21  C   UNL     1      -3.090  11.896   3.975  0.00  0.00    +0.144 A 
ATOM     22  C   UNL     1      -3.841  11.516   2.865  0.00  0.00    +0.091 A 
ATOM     23  C   UNL     1      -4.490  12.480   2.109  0.00  0.00    +0.033 A 
BRANCH  21  24
ATOM     24  O   UNL     1      -2.446  10.956   4.717  0.00  0.00    -0.493 OA
ATOM     25  C   UNL     1      -1.695  11.418   5.841  0.00  0.00    +0.277 C 
ENDBRANCH  21  24
ENDBRANCH   1  22
BRANCH  11  26
ATOM     26  C   UNL     1      -1.509   4.513  -1.101  0.00  0.00    +0.128 C 
BRANCH  26  27
ATOM     27  C   UNL     1      -0.635   3.683  -0.159  0.00  0.00    +0.003 C 
BRANCH  27  28
ATOM     28  C   UNL     1      -0.543   2.248  -0.682  0.00  0.00    -0.076 C 
BRANCH  28  36
ATOM     29  C   UNL     1       0.658   0.161  -0.427  0.00  0.00    -0.071 C 
ATOM     30  C   UNL     1       1.731  -0.553   0.398  0.00  0.00    -0.016 C 
ATOM     31  C   UNL     1       1.240  -0.710   1.839  0.00  0.00    -0.003 C 
ATOM     32  C   UNL     1       0.913   0.671   2.413  0.00  0.00    -0.016 C 
ATOM     33  C   UNL     1      -0.137   1.350   1.530  0.00  0.00    -0.071 C 
ATOM     34  C   UNL     1      -1.413   0.505   1.514  0.00  0.00    -0.013 C 
ATOM     35  C   UNL     1       1.153   0.339  -1.864  0.00  0.00    -0.013 C 
ATOM     36  N   UNL     1       0.407   1.494   0.162  0.00  0.00    +0.383 N 
ATOM     37  H   UNL     1       1.293   2.009   0.209  0.00  0.00    -0.081 HD
ENDBRANCH  28  36
ENDBRANCH  27  28
ENDBRANCH  26  27
ENDBRANCH  11  26
TORSDOF 6
