REMARK  Name = ZINC22348985
REMARK  13 active torsions:
REMARK  status: ('A' for Active; 'I' for Inactive)
REMARK    1  A    between atoms: C_1  and  C_2
REMARK    2  A    between atoms: C_2  and  C_4
REMARK    3  A    between atoms: C_2  and  N_7
REMARK    4  A    between atoms: C_4  and  C_5
REMARK    5  A    between atoms: C_4  and  C_6
REMARK    6  A    between atoms: C_8  and  C_10
REMARK    7  A    between atoms: C_10  and  N_11
REMARK    8  A    between atoms: N_11  and  C_12
REMARK    9  A    between atoms: N_11  and  S_20
REMARK   10  A    between atoms: C_17  and  O_18
REMARK   11  A    between atoms: O_18  and  C_19
REMARK   12  A    between atoms: S_20  and  C_23
REMARK   13  A    between atoms: C_25  and  N_30
REMARK                            x       y       z     vdW  Elec       q    Type
REMARK                         _______ _______ _______ _____ _____    ______ ____
ROOT
ATOM      1  N   UNL     1      -0.134  -1.155   4.655  0.00  0.00    -0.191 N 
ENDROOT
BRANCH   1   2
ATOM      2  C   UNL     1      -0.518  -2.424   5.105  0.00  0.00    +0.093 A 
ATOM      3  C   UNL     1       0.438  -3.318   5.564  0.00  0.00    +0.028 A 
ATOM      4  C   UNL     1       0.056  -4.569   6.009  0.00  0.00    +0.002 A 
ATOM      5  C   UNL     1      -1.278  -4.933   5.998  0.00  0.00    +0.004 A 
ATOM      6  C   UNL     1      -2.237  -4.047   5.541  0.00  0.00    +0.047 A 
ATOM      7  C   UNL     1      -1.863  -2.789   5.099  0.00  0.00    +0.143 A 
BRANCH   7   8
ATOM      8  O   UNL     1      -2.805  -1.915   4.654  0.00  0.00    -0.493 OA
ATOM      9  C   UNL     1      -4.163  -2.358   4.677  0.00  0.00    +0.277 C 
ENDBRANCH   7   8
ENDBRANCH   1   2
BRANCH   1  10
ATOM     10  S   UNL     1      -0.251   0.152   5.664  0.00  0.00    +0.077 S 
ATOM     11  O   UNL     1      -0.474   1.286   4.836  0.00  0.00    -0.150 OA
ATOM     12  O   UNL     1      -1.144  -0.217   6.706  0.00  0.00    -0.150 OA
BRANCH  10  13
ATOM     13  C   UNL     1       1.328   0.378   6.411  0.00  0.00    +0.129 A 
ATOM     14  C   UNL     1       2.127   1.441   6.033  0.00  0.00    +0.063 A 
ATOM     15  C   UNL     1       3.366   1.618   6.618  0.00  0.00    +0.128 A 
ATOM     16  C   UNL     1       3.808   0.731   7.583  0.00  0.00    +0.034 A 
ATOM     17  C   UNL     1       3.011  -0.332   7.962  0.00  0.00    +0.024 A 
ATOM     18  C   UNL     1       1.768  -0.506   7.380  0.00  0.00    +0.068 A 
ATOM     19 CL   UNL     1       0.763  -1.837   7.861  0.00  0.00    -0.082 Cl
BRANCH  15  20
ATOM     20  N   UNL     1       4.220   2.756   6.213  0.00  0.00    +0.056 N 
ATOM     21  O   UNL     1       3.834   3.532   5.369  0.00  0.00    -0.126 OA
ATOM     22  O   UNL     1       5.305   2.911   6.725  0.00  0.00    -0.126 OA
ENDBRANCH  15  20
ENDBRANCH  10  13
ENDBRANCH   1  10
BRANCH   1  23
ATOM     23  C   UNL     1       0.373  -0.985   3.291  0.00  0.00    +0.227 C 
BRANCH  23  25
ATOM     24  N   UNL     1      -0.555  -0.572   1.035  0.00  0.00    -0.311 N 
ATOM     25  C   UNL     1      -0.782  -0.755   2.351  0.00  0.00    +0.232 C 
ATOM     26  O   UNL     1      -1.917  -0.736   2.778  0.00  0.00    -0.274 OA
ATOM     27  H   UNL     1       0.353  -0.587   0.694  0.00  0.00    +0.149 HD
BRANCH  24  29
ATOM     28  C   UNL     1      -2.043   1.137   0.116  0.00  0.00    +0.028 C 
ATOM     29  C   UNL     1      -1.678  -0.348   0.122  0.00  0.00    +0.072 C 
BRANCH  29  30
ATOM     30  C   UNL     1      -1.280  -0.781  -1.291  0.00  0.00    +0.003 C 
ATOM     31  C   UNL     1      -2.453  -0.548  -2.245  0.00  0.00    +0.009 C 
ATOM     32  C   UNL     1      -0.074   0.039  -1.755  0.00  0.00    +0.009 C 
ENDBRANCH  29  30
ENDBRANCH  24  29
ENDBRANCH  23  25
ENDBRANCH   1  23
TORSDOF 9
