REMARK  Name = ZINC05451818
REMARK  5 active torsions:
REMARK  status: ('A' for Active; 'I' for Inactive)
REMARK    1  A    between atoms: C_1  and  C_2
REMARK    2  A    between atoms: C_2  and  C_3
REMARK    3  A    between atoms: C_2  and  N_4
REMARK    4  A    between atoms: C_6  and  C_13
REMARK    5  A    between atoms: N_14  and  N_15
REMARK                            x       y       z     vdW  Elec       q    Type
REMARK                         _______ _______ _______ _____ _____    ______ ____
ROOT
ATOM      1  N   UNL     1      -1.095  -2.070   0.001  0.00  0.00    -0.204 N 
ATOM      2  C   UNL     1      -2.283  -2.778   0.008  0.00  0.00    +0.256 A 
ATOM      3  N   UNL     1      -2.251  -4.104  -0.005  0.00  0.00    -0.192 NA
ATOM      4  C   UNL     1      -3.394  -4.782   0.007  0.00  0.00    +0.163 A 
ATOM      5  C   UNL     1      -4.603  -4.057   0.022  0.00  0.00    +0.137 A 
ATOM      6  C   UNL     1      -5.685  -5.056   0.026  0.00  0.00    +0.029 A 
ATOM      7  C   UNL     1      -7.075  -4.967   0.038  0.00  0.00    +0.012 A 
ATOM      8  C   UNL     1      -7.836  -6.117   0.038  0.00  0.00    +0.001 A 
ATOM      9  C   UNL     1      -7.222  -7.360   0.025  0.00  0.00    +0.002 A 
ATOM     10  C   UNL     1      -5.847  -7.463   0.013  0.00  0.00    +0.026 A 
ATOM     11  C   UNL     1      -5.063  -6.314   0.014  0.00  0.00    +0.050 A 
ATOM     12  N   UNL     1      -3.690  -6.123   0.002  0.00  0.00    -0.338 N 
ATOM     13  H   UNL     1      -3.032  -6.835  -0.007  0.00  0.00    +0.167 HD
ATOM     14  N   UNL     1      -4.568  -2.732   0.029  0.00  0.00    -0.142 NA
ATOM     15  N   UNL     1      -3.436  -2.116   0.022  0.00  0.00    -0.111 NA
ATOM     16  H   UNL     1      -0.248  -2.543  -0.009  0.00  0.00    +0.177 HD
ENDROOT
BRANCH   1  18
ATOM     17  C   UNL     1       0.002  -0.004   0.002  0.00  0.00    +0.140 C 
ATOM     18  N   UNL     1      -1.114  -0.669   0.009  0.00  0.00    -0.187 NA
BRANCH  17  21
ATOM     19  N   UNL     1       0.644   3.595   0.015  0.00  0.00    -0.343 N 
ATOM     20  C   UNL     1       1.061   2.296   0.004  0.00  0.00    +0.096 A 
ATOM     21  C   UNL     1      -0.018   1.468   0.010  0.00  0.00    +0.020 A 
ATOM     22  C   UNL     1      -1.211   2.333   0.020  0.00  0.00    +0.009 A 
ATOM     23  C   UNL     1      -0.733   3.654   0.028  0.00  0.00    +0.050 A 
ATOM     24  C   UNL     1      -1.640   4.708   0.042  0.00  0.00    +0.026 A 
ATOM     25  C   UNL     1      -2.994   4.450   0.053  0.00  0.00    +0.002 A 
ATOM     26  C   UNL     1      -3.465   3.145   0.051  0.00  0.00    +0.001 A 
ATOM     27  C   UNL     1      -2.583   2.087   0.037  0.00  0.00    +0.010 A 
BRANCH  19  29
ATOM     28  C   UNL     1       2.427   4.722   1.253  0.00  0.00    +0.030 C 
ATOM     29  C   UNL     1       1.533   4.760   0.012  0.00  0.00    +0.081 C 
ATOM     30  C   UNL     1       2.404   4.734  -1.246  0.00  0.00    +0.030 C 
ENDBRANCH  19  29
ENDBRANCH  17  21
ENDBRANCH   1  18
TORSDOF 3
