REMARK  Name = ZINC20915575
REMARK  7 active torsions:
REMARK  status: ('A' for Active; 'I' for Inactive)
REMARK    1  A    between atoms: C_1  and  O_2
REMARK    2  A    between atoms: O_2  and  C_3
REMARK    3  A    between atoms: C_6  and  C_9
REMARK    4  A    between atoms: C_9  and  N_10
REMARK    5  A    between atoms: C_15  and  C_24
REMARK    6  A    between atoms: C_27  and  O_31
REMARK    7  A    between atoms: O_31  and  C_32
REMARK                            x       y       z     vdW  Elec       q    Type
REMARK                         _______ _______ _______ _____ _____    ______ ____
ROOT
ATOM      1  N   UNL     1       0.391   3.687   1.657  0.00  0.00    -0.298 N 
ATOM      2  C   UNL     1       0.631   2.285   2.018  0.00  0.00    +0.110 C 
ATOM      3  C   UNL     1      -0.385   1.456   1.208  0.00  0.00    +0.003 C 
ATOM      4  C   UNL     1       0.216   1.105  -0.164  0.00  0.00    -0.007 C 
ATOM      5  C   UNL     1      -0.790   1.612  -1.209  0.00  0.00    -0.033 C 
ATOM      6  N   UNL     1      -1.903   2.252  -0.496  0.00  0.00    +0.394 N 
ATOM      7  C   UNL     1      -1.473   2.511   0.891  0.00  0.00    +0.018 C 
ATOM      8  C   UNL     1      -0.801   3.839   1.050  0.00  0.00    +0.206 C 
ATOM      9  O   UNL     1      -1.264   4.899   0.684  0.00  0.00    -0.277 OA
ATOM     10  C   UNL     1      -2.689   2.329   1.800  0.00  0.00    -0.004 C 
ATOM     11  C   UNL     1      -3.830   1.885   0.850  0.00  0.00    -0.019 C 
ATOM     12  C   UNL     1      -3.064   1.334  -0.381  0.00  0.00    -0.077 C 
ATOM     13  H   UNL     1      -2.171   3.164  -1.049  0.00  0.00    -0.079 HD
ENDROOT
BRANCH   5  14
ATOM     14  C   UNL     1      -1.306   0.454  -2.023  0.00  0.00    -0.025 A 
ATOM     15  C   UNL     1      -1.229  -0.832  -1.521  0.00  0.00    +0.008 A 
ATOM     16  C   UNL     1      -1.706  -1.895  -2.263  0.00  0.00    +0.046 A 
ATOM     17  C   UNL     1      -2.253  -1.675  -3.519  0.00  0.00    +0.123 A 
ATOM     18  C   UNL     1      -2.326  -0.385  -4.024  0.00  0.00    +0.084 A 
ATOM     19  C   UNL     1      -1.852   0.678  -3.276  0.00  0.00    +0.128 A 
ATOM     20  F   UNL     1      -1.922   1.934  -3.767  0.00  0.00    -0.205 F 
BRANCH  17  21
ATOM     21  O   UNL     1      -2.717  -2.720  -4.252  0.00  0.00    -0.495 OA
ATOM     22  C   UNL     1      -2.610  -4.020  -3.668  0.00  0.00    +0.277 C 
ENDBRANCH  17  21
ENDBRANCH   5  14
BRANCH   1  23
ATOM     23  C   UNL     1       1.328   4.782   1.923  0.00  0.00    +0.142 C 
BRANCH  23  27
ATOM     24  C   UNL     1       0.495   6.468   5.760  0.00  0.00    +0.120 A 
ATOM     25  C   UNL     1       1.393   5.417   5.643  0.00  0.00    +0.046 A 
ATOM     26  C   UNL     1       1.661   4.874   4.401  0.00  0.00    +0.009 A 
ATOM     27  C   UNL     1       1.034   5.376   3.276  0.00  0.00    -0.030 A 
ATOM     28  C   UNL     1       0.143   6.427   3.389  0.00  0.00    +0.009 A 
ATOM     29  C   UNL     1      -0.132   6.971   4.629  0.00  0.00    +0.046 A 
BRANCH  24  31
ATOM     30  C   UNL     1      -0.705   8.084   7.025  0.00  0.00    +0.277 C 
ATOM     31  O   UNL     1       0.230   7.005   6.980  0.00  0.00    -0.495 OA
ENDBRANCH  24  31
ENDBRANCH  23  27
ENDBRANCH   1  23
TORSDOF 5
