REMARK  Name = ZINC25058799
REMARK  11 active torsions:
REMARK  status: ('A' for Active; 'I' for Inactive)
REMARK    1  A    between atoms: C_1  and  C_2
REMARK    2  A    between atoms: C_5  and  N_9
REMARK    3  A    between atoms: C_6  and  C_8
REMARK    4  A    between atoms: C_13  and  S_14
REMARK    5  A    between atoms: S_14  and  C_15
REMARK    6  A    between atoms: C_15  and  C_16
REMARK    7  A    between atoms: N_18  and  N_19
REMARK    8  A    between atoms: C_22  and  C_26
REMARK    9  A    between atoms: C_22  and  C_27
REMARK   10  A    between atoms: C_31  and  O_33
REMARK   11  A    between atoms: O_33  and  C_34
REMARK                            x       y       z     vdW  Elec       q    Type
REMARK                         _______ _______ _______ _____ _____    ______ ____
ROOT
ATOM      1  C   UNL     1      -1.659   4.793  -4.592  0.00  0.00    +0.240 C 
ATOM      2  O   UNL     1      -0.586   4.411  -5.008  0.00  0.00    -0.273 OA
ATOM      3  N   UNL     1      -2.415   5.623  -5.339  0.00  0.00    -0.223 N 
ATOM      4  H   UNL     1      -3.388   5.969  -4.962  0.00  0.00    +0.174 HD
ENDROOT
BRANCH   3   5
ATOM      5  N   UNL     1      -1.960   6.043  -6.596  0.00  0.00    -0.137 N 
ATOM      6  C   UNL     1      -1.481   7.276  -6.853  0.00  0.00    +0.267 C 
ATOM      7  O   UNL     1      -1.366   8.196  -6.071  0.00  0.00    -0.271 OA
ATOM      8  C   UNL     1      -1.114   7.274  -8.324  0.00  0.00    +0.137 C 
ATOM      9  N   UNL     1      -1.468   5.915  -8.767  0.00  0.00    -0.280 N 
ATOM     10  C   UNL     1      -1.954   5.273  -7.689  0.00  0.00    +0.327 C 
ATOM     11  O   UNL     1      -2.343   4.121  -7.707  0.00  0.00    -0.251 OA
ATOM     12  C   UNL     1      -1.935   8.319  -9.082  0.00  0.00    +0.047 C 
ATOM     13  H   UNL     1      -1.311   5.619  -9.815  0.00  0.00    +0.152 HD
BRANCH   8  14
ATOM     14  C   UNL     1       0.361   7.523  -8.507  0.00  0.00    -0.012 A 
ATOM     15  C   UNL     1       1.031   8.369  -7.642  0.00  0.00    +0.006 A 
ATOM     16  C   UNL     1       2.386   8.595  -7.804  0.00  0.00    +0.004 A 
ATOM     17  C   UNL     1       3.071   7.985  -8.836  0.00  0.00    +0.045 A 
ATOM     18  C   UNL     1       2.400   7.140  -9.708  0.00  0.00    +0.120 A 
ATOM     19  C   UNL     1       1.042   6.910  -9.541  0.00  0.00    +0.051 A 
BRANCH  18  20
ATOM     20  O   UNL     1       3.072   6.538 -10.725  0.00  0.00    -0.495 OA
ATOM     21  C   UNL     1       4.468   6.821 -10.837  0.00  0.00    +0.277 C 
ENDBRANCH  18  20
ENDBRANCH   8  14
ENDBRANCH   3   5
BRANCH   1  22
ATOM     22  C   UNL     1      -2.148   4.341  -3.240  0.00  0.00    +0.174 C 
BRANCH  22  23
ATOM     23  S   UNL     1      -0.920   3.243  -2.491  0.00  0.00    -0.078 S 
BRANCH  23  28
ATOM     24  N   UNL     1      -1.240   2.070   0.019  0.00  0.00    -0.294 N 
ATOM     25  C   UNL     1      -2.182   2.053   1.025  0.00  0.00    +0.113 A 
ATOM     26  C   UNL     1      -3.193   2.844   0.628  0.00  0.00    +0.131 A 
ATOM     27  N   UNL     1      -2.897   3.333  -0.589  0.00  0.00    -0.230 NA
ATOM     28  C   UNL     1      -1.726   2.877  -0.967  0.00  0.00    +0.174 A 
BRANCH  24  33
ATOM     29  C   UNL     1       3.711  -0.706  -0.039  0.00  0.00    +0.044 C 
ATOM     30  C   UNL     1       2.396   0.031  -0.021  0.00  0.00    -0.050 A 
ATOM     31  C   UNL     1       1.208  -0.677  -0.013  0.00  0.00    +0.005 A 
ATOM     32  C   UNL     1       0.002  -0.004   0.002  0.00  0.00    +0.027 A 
ATOM     33  C   UNL     1      -0.017   1.384   0.010  0.00  0.00    +0.051 A 
ATOM     34  C   UNL     1       1.177   2.092   0.002  0.00  0.00    -0.026 A 
ATOM     35  C   UNL     1       2.381   1.413  -0.013  0.00  0.00    +0.008 A 
ATOM     36  C   UNL     1       1.161   3.599   0.010  0.00  0.00    +0.046 C 
ENDBRANCH  24  33
ENDBRANCH  23  28
ENDBRANCH  22  23
ENDBRANCH   1  22
TORSDOF 7
