REMARK  Name = ZINC13072637
REMARK  10 active torsions:
REMARK  status: ('A' for Active; 'I' for Inactive)
REMARK    1  A    between atoms: C_1  and  C_2
REMARK    2  A    between atoms: C_2  and  N_3
REMARK    3  A    between atoms: C_4  and  C_20
REMARK    4  A    between atoms: N_6  and  C_9
REMARK    5  A    between atoms: C_9  and  N_50
REMARK    6  A    between atoms: C_10  and  N_50
REMARK    7  A    between atoms: C_11  and  C_12
REMARK    8  A    between atoms: C_11  and  N_50
REMARK    9  A    between atoms: C_15  and  O_18
REMARK   10  A    between atoms: O_18  and  C_19
REMARK                            x       y       z     vdW  Elec       q    Type
REMARK                         _______ _______ _______ _____ _____    ______ ____
ROOT
ATOM      1  N   UNL     1      -2.106   1.080   1.295  0.00  0.00    -0.303 N 
ATOM      2  C   UNL     1      -3.219   1.748   0.824  0.00  0.00    +0.163 A 
ATOM      3  N   UNL     1      -4.259   0.978   0.972  0.00  0.00    -0.152 NA
ATOM      4  N   UNL     1      -3.832  -0.220   1.561  0.00  0.00    -0.257 N 
ATOM      5  C   UNL     1      -2.499  -0.127   1.748  0.00  0.00    +0.177 A 
ATOM      6  S   UNL     1      -1.489  -1.326   2.437  0.00  0.00    -0.011 S 
ENDROOT
BRANCH   2   7
ATOM      7  C   UNL     1      -3.227   3.110   0.243  0.00  0.00    +0.019 A 
ATOM      8  C   UNL     1      -4.412   3.845   0.201  0.00  0.00    +0.013 A 
ATOM      9  C   UNL     1      -4.413   5.116  -0.337  0.00  0.00    +0.021 A 
ATOM     10  C   UNL     1      -3.243   5.657  -0.843  0.00  0.00    +0.041 A 
ATOM     11  C   UNL     1      -2.066   4.929  -0.808  0.00  0.00    +0.021 A 
ATOM     12  C   UNL     1      -2.052   3.660  -0.269  0.00  0.00    +0.013 A 
ATOM     13 CL   UNL     1      -3.253   7.253  -1.525  0.00  0.00    -0.084 Cl
ENDBRANCH   2   7
BRANCH   1  15
ATOM     14  C   UNL     1       0.000   1.121   0.053  0.00  0.00    +0.027 C 
ATOM     15  C   UNL     1      -0.735   1.597   1.308  0.00  0.00    +0.122 C 
ENDBRANCH   1  15
BRANCH   4  16
ATOM     16  C   UNL     1      -4.678  -1.364   1.909  0.00  0.00    +0.072 C 
BRANCH  16  18
ATOM     17  C   UNL     1      -4.074  -1.277   4.253  0.00  0.00    -0.093 C 
ATOM     18  N   UNL     1      -5.187  -1.180   3.285  0.00  0.00    +0.394 N 
ATOM     19  H   UNL     1      -5.614  -0.249   3.360  0.00  0.00    -0.079 HD
BRANCH  18  20
ATOM     20  C   UNL     1      -6.209  -2.203   3.586  0.00  0.00    -0.041 C 
BRANCH  20  21
ATOM     21  C   UNL     1      -6.866  -1.862   4.899  0.00  0.00    -0.064 A 
ATOM     22  C   UNL     1      -6.358  -2.376   6.079  0.00  0.00    +0.005 A 
ATOM     23  C   UNL     1      -6.955  -2.060   7.284  0.00  0.00    +0.046 A 
ATOM     24  C   UNL     1      -8.071  -1.236   7.310  0.00  0.00    +0.120 A 
ATOM     25  C   UNL     1      -8.581  -0.727   6.125  0.00  0.00    +0.046 A 
ATOM     26  C   UNL     1      -7.978  -1.041   4.922  0.00  0.00    +0.005 A 
BRANCH  24  27
ATOM     27  O   UNL     1      -8.662  -0.928   8.494  0.00  0.00    -0.495 OA
ATOM     28  C   UNL     1      -8.083  -1.488   9.674  0.00  0.00    +0.277 C 
ENDBRANCH  24  27
ENDBRANCH  20  21
ENDBRANCH  18  20
ENDBRANCH  16  18
ENDBRANCH   4  16
TORSDOF 7
