REMARK  Name = ZINC08963386
REMARK  7 active torsions:
REMARK  status: ('A' for Active; 'I' for Inactive)
REMARK    1  A    between atoms: C_1  and  N_2
REMARK    2  A    between atoms: C_9  and  C_11
REMARK    3  A    between atoms: C_11  and  C_13
REMARK    4  A    between atoms: C_11  and  N_55
REMARK    5  A    between atoms: C_13  and  N_14
REMARK    6  A    between atoms: C_15  and  C_17
REMARK    7  A    between atoms: C_20  and  N_24
REMARK                            x       y       z     vdW  Elec       q    Type
REMARK                         _______ _______ _______ _____ _____    ______ ____
ROOT
ATOM      1  C   UNL     1      -3.379   6.139  -1.056  0.00  0.00    -0.020 C 
ENDROOT
BRANCH   1  10
ATOM      2  C   UNL     1       2.191   4.059   1.495  0.00  0.00    +0.129 C 
ATOM      3  N   UNL     1       1.042   3.266   1.038  0.00  0.00    -0.332 N 
ATOM      4  C   UNL     1       1.407   2.424  -0.121  0.00  0.00    +0.109 C 
ATOM      5  C   UNL     1       0.082   2.337  -0.913  0.00  0.00    +0.056 C 
ATOM      6  C   UNL     1      -0.643   3.601  -0.495  0.00  0.00    -0.025 A 
ATOM      7  C   UNL     1      -0.022   4.093   0.647  0.00  0.00    +0.033 A 
ATOM      8  C   UNL     1      -0.502   5.265   1.228  0.00  0.00    +0.023 A 
ATOM      9  C   UNL     1      -1.583   5.921   0.675  0.00  0.00    +0.004 A 
ATOM     10  C   UNL     1      -2.197   5.421  -0.458  0.00  0.00    -0.059 A 
ATOM     11  C   UNL     1      -1.724   4.259  -1.042  0.00  0.00    +0.007 A 
ENDBRANCH   1  10
BRANCH   1  16
ATOM     12  C   UNL     1      -5.598   7.020  -0.577  0.00  0.00    -0.078 C 
ATOM     13  C   UNL     1      -6.666   6.749   0.513  0.00  0.00    -0.020 C 
ATOM     14  C   UNL     1      -6.287   5.340   1.026  0.00  0.00    -0.020 C 
ATOM     15  C   UNL     1      -4.804   5.162   0.652  0.00  0.00    -0.078 C 
ATOM     16  N   UNL     1      -4.393   6.410   0.007  0.00  0.00    +0.385 N 
ATOM     17  H   UNL     1      -3.987   7.044   0.706  0.00  0.00    -0.081 HD
ENDBRANCH   1  16
BRANCH   1  18
ATOM     18  C   UNL     1      -2.914   7.459  -1.675  0.00  0.00    +0.094 C 
BRANCH  18  19
ATOM     19  N   UNL     1      -4.009   8.047  -2.450  0.00  0.00    -0.313 N 
ATOM     20  C   UNL     1      -3.878   9.283  -2.971  0.00  0.00    +0.245 C 
ATOM     21  O   UNL     1      -2.850   9.909  -2.798  0.00  0.00    -0.270 OA
ATOM     22  H   UNL     1      -4.829   7.548  -2.587  0.00  0.00    +0.149 HD
BRANCH  20  23
ATOM     23  C   UNL     1      -4.983   9.877  -3.752  0.00  0.00    +0.055 A 
ATOM     24  C   UNL     1      -6.165   9.161  -3.951  0.00  0.00    +0.017 A 
ATOM     25  C   UNL     1      -7.192   9.721  -4.681  0.00  0.00    +0.033 A 
ATOM     26  C   UNL     1      -7.055  10.991  -5.215  0.00  0.00    +0.128 A 
ATOM     27  C   UNL     1      -5.888  11.707  -5.022  0.00  0.00    +0.053 A 
ATOM     28  C   UNL     1      -4.852  11.160  -4.288  0.00  0.00    +0.055 A 
ATOM     29 CL   UNL     1      -3.391  12.063  -4.040  0.00  0.00    -0.083 Cl
BRANCH  26  30
ATOM     30  N   UNL     1      -8.163  11.585  -5.996  0.00  0.00    +0.056 N 
ATOM     31  O   UNL     1      -9.192  10.957  -6.168  0.00  0.00    -0.126 OA
ATOM     32  O   UNL     1      -8.045  12.702  -6.468  0.00  0.00    -0.126 OA
ENDBRANCH  26  30
ENDBRANCH  20  23
ENDBRANCH  18  19
ENDBRANCH   1  18
TORSDOF 6
