REMARK  Name = ZINC58989365
REMARK  9 active torsions:
REMARK  status: ('A' for Active; 'I' for Inactive)
REMARK    1  A    between atoms: C_5  and  C_7
REMARK    2  A    between atoms: N_8  and  N_9
REMARK    3  A    between atoms: C_10  and  C_12
REMARK    4  A    between atoms: C_12  and  C_13
REMARK    5  A    between atoms: C_13  and  C_14
REMARK    6  A    between atoms: C_14  and  S_15
REMARK    7  A    between atoms: S_15  and  C_16
REMARK    8  A    between atoms: C_19  and  C_22
REMARK    9  A    between atoms: N_20  and  N_21
REMARK                            x       y       z     vdW  Elec       q    Type
REMARK                         _______ _______ _______ _____ _____    ______ ____
ROOT
ATOM      1  C   UNL     1       5.102  -8.356  -0.098  0.00  0.00    +0.078 C 
ENDROOT
BRANCH   1   2
ATOM      2  C   UNL     1       5.073  -6.826  -0.089  0.00  0.00    +0.020 C 
BRANCH   2   3
ATOM      3  C   UNL     1       3.622  -6.343  -0.071  0.00  0.00    +0.098 C 
BRANCH   3   5
ATOM      4  N   UNL     1       2.413  -4.185  -0.046  0.00  0.00    -0.207 N 
ATOM      5  C   UNL     1       3.593  -4.837  -0.062  0.00  0.00    +0.232 C 
ATOM      6  O   UNL     1       4.632  -4.210  -0.069  0.00  0.00    -0.274 OA
ATOM      7  H   UNL     1       1.583  -4.686  -0.041  0.00  0.00    +0.177 HD
BRANCH   4   9
ATOM      8  C   UNL     1       1.251  -2.157  -0.023  0.00  0.00    +0.139 C 
ATOM      9  N   UNL     1       2.387  -2.784  -0.038  0.00  0.00    -0.188 NA
BRANCH   8  14
ATOM     10  C   UNL     1      -0.017   1.375   0.010  0.00  0.00    +0.001 A 
ATOM     11  C   UNL     1       1.170   2.087   0.002  0.00  0.00    +0.001 A 
ATOM     12  C   UNL     1       2.383   1.423  -0.013  0.00  0.00    +0.020 A 
ATOM     13  C   UNL     1       2.418   0.042  -0.021  0.00  0.00    +0.050 A 
ATOM     14  C   UNL     1       1.223  -0.683  -0.014  0.00  0.00    +0.013 A 
ATOM     15  C   UNL     1       0.002  -0.004   0.002  0.00  0.00    +0.011 A 
ATOM     16 CL   UNL     1       3.941  -0.790  -0.041  0.00  0.00    -0.083 Cl
ENDBRANCH   8  14
ENDBRANCH   4   9
ENDBRANCH   3   5
ENDBRANCH   2   3
ENDBRANCH   1   2
BRANCH   1  17
ATOM     17  S   UNL     1       6.824  -8.928  -0.119  0.00  0.00    -0.084 S 
BRANCH  17  18
ATOM     18  C   UNL     1       6.689 -10.684  -0.128  0.00  0.00    +0.209 A 
ATOM     19  N   UNL     1       5.574 -11.381  -0.127  0.00  0.00    -0.121 NA
ATOM     20  N   UNL     1       5.840 -12.638  -0.135  0.00  0.00    -0.127 NA
ATOM     21  C   UNL     1       7.139 -12.822  -0.142  0.00  0.00    +0.182 A 
ATOM     22  N   UNL     1       7.723 -11.576  -0.143  0.00  0.00    -0.224 N 
BRANCH  21  23
ATOM     23  C   UNL     1       7.843 -14.122  -0.152  0.00  0.00    +0.021 A 
ATOM     24  C   UNL     1       9.202 -14.186   0.160  0.00  0.00    +0.013 A 
ATOM     25  C   UNL     1       9.853 -15.402   0.148  0.00  0.00    +0.016 A 
ATOM     26  C   UNL     1       9.161 -16.558  -0.172  0.00  0.00    +0.018 A 
ATOM     27  C   UNL     1       7.813 -16.501  -0.483  0.00  0.00    +0.016 A 
ATOM     28  C   UNL     1       7.150 -15.292  -0.469  0.00  0.00    +0.013 A 
ATOM     29 BR   UNL     1      10.061 -18.221  -0.186  0.00  0.00    -0.050 Br
ENDBRANCH  21  23
BRANCH  22  30
ATOM     30  N   UNL     1       9.059 -11.291  -0.155  0.00  0.00    -0.295 N 
ATOM     31  H   UNL     1       9.422 -11.221   0.783  0.00  0.00    +0.163 HD
ATOM     32  H   UNL     1       9.570 -11.976  -0.691  0.00  0.00    +0.163 HD
ENDBRANCH  22  30
ENDBRANCH  17  18
ENDBRANCH   1  17
TORSDOF 9
