REMARK  Name = ZINC24773723
REMARK  7 active torsions:
REMARK  status: ('A' for Active; 'I' for Inactive)
REMARK    1  A    between atoms: C_1  and  C_2
REMARK    2  A    between atoms: C_5  and  C_31
REMARK    3  A    between atoms: C_6  and  S_8
REMARK    4  A    between atoms: S_8  and  C_11
REMARK    5  A    between atoms: C_11  and  C_16
REMARK    6  A    between atoms: C_23  and  C_30
REMARK    7  A    between atoms: C_25  and  O_26
REMARK                            x       y       z     vdW  Elec       q    Type
REMARK                         _______ _______ _______ _____ _____    ______ ____
ROOT
ATOM      1  C   UNL     1       3.743   2.582   1.066  0.00  0.00    +0.245 C 
ATOM      2  O   UNL     1       4.894   2.216   0.947  0.00  0.00    -0.273 OA
ATOM      3  N   UNL     1       2.781   1.688   1.370  0.00  0.00    -0.284 N 
ATOM      4  C   UNL     1       3.123   0.370   1.673  0.00  0.00    +0.037 A 
ATOM      5  C   UNL     1       4.338   0.098   2.303  0.00  0.00    +0.024 A 
ATOM      6  C   UNL     1       4.683  -1.185   2.611  0.00  0.00    +0.013 A 
ATOM      7  C   UNL     1       3.819  -2.237   2.283  0.00  0.00    +0.021 A 
ATOM      8  C   UNL     1       4.168  -3.624   2.597  0.00  0.00    -0.033 A 
ATOM      9  C   UNL     1       3.287  -4.600   2.254  0.00  0.00    +0.091 A 
ATOM     10  C   UNL     1       2.078  -4.261   1.614  0.00  0.00    +0.285 A 
ATOM     11  O   UNL     1       1.764  -2.987   1.329  0.00  0.00    -0.425 OA
ATOM     12  C   UNL     1       2.595  -1.969   1.643  0.00  0.00    +0.141 A 
ATOM     13  C   UNL     1       2.256  -0.659   1.342  0.00  0.00    +0.070 A 
ATOM     14  C   UNL     1       5.467  -3.960   3.283  0.00  0.00    +0.045 C 
ATOM     15  H   UNL     1       1.726   1.999   1.379  0.00  0.00    +0.155 HD
ENDROOT
BRANCH   1  16
ATOM     16  C   UNL     1       3.390   4.034   0.876  0.00  0.00    +0.168 C 
ATOM     17  C   UNL     1       2.489   4.516   2.031  0.00  0.00    +0.039 C 
ATOM     18  C   UNL     1       3.473   5.168   3.034  0.00  0.00    +0.003 C 
ATOM     19  C   UNL     1       4.492   5.873   2.105  0.00  0.00    +0.003 C 
ATOM     20  C   UNL     1       4.664   4.897   0.922  0.00  0.00    +0.039 C 
BRANCH  16  21
ATOM     21  S   UNL     1       2.542   4.264  -0.711  0.00  0.00    +0.011 S 
ATOM     22  O   UNL     1       3.382   3.851  -1.780  0.00  0.00    -0.168 OA
ATOM     23  O   UNL     1       1.899   5.531  -0.743  0.00  0.00    -0.168 OA
BRANCH  21  29
ATOM     24  C   UNL     1      -2.485   3.017  -0.005  0.00  0.00    +0.044 C 
ATOM     25  C   UNL     1      -1.088   2.577  -0.358  0.00  0.00    -0.049 A 
ATOM     26  C   UNL     1      -0.839   1.254  -0.676  0.00  0.00    +0.004 A 
ATOM     27  C   UNL     1       0.443   0.850  -0.995  0.00  0.00    +0.005 A 
ATOM     28  C   UNL     1       1.475   1.769  -1.007  0.00  0.00    -0.026 A 
ATOM     29  C   UNL     1       1.226   3.092  -0.695  0.00  0.00    +0.092 A 
ATOM     30  C   UNL     1      -0.056   3.496  -0.370  0.00  0.00    +0.030 A 
ATOM     31  C   UNL     1       2.872   1.329  -1.361  0.00  0.00    +0.046 C 
ENDBRANCH  21  29
ENDBRANCH  16  21
ENDBRANCH   1  16
BRANCH  10  32
ATOM     32  O   UNL     1       1.297  -5.145   1.312  0.00  0.00    -0.480 OA
ATOM     33  H   UNL     1       0.350  -4.896   0.812  0.00  0.00    +0.295 HD
ENDBRANCH  10  32
TORSDOF 4
