REMARK  Name = ZINC46917839
REMARK  8 active torsions:
REMARK  status: ('A' for Active; 'I' for Inactive)
REMARK    1  A    between atoms: C_4  and  C_7
REMARK    2  A    between atoms: C_7  and  C_9
REMARK    3  A    between atoms: C_7  and  N_27
REMARK    4  A    between atoms: C_9  and  N_10
REMARK    5  A    between atoms: C_11  and  C_13
REMARK    6  A    between atoms: C_13  and  C_14
REMARK    7  A    between atoms: C_14  and  C_16
REMARK    8  A    between atoms: C_14  and  N_23
REMARK                            x       y       z     vdW  Elec       q    Type
REMARK                         _______ _______ _______ _____ _____    ______ ____
ROOT
ATOM      1  N   UNL     1       4.781  -2.650   2.639  0.00  0.00    -0.316 N 
ATOM      2  C   UNL     1       5.425  -3.235   3.668  0.00  0.00    +0.215 C 
ATOM      3  O   UNL     1       5.060  -3.032   4.806  0.00  0.00    -0.276 OA
ATOM      4  H   UNL     1       5.073  -2.812   1.728  0.00  0.00    +0.149 HD
ENDROOT
BRANCH   1   5
ATOM      5  C   UNL     1       3.639  -1.769   2.896  0.00  0.00    +0.093 C 
BRANCH   5   6
ATOM      6  C   UNL     1       3.019  -1.337   1.565  0.00  0.00    -0.020 C 
BRANCH   6  10
ATOM      7  C   UNL     1       5.854   0.967  -0.648  0.00  0.00    +0.000 A 
ATOM      8  C   UNL     1       5.662  -0.368  -0.951  0.00  0.00    +0.000 A 
ATOM      9  C   UNL     1       4.744  -1.113  -0.234  0.00  0.00    +0.002 A 
ATOM     10  C   UNL     1       4.020  -0.524   0.785  0.00  0.00    -0.059 A 
ATOM     11  C   UNL     1       4.213   0.811   1.089  0.00  0.00    +0.002 A 
ATOM     12  C   UNL     1       5.130   1.557   0.371  0.00  0.00    +0.000 A 
ENDBRANCH   6  10
BRANCH   6  13
ATOM     13  N   UNL     1       1.823  -0.523   1.824  0.00  0.00    +0.385 N 
ATOM     14  C   UNL     1       1.115  -0.234   0.550  0.00  0.00    -0.078 C 
ATOM     15  C   UNL     1      -0.326   0.096   1.013  0.00  0.00    -0.020 C 
ATOM     16  C   UNL     1      -0.550  -0.894   2.179  0.00  0.00    -0.020 C 
ATOM     17  C   UNL     1       0.862  -1.279   2.656  0.00  0.00    -0.078 C 
ATOM     18  H   UNL     1       2.079   0.337   2.283  0.00  0.00    -0.081 HD
ENDBRANCH   6  13
ENDBRANCH   5   6
ENDBRANCH   1   5
BRANCH   2  19
ATOM     19  C   UNL     1       6.600  -4.141   3.404  0.00  0.00    +0.123 C 
BRANCH  19  20
ATOM     20  C   UNL     1       7.145  -4.670   4.732  0.00  0.00    +0.116 C 
BRANCH  20  21
ATOM     21  C   UNL     1       8.393  -5.476   4.477  0.00  0.00    +0.008 A 
ATOM     22  C   UNL     1       8.698  -5.891   3.195  0.00  0.00    +0.008 A 
ATOM     23  C   UNL     1       9.843  -6.630   2.961  0.00  0.00    +0.000 A 
ATOM     24  C   UNL     1      10.683  -6.955   4.010  0.00  0.00    +0.003 A 
ATOM     25  C   UNL     1      10.380  -6.542   5.293  0.00  0.00    +0.039 A 
ATOM     26  C   UNL     1       9.236  -5.796   5.527  0.00  0.00    +0.128 A 
ATOM     27  F   UNL     1       8.941  -5.387   6.781  0.00  0.00    -0.205 F 
ENDBRANCH  20  21
BRANCH  20  28
ATOM     28  N   UNL     1       6.136  -5.519   5.370  0.00  0.00    -0.292 N 
ATOM     29  C   UNL     1       5.732  -6.655   4.766  0.00  0.00    +0.298 C 
ATOM     30  O   UNL     1       6.274  -7.025   3.742  0.00  0.00    -0.253 OA
ATOM     31  N   UNL     1       4.729  -7.380   5.298  0.00  0.00    -0.313 N 
ATOM     32  H   UNL     1       5.759  -5.265   6.226  0.00  0.00    +0.151 HD
ATOM     33  H   UNL     1       4.297  -7.085   6.115  0.00  0.00    +0.146 HD
ATOM     34  H   UNL     1       4.438  -8.197   4.864  0.00  0.00    +0.146 HD
ENDBRANCH  20  28
ENDBRANCH  19  20
ENDBRANCH   2  19
TORSDOF 8
