REMARK  Name = ZINC38959924
REMARK  4 active torsions:
REMARK  status: ('A' for Active; 'I' for Inactive)
REMARK    1  A    between atoms: C_8  and  C_16
REMARK    2  A    between atoms: C_18  and  O_34
REMARK    3  A    between atoms: C_21  and  S_33
REMARK    4  A    between atoms: N_23  and  C_26
REMARK                            x       y       z     vdW  Elec       q    Type
REMARK                         _______ _______ _______ _____ _____    ______ ____
ROOT
ATOM      1  C   UNL     1      -6.550  -0.461   1.058  0.00  0.00    +0.141 C 
ATOM      2  C   UNL     1      -8.082  -0.465   1.072  0.00  0.00    +0.198 C 
ATOM      3  N   UNL     1      -8.534  -1.271   2.217  0.00  0.00    -0.264 NA
ATOM      4  C   UNL     1      -8.219  -0.592   3.479  0.00  0.00    +0.208 C 
ATOM      5  N   UNL     1      -6.809  -0.220   3.523  0.00  0.00    -0.243 N 
ATOM      6  C   UNL     1      -6.038  -0.137   2.434  0.00  0.00    +0.230 C 
ATOM      7  O   UNL     1      -4.883   0.211   2.561  0.00  0.00    -0.275 OA
ATOM      8  H   UNL     1      -9.521  -1.471   2.151  0.00  0.00    +0.127 HD
ENDROOT
BRANCH   1  16
ATOM      9  C   UNL     1      -8.146   6.220   1.069  0.00  0.00    +0.001 A 
ATOM     10  C   UNL     1      -7.819   5.933   2.386  0.00  0.00    +0.002 A 
ATOM     11  C   UNL     1      -7.276   4.713   2.724  0.00  0.00    +0.026 A 
ATOM     12  C   UNL     1      -7.051   3.758   1.738  0.00  0.00    +0.047 A 
ATOM     13  N   UNL     1      -6.534   2.480   1.758  0.00  0.00    -0.356 N 
ATOM     14  C   UNL     1      -6.529   1.961   0.497  0.00  0.00    +0.038 A 
ATOM     15  H   UNL     1      -6.221   2.019   2.552  0.00  0.00    +0.166 HD
ATOM     16  C   UNL     1      -6.052   0.593   0.067  0.00  0.00    +0.117 C 
ATOM     17  N   UNL     1      -6.595   0.311  -1.272  0.00  0.00    -0.307 NA
ATOM     18  C   UNL     1      -6.310   1.407  -2.210  0.00  0.00    +0.086 C 
ATOM     19  C   UNL     1      -7.171   2.626  -1.848  0.00  0.00    +0.052 C 
ATOM     20  C   UNL     1      -7.031   2.868  -0.367  0.00  0.00    -0.016 A 
ATOM     21  C   UNL     1      -7.384   4.054   0.401  0.00  0.00    +0.003 A 
ATOM     22  C   UNL     1      -7.939   5.296   0.084  0.00  0.00    +0.010 A 
ATOM     23  H   UNL     1      -6.246  -0.567  -1.626  0.00  0.00    +0.123 HD
ENDBRANCH   1  16
BRANCH   5  24
ATOM     24  C   UNL     1      -6.236   0.066   4.768  0.00  0.00    +0.074 A 
ATOM     25  C   UNL     1      -5.644  -0.948   5.511  0.00  0.00    +0.026 A 
ATOM     26  C   UNL     1      -5.079  -0.663   6.738  0.00  0.00    +0.002 A 
ATOM     27  C   UNL     1      -5.101   0.629   7.230  0.00  0.00    +0.003 A 
ATOM     28  C   UNL     1      -5.689   1.642   6.495  0.00  0.00    +0.040 A 
ATOM     29  C   UNL     1      -6.251   1.365   5.262  0.00  0.00    +0.145 A 
ATOM     30  F   UNL     1      -6.821   2.356   4.541  0.00  0.00    -0.204 F 
ENDBRANCH   5  24
BRANCH   4  31
ATOM     31  S   UNL     1      -9.236   0.904   3.623  0.00  0.00    -0.140 S 
ATOM     32  H   UNL     1     -10.499   0.443   3.595  0.00  0.00    +0.105 HD
ENDBRANCH   4  31
BRANCH   2  33
ATOM     33  O   UNL     1      -8.565   0.874   1.200  0.00  0.00    -0.376 OA
ATOM     34  H   UNL     1      -9.529   0.944   1.216  0.00  0.00    +0.211 HD
ENDBRANCH   2  33
TORSDOF 4
