REMARK  Name = ZINC21459669
REMARK  6 active torsions:
REMARK  status: ('A' for Active; 'I' for Inactive)
REMARK    1  A    between atoms: C_1  and  C_2
REMARK    2  A    between atoms: C_2  and  C_30
REMARK    3  A    between atoms: C_13  and  C_15
REMARK    4  A    between atoms: C_15  and  S_16
REMARK    5  A    between atoms: S_16  and  C_17
REMARK    6  A    between atoms: N_19  and  C_23
REMARK                            x       y       z     vdW  Elec       q    Type
REMARK                         _______ _______ _______ _____ _____    ______ ____
ROOT
ATOM      1  C   UNL     1       4.997   1.094  -0.171  0.00  0.00    +0.042 C 
ATOM      2  C   UNL     1       3.762   1.966  -0.404  0.00  0.00    +0.113 C 
ATOM      3  C   UNL     1       4.020   3.357   0.118  0.00  0.00    +0.241 C 
ATOM      4  O   UNL     1       5.147   3.805   0.095  0.00  0.00    -0.273 OA
ATOM      5  N   UNL     1       3.016   4.107   0.610  0.00  0.00    -0.282 N 
ATOM      6  C   UNL     1       1.716   3.595   0.693  0.00  0.00    +0.055 A 
ATOM      7  C   UNL     1       0.637   4.434   0.921  0.00  0.00    +0.025 A 
ATOM      8  C   UNL     1      -0.638   3.908   1.007  0.00  0.00    +0.002 A 
ATOM      9  C   UNL     1      -0.844   2.548   0.862  0.00  0.00    +0.002 A 
ATOM     10  C   UNL     1       0.227   1.702   0.638  0.00  0.00    +0.025 A 
ATOM     11  C   UNL     1       1.506   2.223   0.549  0.00  0.00    +0.059 A 
ATOM     12  N   UNL     1       2.612   1.392   0.311  0.00  0.00    -0.255 N 
ATOM     13  C   UNL     1       2.621   0.110   0.726  0.00  0.00    +0.231 C 
ATOM     14  O   UNL     1       3.536  -0.622   0.413  0.00  0.00    -0.274 OA
ATOM     15  C   UNL     1       3.454   2.029  -1.901  0.00  0.00    +0.042 C 
ATOM     16  H   UNL     1       3.212   5.134   0.951  0.00  0.00    +0.155 HD
ENDROOT
BRANCH  13  17
ATOM     17  C   UNL     1       1.493  -0.415   1.576  0.00  0.00    +0.172 C 
BRANCH  17  18
ATOM     18  S   UNL     1       2.040  -1.899   2.455  0.00  0.00    -0.088 S 
BRANCH  18  19
ATOM     19  C   UNL     1       0.570  -2.288   3.345  0.00  0.00    +0.158 A 
ATOM     20  N   UNL     1       0.342  -3.280   4.168  0.00  0.00    -0.151 NA
ATOM     21  N   UNL     1      -0.885  -3.416   4.776  0.00  0.00    -0.217 N 
ATOM     22  C   UNL     1      -1.853  -2.508   4.495  0.00  0.00    +0.150 A 
ATOM     23  S   UNL     1      -3.459  -2.415   5.081  0.00  0.00    -0.023 S 
ATOM     24  S   UNL     1      -0.999  -1.435   3.350  0.00  0.00    -0.034 S 
BRANCH  21  25
ATOM     25  C   UNL     1      -1.130  -4.471   5.661  0.00  0.00    +0.067 A 
ATOM     26  C   UNL     1      -1.953  -4.278   6.763  0.00  0.00    +0.029 A 
ATOM     27  C   UNL     1      -2.198  -5.323   7.632  0.00  0.00    +0.022 A 
ATOM     28  C   UNL     1      -1.615  -6.559   7.411  0.00  0.00    +0.041 A 
ATOM     29  C   UNL     1      -0.791  -6.753   6.317  0.00  0.00    +0.022 A 
ATOM     30  C   UNL     1      -0.547  -5.713   5.442  0.00  0.00    +0.029 A 
ATOM     31 CL   UNL     1      -1.919  -7.868   8.510  0.00  0.00    -0.084 Cl
ENDBRANCH  21  25
ENDBRANCH  18  19
ENDBRANCH  17  18
ENDBRANCH  13  17
TORSDOF 4
