REMARK  Name = ZINC11329154
REMARK  9 active torsions:
REMARK  status: ('A' for Active; 'I' for Inactive)
REMARK    1  A    between atoms: C_1  and  N_2
REMARK    2  A    between atoms: C_6  and  C_7
REMARK    3  A    between atoms: C_7  and  C_9
REMARK    4  A    between atoms: C_7  and  N_15
REMARK    5  A    between atoms: C_16  and  C_18
REMARK    6  A    between atoms: C_18  and  S_19
REMARK    7  A    between atoms: S_19  and  C_20
REMARK    8  A    between atoms: C_23  and  C_26
REMARK    9  A    between atoms: N_24  and  N_25
REMARK                            x       y       z     vdW  Elec       q    Type
REMARK                         _______ _______ _______ _____ _____    ______ ____
ROOT
ATOM      1  C   UNL     1      -1.389   2.094   0.642  0.00  0.00    +0.173 C 
ENDROOT
BRANCH   1   3
ATOM      2  N   UNL     1      -0.096   0.024   1.044  0.00  0.00    -0.301 N 
ATOM      3  C   UNL     1      -0.092   1.360   0.866  0.00  0.00    +0.224 C 
ATOM      4  O   UNL     1       0.956   1.970   0.882  0.00  0.00    -0.275 OA
ATOM      5  H   UNL     1      -0.934  -0.465   1.031  0.00  0.00    +0.150 HD
BRANCH   2   6
ATOM      6  C   UNL     1       1.165  -0.691   1.256  0.00  0.00    +0.169 C 
BRANCH   6  12
ATOM      7  C   UNL     1       3.964  -0.082   2.437  0.00  0.00    +0.150 C 
ATOM      8  N   UNL     1       2.757  -0.376   3.214  0.00  0.00    -0.336 N 
ATOM      9  C   UNL     1       2.662  -0.427   4.578  0.00  0.00    +0.106 A 
ATOM     10  C   UNL     1       1.383  -0.733   4.868  0.00  0.00    +0.130 A 
ATOM     11  N   UNL     1       0.714  -0.860   3.712  0.00  0.00    -0.238 NA
ATOM     12  C   UNL     1       1.530  -0.643   2.717  0.00  0.00    +0.134 A 
ENDBRANCH   6  12
BRANCH   6  13
ATOM     13  C   UNL     1       1.008  -2.126   0.824  0.00  0.00    -0.020 A 
ATOM     14  C   UNL     1      -0.159  -2.810   1.107  0.00  0.00    +0.006 A 
ATOM     15  C   UNL     1      -0.305  -4.125   0.707  0.00  0.00    +0.000 A 
ATOM     16  C   UNL     1       0.721  -4.759   0.032  0.00  0.00    +0.000 A 
ATOM     17  C   UNL     1       1.890  -4.077  -0.248  0.00  0.00    +0.000 A 
ATOM     18  C   UNL     1       2.034  -2.761   0.148  0.00  0.00    +0.006 A 
ENDBRANCH   6  13
ENDBRANCH   2   6
ENDBRANCH   1   3
BRANCH   1  19
ATOM     19  S   UNL     1      -1.054   3.861   0.440  0.00  0.00    -0.075 S 
BRANCH  19  20
ATOM     20  C   UNL     1      -2.695   4.458   0.200  0.00  0.00    +0.209 A 
ATOM     21  N   UNL     1      -3.792   3.735   0.183  0.00  0.00    -0.121 NA
ATOM     22  N   UNL     1      -4.814   4.489  -0.012  0.00  0.00    -0.127 NA
ATOM     23  C   UNL     1      -4.431   5.738  -0.141  0.00  0.00    +0.183 A 
ATOM     24  N   UNL     1      -3.062   5.757  -0.009  0.00  0.00    -0.224 N 
BRANCH  23  25
ATOM     25  C   UNL     1      -5.306   6.905  -0.381  0.00  0.00    +0.039 A 
ATOM     26  C   UNL     1      -4.975   7.839  -1.364  0.00  0.00    +0.014 A 
ATOM     27  C   UNL     1      -5.798   8.923  -1.588  0.00  0.00    +0.021 A 
ATOM     28  C   UNL     1      -6.946   9.092  -0.832  0.00  0.00    +0.042 A 
ATOM     29  C   UNL     1      -7.279   8.173   0.148  0.00  0.00    +0.040 A 
ATOM     30  C   UNL     1      -6.466   7.081   0.378  0.00  0.00    +0.053 A 
ATOM     31 CL   UNL     1      -6.883   5.929   1.608  0.00  0.00    -0.083 Cl
ATOM     32 CL   UNL     1      -7.973  10.463  -1.115  0.00  0.00    -0.083 Cl
ENDBRANCH  23  25
BRANCH  24  33
ATOM     33  N   UNL     1      -2.241   6.847  -0.073  0.00  0.00    -0.295 N 
ATOM     34  H   UNL     1      -2.001   7.062  -1.029  0.00  0.00    +0.163 HD
ATOM     35  H   UNL     1      -2.661   7.643   0.383  0.00  0.00    +0.163 HD
ENDBRANCH  24  33
ENDBRANCH  19  20
ENDBRANCH   1  19
TORSDOF 8
