REMARK  Name = ZINC39559683
REMARK  7 active torsions:
REMARK  status: ('A' for Active; 'I' for Inactive)
REMARK    1  A    between atoms: C_1  and  C_2
REMARK    2  A    between atoms: C_2  and  O_3
REMARK    3  A    between atoms: O_3  and  C_4
REMARK    4  A    between atoms: C_10  and  N_27
REMARK    5  A    between atoms: C_14  and  N_18
REMARK    6  A    between atoms: C_19  and  C_20
REMARK    7  A    between atoms: C_25  and  O_26
REMARK                            x       y       z     vdW  Elec       q    Type
REMARK                         _______ _______ _______ _____ _____    ______ ____
ROOT
ATOM      1  C   UNL     1       0.802  -1.825   1.306  0.00  0.00    +0.121 A 
ATOM      2  C   UNL     1       0.252  -2.672   0.338  0.00  0.00    +0.048 A 
ATOM      3  C   UNL     1       0.344  -4.022   0.456  0.00  0.00    +0.030 A 
ATOM      4  C   UNL     1       1.003  -4.590   1.567  0.00  0.00    +0.049 A 
ATOM      5  C   UNL     1       1.560  -3.729   2.548  0.00  0.00    +0.023 A 
ATOM      6  C   UNL     1       1.452  -2.336   2.392  0.00  0.00    +0.057 A 
ATOM      7  C   UNL     1       2.224  -4.272   3.668  0.00  0.00    +0.043 A 
ATOM      8  C   UNL     1       2.305  -5.672   3.766  0.00  0.00    +0.020 A 
ATOM      9  C   UNL     1       2.947  -6.298   4.849  0.00  0.00    +0.014 A 
ATOM     10  C   UNL     1       3.005  -7.652   4.909  0.00  0.00    +0.028 A 
ATOM     11  C   UNL     1       2.432  -8.454   3.905  0.00  0.00    +0.066 A 
ATOM     12  C   UNL     1       1.787  -7.892   2.817  0.00  0.00    +0.054 A 
ATOM     13  C   UNL     1       1.703  -6.493   2.712  0.00  0.00    +0.051 A 
ATOM     14  N   UNL     1       1.090  -5.916   1.680  0.00  0.00    -0.354 N 
ATOM     15  H   UNL     1       0.697  -6.475   0.992  0.00  0.00    +0.166 HD
ENDROOT
BRANCH   7  16
ATOM     16  N   UNL     1       2.775  -3.456   4.634  0.00  0.00    -0.357 N 
ATOM     17  H   UNL     1       2.710  -2.492   4.550  0.00  0.00    +0.142 HD
ATOM     18  H   UNL     1       3.228  -3.847   5.398  0.00  0.00    +0.142 HD
ENDBRANCH   7  16
BRANCH  11  19
ATOM     19  N   UNL     1       2.514  -9.815   4.006  0.00  0.00    -0.255 NA
ATOM     20  C   UNL     1       3.643 -10.377   4.339  0.00  0.00    +0.123 C 
BRANCH  20  21
ATOM     21  C   UNL     1       3.732 -11.840   4.448  0.00  0.00    +0.034 A 
ATOM     22  C   UNL     1       4.939 -12.448   4.811  0.00  0.00    +0.013 A 
ATOM     23  C   UNL     1       5.014 -13.820   4.910  0.00  0.00    +0.001 A 
ATOM     24  C   UNL     1       3.899 -14.602   4.654  0.00  0.00    +0.004 A 
ATOM     25  C   UNL     1       2.701 -14.016   4.295  0.00  0.00    +0.046 A 
ATOM     26  C   UNL     1       2.604 -12.637   4.195  0.00  0.00    +0.125 A 
BRANCH  26  27
ATOM     27  O   UNL     1       1.426 -12.059   3.848  0.00  0.00    -0.506 OA
ATOM     28  H   UNL     1       1.311 -11.942   2.895  0.00  0.00    +0.292 HD
ENDBRANCH  26  27
ENDBRANCH  20  21
ENDBRANCH  11  19
BRANCH   1  29
ATOM     29  O   UNL     1       0.693  -0.477   1.160  0.00  0.00    -0.492 OA
BRANCH  29  31
ATOM     30  C   UNL     1      -0.019   1.526   0.010  0.00  0.00    +0.048 C 
ATOM     31  C   UNL     1       0.002  -0.004   0.002  0.00  0.00    +0.225 C 
ENDBRANCH  29  31
ENDBRANCH   1  29
TORSDOF 6
