REMARK  Name = ZINC36642013
REMARK  11 active torsions:
REMARK  status: ('A' for Active; 'I' for Inactive)
REMARK    1  A    between atoms: C_1  and  N_2
REMARK    2  A    between atoms: N_2  and  C_3
REMARK    3  A    between atoms: N_2  and  C_4
REMARK    4  A    between atoms: C_4  and  C_5
REMARK    5  A    between atoms: C_5  and  N_6
REMARK    6  A    between atoms: C_17  and  C_19
REMARK    7  A    between atoms: C_21  and  O_30
REMARK    8  A    between atoms: C_22  and  O_28
REMARK    9  A    between atoms: C_24  and  N_25
REMARK   10  A    between atoms: O_28  and  C_29
REMARK   11  A    between atoms: O_30  and  C_31
REMARK                            x       y       z     vdW  Elec       q    Type
REMARK                         _______ _______ _______ _____ _____    ______ ____
ROOT
ATOM      1  N   UNL     1       0.630  -0.109   4.080  0.00  0.00    -0.248 N 
ATOM      2  C   UNL     1       1.413   0.770   4.809  0.00  0.00    +0.168 A 
ATOM      3  N   UNL     1       1.692   2.027   4.556  0.00  0.00    -0.224 NA
ATOM      4  C   UNL     1       2.478   2.773   5.362  0.00  0.00    +0.080 A 
ATOM      5  C   UNL     1       2.854   4.127   5.206  0.00  0.00    +0.030 A 
ATOM      6  C   UNL     1       3.667   4.739   6.124  0.00  0.00    +0.017 A 
ATOM      7  C   UNL     1       4.148   4.059   7.234  0.00  0.00    +0.019 A 
ATOM      8  C   UNL     1       3.800   2.732   7.419  0.00  0.00    +0.032 A 
ATOM      9  C   UNL     1       2.986   2.112   6.504  0.00  0.00    +0.042 A 
ATOM     10  S   UNL     1       2.295   0.484   6.337  0.00  0.00    -0.052 S 
ATOM     11 BR   UNL     1       5.267   4.935   8.481  0.00  0.00    -0.050 Br
ATOM     12  C   UNL     1       0.457  -1.374   4.512  0.00  0.00    +0.255 C 
ATOM     13  O   UNL     1       1.060  -1.770   5.491  0.00  0.00    -0.270 OA
ENDROOT
BRANCH  12  14
ATOM     14  C   UNL     1      -0.465  -2.278   3.798  0.00  0.00    +0.071 A 
ATOM     15  C   UNL     1      -1.830  -1.982   3.737  0.00  0.00    +0.064 A 
ATOM     16  C   UNL     1      -2.688  -2.831   3.067  0.00  0.00    +0.162 A 
ATOM     17  C   UNL     1      -2.193  -3.981   2.453  0.00  0.00    +0.164 A 
ATOM     18  C   UNL     1      -0.838  -4.275   2.514  0.00  0.00    +0.082 A 
ATOM     19  C   UNL     1       0.025  -3.429   3.176  0.00  0.00    +0.142 A 
BRANCH  19  20
ATOM     20  N   UNL     1       1.471  -3.743   3.233  0.00  0.00    +0.057 N 
ATOM     21  O   UNL     1       1.879  -4.793   2.795  0.00  0.00    -0.126 OA
ATOM     22  O   UNL     1       2.243  -2.949   3.718  0.00  0.00    -0.126 OA
ENDBRANCH  19  20
BRANCH  17  23
ATOM     23  O   UNL     1      -3.038  -4.814   1.794  0.00  0.00    -0.491 OA
ATOM     24  C   UNL     1      -2.464  -5.974   1.188  0.00  0.00    +0.277 C 
ENDBRANCH  17  23
BRANCH  16  25
ATOM     25  O   UNL     1      -4.016  -2.546   3.006  0.00  0.00    -0.491 OA
ATOM     26  C   UNL     1      -4.438  -1.298   3.561  0.00  0.00    +0.277 C 
ENDBRANCH  16  25
ENDBRANCH  12  14
BRANCH   1  27
ATOM     27  C   UNL     1      -0.009   0.335   2.839  0.00  0.00    +0.097 C 
BRANCH  27  28
ATOM     28  C   UNL     1       0.882  -0.023   1.649  0.00  0.00    -0.060 C 
BRANCH  28  30
ATOM     29  C   UNL     1       0.129   1.902   0.432  0.00  0.00    -0.097 C 
ATOM     30  N   UNL     1       0.249   0.438   0.406  0.00  0.00    +0.377 N 
ATOM     31  C   UNL     1       1.072   0.034  -0.742  0.00  0.00    -0.097 C 
ATOM     32  H   UNL     1      -0.668   0.026   0.324  0.00  0.00    -0.083 HD
ENDBRANCH  28  30
ENDBRANCH  27  28
ENDBRANCH   1  27
TORSDOF 7
