REMARK  Name = ZINC14474262
REMARK  7 active torsions:
REMARK  status: ('A' for Active; 'I' for Inactive)
REMARK    1  A    between atoms: C_1  and  C_2
REMARK    2  A    between atoms: C_6  and  C_35
REMARK    3  A    between atoms: C_7  and  N_8
REMARK    4  A    between atoms: N_8  and  S_9
REMARK    5  A    between atoms: S_9  and  C_12
REMARK    6  A    between atoms: C_25  and  C_28
REMARK    7  A    between atoms: C_33  and  O_34
REMARK                            x       y       z     vdW  Elec       q    Type
REMARK                         _______ _______ _______ _____ _____    ______ ____
ROOT
ATOM      1  C   UNL     1      -6.947   3.943  -0.645  0.00  0.00    +0.109 A 
ATOM      2  C   UNL     1      -6.472   3.004   0.251  0.00  0.00    +0.030 A 
ATOM      3  C   UNL     1      -5.189   3.107   0.749  0.00  0.00    +0.025 A 
ATOM      4  C   UNL     1      -4.365   4.153   0.352  0.00  0.00    +0.031 A 
ATOM      5  C   UNL     1      -4.856   5.106  -0.546  0.00  0.00    -0.018 A 
ATOM      6  C   UNL     1      -6.138   4.992  -1.041  0.00  0.00    +0.034 A 
ATOM      7  C   UNL     1      -3.954   6.215  -0.926  0.00  0.00    +0.049 C 
ATOM      8  C   UNL     1      -4.092   6.929  -2.222  0.00  0.00    -0.023 C 
ATOM      9  C   UNL     1      -2.890   7.334  -2.613  0.00  0.00    -0.030 C 
ATOM     10  C   UNL     1      -1.832   6.883  -1.604  0.00  0.00    +0.033 C 
ATOM     11  C   UNL     1      -2.503   5.651  -0.984  0.00  0.00    +0.029 C 
ATOM     12  C   UNL     1      -2.143   5.313   0.452  0.00  0.00    +0.108 C 
ATOM     13  N   UNL     1      -3.055   4.217   0.844  0.00  0.00    -0.336 N 
ATOM     14  H   UNL     1      -2.741   3.530   1.452  0.00  0.00    +0.147 HD
ENDROOT
BRANCH  12  15
ATOM     15  C   UNL     1      -0.710   4.853   0.535  0.00  0.00    +0.014 A 
ATOM     16  C   UNL     1      -0.414   3.504   0.493  0.00  0.00    +0.009 A 
ATOM     17  C   UNL     1       0.900   3.081   0.574  0.00  0.00    +0.001 A 
ATOM     18  C   UNL     1       1.921   4.007   0.686  0.00  0.00    +0.004 A 
ATOM     19  C   UNL     1       1.630   5.357   0.722  0.00  0.00    +0.046 A 
ATOM     20  C   UNL     1       0.312   5.784   0.646  0.00  0.00    +0.122 A 
BRANCH  20  21
ATOM     21  O   UNL     1       0.024   7.111   0.682  0.00  0.00    -0.506 OA
ATOM     22  H   UNL     1       0.003   7.533  -0.188  0.00  0.00    +0.292 HD
ENDBRANCH  20  21
ENDBRANCH  12  15
BRANCH   1  23
ATOM     23  S   UNL     1      -8.584   3.804  -1.283  0.00  0.00    +0.072 S 
ATOM     24  O   UNL     1      -8.630   4.599  -2.461  0.00  0.00    -0.150 OA
ATOM     25  O   UNL     1      -8.902   2.419  -1.286  0.00  0.00    -0.150 OA
BRANCH  23  26
ATOM     26  N   UNL     1      -9.599   4.521  -0.189  0.00  0.00    -0.216 N 
ATOM     27  H   UNL     1     -10.248   3.986   0.293  0.00  0.00    +0.174 HD
BRANCH  26  34
ATOM     28  C   UNL     1      -8.347   5.413   2.206  0.00  0.00    +0.046 C 
ATOM     29  C   UNL     1      -8.917   6.376   1.197  0.00  0.00    -0.028 A 
ATOM     30  C   UNL     1      -8.835   7.737   1.418  0.00  0.00    +0.005 A 
ATOM     31  C   UNL     1      -9.363   8.622   0.495  0.00  0.00    +0.001 A 
ATOM     32  C   UNL     1      -9.968   8.148  -0.655  0.00  0.00    +0.005 A 
ATOM     33  C   UNL     1     -10.048   6.788  -0.885  0.00  0.00    -0.028 A 
ATOM     34  C   UNL     1      -9.519   5.897   0.040  0.00  0.00    +0.054 A 
ATOM     35  C   UNL     1     -10.708   6.272  -2.137  0.00  0.00    +0.046 C 
ENDBRANCH  26  34
ENDBRANCH  23  26
ENDBRANCH   1  23
TORSDOF 5
