REMARK  Name = ZINC38743220
REMARK  5 active torsions:
REMARK  status: ('A' for Active; 'I' for Inactive)
REMARK    1  A    between atoms: C_4  and  C_7
REMARK    2  A    between atoms: C_9  and  C_13
REMARK    3  A    between atoms: C_21  and  C_23
REMARK    4  A    between atoms: C_23  and  C_24
REMARK    5  A    between atoms: C_24  and  N_25
REMARK                            x       y       z     vdW  Elec       q    Type
REMARK                         _______ _______ _______ _____ _____    ______ ____
ROOT
ATOM      1  C   UNL     1       5.782  -3.012   1.181  0.00  0.00    +0.206 C 
ATOM      2  N   UNL     1       5.484  -2.225   2.402  0.00  0.00    -0.231 NA
ATOM      3  N   UNL     1       6.783  -1.874   3.002  0.00  0.00    -0.224 NA
ATOM      4  C   UNL     1       7.704  -1.929   1.849  0.00  0.00    +0.240 C 
ATOM      5  N   UNL     1       7.252  -3.191   1.173  0.00  0.00    -0.206 N 
ATOM      6  N   UNL     1       8.278  -4.063   0.881  0.00  0.00    -0.178 NA
ATOM      7  C   UNL     1       9.465  -3.953   1.378  0.00  0.00    +0.097 C 
ATOM      8  S   UNL     1       9.394  -2.418   2.357  0.00  0.00    -0.068 S 
ATOM      9  H   UNL     1       4.920  -2.757   3.047  0.00  0.00    +0.143 HD
ATOM     10  H   UNL     1       7.048  -2.544   3.709  0.00  0.00    +0.144 HD
ENDROOT
BRANCH   1  13
ATOM     11  C   UNL     1       3.699  -0.689  -0.037  0.00  0.00    +0.091 C 
ATOM     12  C   UNL     1       3.832  -2.029  -0.051  0.00  0.00    +0.034 C 
ATOM     13  C   UNL     1       5.335  -2.245  -0.065  0.00  0.00    +0.190 C 
ATOM     14  N   UNL     1       5.871  -0.874  -0.056  0.00  0.00    -0.176 NA
ATOM     15  N   UNL     1       4.919  -0.090  -0.047  0.00  0.00    -0.154 NA
BRANCH  11  19
ATOM     16  C   UNL     1      -0.017   1.379   0.010  0.00  0.00    +0.000 A 
ATOM     17  C   UNL     1       1.169   2.092   0.002  0.00  0.00    +0.001 A 
ATOM     18  C   UNL     1       2.377   1.426  -0.013  0.00  0.00    +0.010 A 
ATOM     19  C   UNL     1       2.402   0.033  -0.021  0.00  0.00    +0.002 A 
ATOM     20  C   UNL     1       1.205  -0.680  -0.013  0.00  0.00    +0.010 A 
ATOM     21  C   UNL     1       0.002  -0.004   0.002  0.00  0.00    +0.001 A 
ENDBRANCH  11  19
ENDBRANCH   1  13
BRANCH   7  22
ATOM     22  C   UNL     1      10.642  -4.874   1.184  0.00  0.00    +0.084 C 
BRANCH  22  23
ATOM     23  C   UNL     1      10.239  -6.031   0.268  0.00  0.00    +0.124 C 
BRANCH  23  24
ATOM     24  N   UNL     1      11.383  -6.927   0.080  0.00  0.00    -0.234 N 
ATOM     25  C   UNL     1      12.297  -6.798  -0.899  0.00  0.00    +0.254 C 
ATOM     26  O   UNL     1      12.303  -5.936  -1.754  0.00  0.00    -0.270 OA
ATOM     27  C   UNL     1      13.291  -7.883  -0.760  0.00  0.00    +0.049 A 
ATOM     28  C   UNL     1      14.428  -8.249  -1.462  0.00  0.00    +0.014 A 
ATOM     29  C   UNL     1      15.160  -9.355  -1.056  0.00  0.00    +0.001 A 
ATOM     30  C   UNL     1      14.762 -10.094   0.042  0.00  0.00    +0.001 A 
ATOM     31  C   UNL     1      13.626  -9.740   0.753  0.00  0.00    +0.014 A 
ATOM     32  C   UNL     1      12.885  -8.637   0.360  0.00  0.00    +0.049 A 
ATOM     33  C   UNL     1      11.661  -7.982   0.867  0.00  0.00    +0.254 C 
ATOM     34  O   UNL     1      11.014  -8.338   1.831  0.00  0.00    -0.270 OA
ENDBRANCH  23  24
ENDBRANCH  22  23
ENDBRANCH   7  22
TORSDOF 5
