REMARK  Name = ZINC20292911
REMARK  8 active torsions:
REMARK  status: ('A' for Active; 'I' for Inactive)
REMARK    1  A    between atoms: C_1  and  O_2
REMARK    2  A    between atoms: O_2  and  C_3
REMARK    3  A    between atoms: C_6  and  C_9
REMARK    4  A    between atoms: N_10  and  N_11
REMARK    5  A    between atoms: C_15  and  S_18
REMARK    6  A    between atoms: N_16  and  N_17
REMARK    7  A    between atoms: S_18  and  C_19
REMARK    8  A    between atoms: C_19  and  C_20
REMARK                            x       y       z     vdW  Elec       q    Type
REMARK                         _______ _______ _______ _____ _____    ______ ____
ROOT
ATOM      1  N   UNL     1      -6.246  -4.567   0.043  0.00  0.00    -0.204 N 
ATOM      2  C   UNL     1      -6.300  -5.953   0.042  0.00  0.00    +0.254 A 
ATOM      3  N   UNL     1      -5.270  -6.764   0.039  0.00  0.00    -0.109 NA
ATOM      4  N   UNL     1      -5.754  -8.079   0.039  0.00  0.00    -0.119 NA
ATOM      5  C   UNL     1      -7.065  -8.028   0.042  0.00  0.00    +0.210 A 
ATOM      6  N   UNL     1      -7.436  -6.713   0.050  0.00  0.00    -0.211 N 
ATOM      7  H   UNL     1      -7.066  -4.049   0.050  0.00  0.00    +0.177 HD
ENDROOT
BRANCH   6   8
ATOM      8  N   UNL     1      -8.718  -6.241   0.061  0.00  0.00    -0.294 N 
ATOM      9  H   UNL     1      -9.065  -6.115  -0.878  0.00  0.00    +0.163 HD
ATOM     10  H   UNL     1      -9.323  -6.850   0.591  0.00  0.00    +0.163 HD
ENDBRANCH   6   8
BRANCH   1  12
ATOM     11  C   UNL     1      -4.956  -2.616   0.036  0.00  0.00    +0.138 C 
ATOM     12  N   UNL     1      -5.006  -3.914   0.035  0.00  0.00    -0.188 NA
BRANCH  11  16
ATOM     13  C   UNL     1      -1.200  -0.637   0.010  0.00  0.00    +0.120 A 
ATOM     14  C   UNL     1      -2.374   0.105   0.020  0.00  0.00    +0.046 A 
ATOM     15  C   UNL     1      -3.595  -0.533   0.028  0.00  0.00    +0.013 A 
ATOM     16  C   UNL     1      -3.652  -1.929   0.027  0.00  0.00    -0.005 A 
ATOM     17  C   UNL     1      -2.468  -2.672   0.017  0.00  0.00    +0.013 A 
ATOM     18  C   UNL     1      -1.251  -2.025   0.003  0.00  0.00    +0.046 A 
BRANCH  13  20
ATOM     19  C   UNL     1      -0.017   1.425   0.010  0.00  0.00    +0.277 C 
ATOM     20  O   UNL     1       0.002  -0.004   0.002  0.00  0.00    -0.495 OA
ENDBRANCH  13  20
ENDBRANCH  11  16
ENDBRANCH   1  12
BRANCH   5  21
ATOM     21  S   UNL     1      -8.155  -9.412   0.042  0.00  0.00    -0.080 S 
BRANCH  21  22
ATOM     22  C   UNL     1      -7.044 -10.846   0.038  0.00  0.00    +0.112 C 
BRANCH  22  23
ATOM     23  C   UNL     1      -7.859 -12.113   0.038  0.00  0.00    -0.036 A 
ATOM     24  C   UNL     1      -8.236 -12.693   1.235  0.00  0.00    +0.004 A 
ATOM     25  C   UNL     1      -8.983 -13.855   1.236  0.00  0.00    +0.001 A 
ATOM     26  C   UNL     1      -9.355 -14.439   0.039  0.00  0.00    +0.015 A 
ATOM     27  C   UNL     1      -8.979 -13.859  -1.159  0.00  0.00    +0.018 A 
ATOM     28  C   UNL     1      -8.235 -12.693  -1.159  0.00  0.00    +0.019 A 
ATOM     29 BR   UNL     1      -9.487 -14.657  -2.796  0.00  0.00    -0.050 Br
ENDBRANCH  22  23
ENDBRANCH  21  22
ENDBRANCH   5  21
TORSDOF 7
