REMARK  Name = ZINC10105117
REMARK  6 active torsions:
REMARK  status: ('A' for Active; 'I' for Inactive)
REMARK    1  A    between atoms: C_1  and  C_2
REMARK    2  A    between atoms: N_10  and  C_12
REMARK    3  A    between atoms: N_19  and  C_32
REMARK    4  A    between atoms: N_22  and  C_25
REMARK    5  A    between atoms: C_25  and  C_26
REMARK    6  A    between atoms: C_26  and  N_61
REMARK                            x       y       z     vdW  Elec       q    Type
REMARK                         _______ _______ _______ _____ _____    ______ ____
ROOT
ATOM      1  C   UNL     1       0.862  -5.697   0.191  0.00  0.00    +0.011 C 
ATOM      2  C   UNL     1       1.635  -4.399   0.435  0.00  0.00    +0.024 C 
ATOM      3  C   UNL     1       0.785  -3.206  -0.020  0.00  0.00    +0.130 C 
ATOM      4  N   UNL     1       1.622  -2.005  -0.024  0.00  0.00    -0.306 N 
ATOM      5  C   UNL     1       1.237  -0.678  -0.014  0.00  0.00    +0.153 A 
ATOM      6  C   UNL     1       2.414   0.067  -0.021  0.00  0.00    +0.170 A 
ATOM      7  N   UNL     1       3.438  -0.791  -0.035  0.00  0.00    -0.196 NA
ATOM      8  C   UNL     1       2.987  -2.021  -0.039  0.00  0.00    +0.205 A 
ATOM      9  N   UNL     1       3.708  -3.204  -0.056  0.00  0.00    -0.271 N 
ATOM     10  C   UNL     1       2.947  -4.431  -0.356  0.00  0.00    +0.118 C 
ATOM     11  N   UNL     1       2.329   1.450  -0.013  0.00  0.00    -0.280 N 
ATOM     12  C   UNL     1       1.126   2.053   0.002  0.00  0.00    +0.333 A 
ATOM     13  O   UNL     1       1.071   3.268   0.009  0.00  0.00    -0.246 OA
ATOM     14  N   UNL     1      -0.016   1.345   0.009  0.00  0.00    -0.261 N 
ATOM     15  C   UNL     1       0.002  -0.004   0.002  0.00  0.00    +0.282 A 
ATOM     16  O   UNL     1      -1.042  -0.633   0.009  0.00  0.00    -0.265 OA
ATOM     17  C   UNL     1       3.552   2.257  -0.020  0.00  0.00    +0.155 C 
ENDROOT
BRANCH   9  18
ATOM     18  C   UNL     1       5.083  -3.232   0.198  0.00  0.00    +0.036 A 
ATOM     19  C   UNL     1       5.769  -4.440   0.176  0.00  0.00    +0.024 A 
ATOM     20  C   UNL     1       7.128  -4.465   0.422  0.00  0.00    +0.017 A 
ATOM     21  C   UNL     1       7.804  -3.290   0.700  0.00  0.00    +0.018 A 
ATOM     22  C   UNL     1       7.122  -2.086   0.727  0.00  0.00    +0.017 A 
ATOM     23  C   UNL     1       5.764  -2.055   0.477  0.00  0.00    +0.024 A 
ATOM     24 BR   UNL     1       9.663  -3.329   1.043  0.00  0.00    -0.050 Br
ENDBRANCH   9  18
BRANCH  14  25
ATOM     25  C   UNL     1      -1.301   2.048   0.019  0.00  0.00    +0.111 C 
BRANCH  25  26
ATOM     26  C   UNL     1      -1.742   2.285   1.465  0.00  0.00    -0.057 C 
BRANCH  26  32
ATOM     27  C   UNL     1      -2.894   4.343   0.920  0.00  0.00    -0.079 C 
ATOM     28  C   UNL     1      -4.275   4.993   0.811  0.00  0.00    -0.019 C 
ATOM     29  C   UNL     1      -4.916   5.054   2.200  0.00  0.00    -0.004 C 
ATOM     30  C   UNL     1      -5.002   3.638   2.776  0.00  0.00    -0.019 C 
ATOM     31  C   UNL     1      -3.600   3.027   2.828  0.00  0.00    -0.079 C 
ATOM     32  N   UNL     1      -3.048   2.975   1.457  0.00  0.00    +0.381 N 
ATOM     33  H   UNL     1      -3.697   2.453   0.857  0.00  0.00    -0.082 HD
ENDBRANCH  26  32
ENDBRANCH  25  26
ENDBRANCH  14  25
TORSDOF 4
