REMARK  Name = ZINC08311875
REMARK  9 active torsions:
REMARK  status: ('A' for Active; 'I' for Inactive)
REMARK    1  A    between atoms: C_1  and  C_2
REMARK    2  A    between atoms: C_2  and  C_3
REMARK    3  A    between atoms: C_2  and  C_4
REMARK    4  A    between atoms: C_2  and  O_5
REMARK    5  A    between atoms: O_5  and  C_6
REMARK    6  A    between atoms: C_6  and  C_8
REMARK    7  A    between atoms: C_12  and  C_16
REMARK    8  A    between atoms: C_16  and  O_18
REMARK    9  A    between atoms: O_18  and  C_19
REMARK                            x       y       z     vdW  Elec       q    Type
REMARK                         _______ _______ _______ _____ _____    ______ ____
ROOT
ATOM      1  C   UNL     1       5.055  -0.514  -6.085  0.00  0.00    +0.314 C 
ATOM      2  O   UNL     1       4.536  -1.240  -6.900  0.00  0.00    -0.250 OA
ENDROOT
BRANCH   1   6
ATOM      3  C   UNL     1       2.779  -0.554  -2.495  0.00  0.00    +0.039 C 
ATOM      4  C   UNL     1       2.048  -0.089  -3.757  0.00  0.00    -0.004 C 
ATOM      5  C   UNL     1       2.828  -0.550  -4.991  0.00  0.00    +0.012 C 
ATOM      6  C   UNL     1       4.257  -0.004  -4.913  0.00  0.00    +0.081 C 
ATOM      7  C   UNL     1       4.906  -0.472  -3.609  0.00  0.00    -0.067 C 
ATOM      8  N   UNL     1       4.128   0.023  -2.467  0.00  0.00    +0.388 N 
ATOM      9  H   UNL     1       4.063   1.029  -2.515  0.00  0.00    -0.085 HD
ATOM     10  H   UNL     1       4.588  -0.242  -1.609  0.00  0.00    -0.085 HD
BRANCH   3  11
ATOM     11  C   UNL     1       2.014  -0.103  -1.278  0.00  0.00    +0.293 C 
ATOM     12  O   UNL     1       2.540   0.625  -0.470  0.00  0.00    -0.253 OA
BRANCH  11  13
ATOM     13  O   UNL     1       0.749  -0.511  -1.090  0.00  0.00    -0.460 OA
BRANCH  13  15
ATOM     14  C   UNL     1       0.025   1.484   0.066  0.00  0.00    +0.055 C 
ATOM     15  C   UNL     1       0.085  -0.045   0.086  0.00  0.00    +0.105 C 
ATOM     16  C   UNL     1       0.854  -0.509   1.324  0.00  0.00    +0.055 C 
ATOM     17  C   UNL     1      -1.337  -0.611   0.127  0.00  0.00    +0.055 C 
ENDBRANCH  13  15
ENDBRANCH  11  13
ENDBRANCH   3  11
ENDBRANCH   1   6
BRANCH   1  18
ATOM     18  O   UNL     1       6.344  -0.162  -6.224  0.00  0.00    -0.426 OA
BRANCH  18  19
ATOM     19  C   UNL     1       7.053  -0.724  -7.236  0.00  0.00    +0.135 A 
ATOM     20  C   UNL     1       6.878  -0.266  -8.541  0.00  0.00    +0.047 A 
ATOM     21  C   UNL     1       7.584  -0.821  -9.569  0.00  0.00    +0.015 A 
ATOM     22  C   UNL     1       8.488  -1.857  -9.311  0.00  0.00    +0.021 A 
ATOM     23  C   UNL     1       8.668  -2.324  -7.998  0.00  0.00    +0.143 A 
ATOM     24  C   UNL     1       7.948  -1.746  -6.963  0.00  0.00    +0.093 A 
ATOM     25  O   UNL     1       9.542  -3.325  -7.759  0.00  0.00    -0.422 OA
ATOM     26  C   UNL     1      10.252  -3.880  -8.749  0.00  0.00    +0.341 A 
ATOM     27  O   UNL     1      11.036  -4.774  -8.483  0.00  0.00    -0.245 OA
ATOM     28  C   UNL     1      10.121  -3.463 -10.098  0.00  0.00    +0.041 A 
ATOM     29  C   UNL     1       9.255  -2.472 -10.403  0.00  0.00    -0.027 A 
ATOM     30  C   UNL     1       9.034  -1.976 -11.804  0.00  0.00    +0.036 C 
ATOM     31  C   UNL     1      10.184  -2.401 -12.715  0.00  0.00    +0.005 C 
ATOM     32  C   UNL     1      10.407  -3.908 -12.535  0.00  0.00    +0.005 C 
ATOM     33  C   UNL     1      10.969  -4.148 -11.136  0.00  0.00    +0.042 C 
ENDBRANCH  18  19
ENDBRANCH   1  18
TORSDOF 6
