REMARK  Name = ZINC14745475
REMARK  9 active torsions:
REMARK  status: ('A' for Active; 'I' for Inactive)
REMARK    1  A    between atoms: C_1  and  C_2
REMARK    2  A    between atoms: C_2  and  C_3
REMARK    3  A    between atoms: C_3  and  N_64
REMARK    4  A    between atoms: C_4  and  C_5
REMARK    5  A    between atoms: C_4  and  N_64
REMARK    6  A    between atoms: C_8  and  N_64
REMARK    7  A    between atoms: C_14  and  C_20
REMARK    8  A    between atoms: N_16  and  C_17
REMARK    9  A    between atoms: C_17  and  C_18
REMARK                            x       y       z     vdW  Elec       q    Type
REMARK                         _______ _______ _______ _____ _____    ______ ____
ROOT
ATOM      1  C   UNL     1      -1.418  -0.098   1.752  0.00  0.00    -0.064 C 
ATOM      2  C   UNL     1      -2.197   0.040   0.441  0.00  0.00    -0.009 C 
ATOM      3  C   UNL     1      -3.432  -0.870   0.477  0.00  0.00    +0.054 C 
ATOM      4  C   UNL     1      -4.169  -0.617   1.767  0.00  0.00    +0.043 A 
ATOM      5  C   UNL     1      -3.626   0.013   2.837  0.00  0.00    +0.004 A 
ATOM      6  C   UNL     1      -4.632   0.047   3.817  0.00  0.00    +0.151 A 
ATOM      7  N   UNL     1      -5.689  -0.550   3.295  0.00  0.00    -0.166 NA
ATOM      8  N   UNL     1      -5.430  -0.943   2.095  0.00  0.00    -0.264 N 
ATOM      9  C   UNL     1      -2.219   0.542   2.894  0.00  0.00    +0.024 C 
ENDROOT
BRANCH   6  10
ATOM     10  C   UNL     1      -4.528   0.633   5.169  0.00  0.00    +0.267 C 
ATOM     11  O   UNL     1      -3.536   1.262   5.484  0.00  0.00    -0.268 OA
ATOM     12  N   UNL     1      -5.533   0.473   6.052  0.00  0.00    -0.296 N 
ATOM     13  C   UNL     1      -6.675  -0.396   5.737  0.00  0.00    +0.108 C 
ATOM     14  C   UNL     1      -6.843  -1.415   6.874  0.00  0.00    +0.019 C 
ATOM     15  C   UNL     1      -6.969  -0.669   8.205  0.00  0.00    +0.003 C 
ATOM     16  C   UNL     1      -5.693   0.135   8.464  0.00  0.00    +0.019 C 
ATOM     17  C   UNL     1      -5.510   1.168   7.347  0.00  0.00    +0.108 C 
ENDBRANCH   6  10
BRANCH   1  18
ATOM     18  N   UNL     1      -0.106   0.568   1.603  0.00  0.00    +0.382 N 
ATOM     19  H   UNL     1       0.409   0.120   0.836  0.00  0.00    -0.081 HD
BRANCH  18  20
ATOM     20  C   UNL     1      -0.299   1.998   1.282  0.00  0.00    -0.079 C 
BRANCH  20  22
ATOM     21  C   UNL     1       0.869   4.084   0.558  0.00  0.00    +0.002 C 
ATOM     22  C   UNL     1       1.055   2.608   0.914  0.00  0.00    -0.022 C 
ENDBRANCH  20  22
ENDBRANCH  18  20
BRANCH  18  23
ATOM     23  C   UNL     1       0.674   0.431   2.850  0.00  0.00    -0.075 C 
BRANCH  23  24
ATOM     24  C   UNL     1       1.062  -1.038   3.031  0.00  0.00    -0.028 C 
ATOM     25  C   UNL     1       0.537  -1.759   4.274  0.00  0.00    +0.002 C 
ATOM     26  C   UNL     1       2.016  -1.381   4.176  0.00  0.00    +0.002 C 
ENDBRANCH  23  24
ENDBRANCH  18  23
ENDBRANCH   1  18
BRANCH   8  27
ATOM     27  C   UNL     1      -6.372  -1.642   1.218  0.00  0.00    +0.170 C 
BRANCH  27  28
ATOM     28  C   UNL     1      -6.241  -3.129   1.423  0.00  0.00    -0.012 C 
ATOM     29  C   UNL     1      -7.295  -3.843   1.735  0.00  0.00    +0.006 C 
ENDBRANCH  27  28
ENDBRANCH   8  27
TORSDOF 8
