REMARK  Name = ZINC07144232
REMARK  4 active torsions:
REMARK  status: ('A' for Active; 'I' for Inactive)
REMARK    1  A    between atoms: C_11  and  C_13
REMARK    2  A    between atoms: C_13  and  O_15
REMARK    3  A    between atoms: O_15  and  C_16
REMARK    4  A    between atoms: C_16  and  C_17
REMARK                            x       y       z     vdW  Elec       q    Type
REMARK                         _______ _______ _______ _____ _____    ______ ____
ROOT
ATOM      1  C   UNL     1       0.196   9.490   0.051  0.00  0.00    +0.346 C 
ATOM      2  O   UNL     1       1.196  10.184   0.046  0.00  0.00    -0.244 OA
ENDROOT
BRANCH   1  13
ATOM      3  C   UNL     1      -1.221   1.758   0.017  0.00  0.00    +0.001 A 
ATOM      4  C   UNL     1      -0.013   1.076   0.008  0.00  0.00    +0.001 A 
ATOM      5  C   UNL     1       1.171   1.788   0.001  0.00  0.00    +0.016 A 
ATOM      6  C   UNL     1       1.135   3.168   0.008  0.00  0.00    +0.021 A 
ATOM      7  C   UNL     1      -0.076   3.882   0.024  0.00  0.00    +0.004 A 
ATOM      8  C   UNL     1      -1.267   3.118   0.031  0.00  0.00    +0.010 A 
ATOM      9  C   UNL     1       0.056   5.340   0.030  0.00  0.00    +0.035 A 
ATOM     10  C   UNL     1       1.342   5.877   0.021  0.00  0.00    +0.028 A 
ATOM     11  S   UNL     1       2.385   4.424   0.003  0.00  0.00    -0.088 S 
ATOM     12  C   UNL     1       1.461   7.258   0.027  0.00  0.00    +0.038 A 
ATOM     13  C   UNL     1       0.318   8.032   0.042  0.00  0.00    +0.098 A 
ATOM     14  S   UNL     1      -0.974   6.803   0.048  0.00  0.00    -0.081 S 
ENDBRANCH   1  13
BRANCH   1  15
ATOM     15  O   UNL     1      -1.024  10.066   0.066  0.00  0.00    -0.453 OA
BRANCH  15  16
ATOM     16  C   UNL     1      -1.067  11.494   0.074  0.00  0.00    +0.308 C 
BRANCH  16  17
ATOM     17  C   UNL     1      -2.503  11.953   0.089  0.00  0.00    +0.173 A 
ATOM     18  N   UNL     1      -3.139  12.165  -1.049  0.00  0.00    -0.196 NA
ATOM     19  C   UNL     1      -4.409  12.565  -1.039  0.00  0.00    +0.217 A 
ATOM     20  N   UNL     1      -5.032  12.762   0.117  0.00  0.00    -0.181 NA
ATOM     21  C   UNL     1      -4.388  12.552   1.260  0.00  0.00    +0.217 A 
ATOM     22  N   UNL     1      -3.120  12.147   1.242  0.00  0.00    -0.196 NA
ATOM     23  N   UNL     1      -5.031  12.755   2.463  0.00  0.00    -0.327 N 
ATOM     24  N   UNL     1      -5.074  12.781  -2.229  0.00  0.00    -0.327 N 
ATOM     25  H   UNL     1      -4.560  12.603   3.297  0.00  0.00    +0.145 HD
ATOM     26  H   UNL     1      -5.955  13.051   2.475  0.00  0.00    +0.145 HD
ATOM     27  H   UNL     1      -5.998  13.077  -2.221  0.00  0.00    +0.145 HD
ATOM     28  H   UNL     1      -4.618  12.638  -3.073  0.00  0.00    +0.145 HD
ENDBRANCH  16  17
ENDBRANCH  15  16
ENDBRANCH   1  15
TORSDOF 4
