REMARK  Name = ZINC35191891
REMARK  11 active torsions:
REMARK  status: ('A' for Active; 'I' for Inactive)
REMARK    1  A    between atoms: C_1  and  N_2
REMARK    2  A    between atoms: N_2  and  C_3
REMARK    3  A    between atoms: N_2  and  C_4
REMARK    4  A    between atoms: C_4  and  C_5
REMARK    5  A    between atoms: C_5  and  N_6
REMARK    6  A    between atoms: C_7  and  C_9
REMARK    7  A    between atoms: C_13  and  C_25
REMARK    8  A    between atoms: C_16  and  C_18
REMARK    9  A    between atoms: C_28  and  O_31
REMARK   10  A    between atoms: O_31  and  C_32
REMARK   11  A    between atoms: C_32  and  C_33
REMARK                            x       y       z     vdW  Elec       q    Type
REMARK                         _______ _______ _______ _____ _____    ______ ____
ROOT
ATOM      1  C   UNL     1      -4.263  -4.976   0.381  0.00  0.00    +0.173 C 
ATOM      2  C   UNL     1      -4.647  -3.840  -0.613  0.00  0.00    +0.103 C 
ATOM      3  S   UNL     1      -3.876  -4.544  -2.139  0.00  0.00    -0.131 S 
ATOM      4  C   UNL     1      -4.088  -6.323  -1.706  0.00  0.00    +0.166 C 
ATOM      5  N   UNL     1      -4.370  -6.283  -0.261  0.00  0.00    -0.269 N 
ATOM      6  C   UNL     1      -4.707  -7.391   0.429  0.00  0.00    +0.248 C 
ATOM      7  O   UNL     1      -5.082  -7.298   1.582  0.00  0.00    -0.270 OA
ENDROOT
BRANCH   6   8
ATOM      8  C   UNL     1      -4.620  -8.718  -0.216  0.00  0.00    +0.037 A 
ATOM      9  C   UNL     1      -4.488  -8.816  -1.602  0.00  0.00    +0.014 A 
ATOM     10  C   UNL     1      -4.407 -10.056  -2.199  0.00  0.00    +0.021 A 
ATOM     11  C   UNL     1      -4.458 -11.204  -1.425  0.00  0.00    +0.041 A 
ATOM     12  C   UNL     1      -4.589 -11.113  -0.049  0.00  0.00    +0.021 A 
ATOM     13  C   UNL     1      -4.665  -9.878   0.559  0.00  0.00    +0.014 A 
ATOM     14 CL   UNL     1      -4.357 -12.763  -2.182  0.00  0.00    -0.084 Cl
ENDBRANCH   6   8
BRANCH   4  15
ATOM     15  C   UNL     1      -2.824  -7.093  -1.985  0.00  0.00    -0.017 A 
ATOM     16  C   UNL     1      -2.034  -7.528  -0.936  0.00  0.00    +0.010 A 
ATOM     17  C   UNL     1      -0.874  -8.234  -1.189  0.00  0.00    +0.046 A 
ATOM     18  C   UNL     1      -0.502  -8.508  -2.497  0.00  0.00    +0.121 A 
ATOM     19  C   UNL     1      -1.295  -8.071  -3.548  0.00  0.00    +0.046 A 
ATOM     20  C   UNL     1      -2.457  -7.370  -3.289  0.00  0.00    +0.010 A 
BRANCH  18  21
ATOM     21  O   UNL     1       0.639  -9.202  -2.748  0.00  0.00    -0.487 OA
BRANCH  21  22
ATOM     22  C   UNL     1       0.961  -9.447  -4.119  0.00  0.00    +0.264 C 
BRANCH  22  23
ATOM     23  C   UNL     1       2.250 -10.223  -4.202  0.00  0.00    -0.010 A 
ATOM     24  C   UNL     1       3.457  -9.553  -4.273  0.00  0.00    +0.007 A 
ATOM     25  C   UNL     1       4.639 -10.266  -4.348  0.00  0.00    +0.000 A 
ATOM     26  C   UNL     1       4.615 -11.648  -4.352  0.00  0.00    +0.000 A 
ATOM     27  C   UNL     1       3.408 -12.318  -4.280  0.00  0.00    +0.000 A 
ATOM     28  C   UNL     1       2.226 -11.605  -4.200  0.00  0.00    +0.007 A 
ENDBRANCH  22  23
ENDBRANCH  21  22
ENDBRANCH  18  21
ENDBRANCH   4  15
BRANCH   1  30
ATOM     29  N   UNL     1      -2.607  -4.205   2.049  0.00  0.00    -0.316 N 
ATOM     30  C   UNL     1      -2.845  -4.767   0.848  0.00  0.00    +0.234 C 
ATOM     31  O   UNL     1      -1.919  -5.105   0.142  0.00  0.00    -0.274 OA
ATOM     32  H   UNL     1      -3.349  -3.935   2.614  0.00  0.00    +0.149 HD
BRANCH  29  33
ATOM     33  C   UNL     1      -1.229  -4.002   2.503  0.00  0.00    +0.085 C 
BRANCH  33  34
ATOM     34  C   UNL     1      -1.239  -3.353   3.888  0.00  0.00    -0.061 C 
BRANCH  34  36
ATOM     35  C   UNL     1       0.136  -2.418   5.617  0.00  0.00    -0.097 C 
ATOM     36  N   UNL     1       0.143  -3.149   4.343  0.00  0.00    +0.377 N 
ATOM     37  C   UNL     1       0.794  -4.453   4.530  0.00  0.00    -0.097 C 
ATOM     38  H   UNL     1       0.650  -2.616   3.652  0.00  0.00    -0.083 HD
ENDBRANCH  34  36
ENDBRANCH  33  34
ENDBRANCH  29  33
ENDBRANCH   1  30
TORSDOF 9
