REMARK  Name = ZINC36545137
REMARK  13 active torsions:
REMARK  status: ('A' for Active; 'I' for Inactive)
REMARK    1  A    between atoms: C_1  and  C_2
REMARK    2  A    between atoms: C_2  and  C_3
REMARK    3  A    between atoms: C_3  and  C_4
REMARK    4  A    between atoms: C_4  and  N_5
REMARK    5  A    between atoms: C_6  and  C_8
REMARK    6  A    between atoms: C_8  and  C_10
REMARK    7  A    between atoms: C_8  and  N_19
REMARK    8  A    between atoms: C_13  and  O_18
REMARK    9  A    between atoms: C_14  and  O_16
REMARK   10  A    between atoms: O_16  and  C_17
REMARK   11  A    between atoms: N_19  and  C_20
REMARK   12  A    between atoms: C_27  and  C_29
REMARK   13  A    between atoms: C_32  and  O_35
REMARK                            x       y       z     vdW  Elec       q    Type
REMARK                         _______ _______ _______ _____ _____    ______ ____
ROOT
ATOM      1  C   UNL     1       2.311  -4.659   3.496  0.00  0.00    +0.198 C 
ENDROOT
BRANCH   1   2
ATOM      2  C   UNL     1       3.763  -4.402   3.185  0.00  0.00    -0.014 A 
ATOM      3  C   UNL     1       4.498  -5.346   2.492  0.00  0.00    +0.010 A 
ATOM      4  C   UNL     1       5.830  -5.115   2.204  0.00  0.00    +0.049 A 
ATOM      5  C   UNL     1       6.432  -3.935   2.611  0.00  0.00    +0.158 A 
ATOM      6  C   UNL     1       5.693  -2.984   3.308  0.00  0.00    +0.162 A 
ATOM      7  C   UNL     1       4.356  -3.220   3.589  0.00  0.00    +0.055 A 
BRANCH   6   8
ATOM      8  O   UNL     1       6.279  -1.825   3.709  0.00  0.00    -0.491 OA
ATOM      9  C   UNL     1       5.459  -0.895   4.421  0.00  0.00    +0.277 C 
ENDBRANCH   6   8
BRANCH   5  10
ATOM     10  O   UNL     1       7.743  -3.706   2.329  0.00  0.00    -0.503 OA
ATOM     11  H   UNL     1       7.891  -3.259   1.484  0.00  0.00    +0.292 HD
ENDBRANCH   5  10
ENDBRANCH   1   2
BRANCH   1  13
ATOM     12  N   UNL     1       1.295  -3.780   1.419  0.00  0.00    -0.313 N 
ATOM     13  C   UNL     1       1.547  -4.841   2.210  0.00  0.00    +0.238 C 
ATOM     14  O   UNL     1       1.158  -5.944   1.887  0.00  0.00    -0.273 OA
ATOM     15  H   UNL     1       1.606  -2.898   1.678  0.00  0.00    +0.149 HD
BRANCH  12  16
ATOM     16  C   UNL     1       0.552  -3.957   0.169  0.00  0.00    +0.104 C 
BRANCH  16  17
ATOM     17  C   UNL     1       0.405  -2.606  -0.533  0.00  0.00    +0.018 C 
BRANCH  17  19
ATOM     18  C   UNL     1      -0.518  -1.440  -2.541  0.00  0.00    +0.004 C 
ATOM     19  C   UNL     1      -0.371  -2.792  -1.838  0.00  0.00    -0.002 C 
ENDBRANCH  17  19
ENDBRANCH  16  17
ENDBRANCH  12  16
ENDBRANCH   1  13
BRANCH   1  20
ATOM     20  N   UNL     1       2.193  -5.871   4.311  0.00  0.00    -0.250 N 
ATOM     21  C   UNL     1       0.995  -6.235   4.807  0.00  0.00    +0.252 C 
ATOM     22  O   UNL     1       0.000  -5.594   4.527  0.00  0.00    -0.270 OA
BRANCH  20  23
ATOM     23  C   UNL     1       3.325  -6.650   4.573  0.00  0.00    +0.056 A 
ATOM     24  C   UNL     1       4.281  -6.207   5.479  0.00  0.00    +0.025 A 
ATOM     25  C   UNL     1       5.397  -6.978   5.736  0.00  0.00    +0.002 A 
ATOM     26  C   UNL     1       5.565  -8.191   5.093  0.00  0.00    +0.002 A 
ATOM     27  C   UNL     1       4.616  -8.636   4.191  0.00  0.00    +0.022 A 
ATOM     28  C   UNL     1       3.494  -7.872   3.933  0.00  0.00    +0.062 A 
ATOM     29 CL   UNL     1       2.299  -8.434   2.806  0.00  0.00    -0.082 Cl
ENDBRANCH  20  23
BRANCH  21  30
ATOM     30  C   UNL     1       0.889  -7.412   5.691  0.00  0.00    +0.037 A 
ATOM     31  C   UNL     1       1.899  -7.685   6.618  0.00  0.00    +0.016 A 
ATOM     32  C   UNL     1       1.796  -8.784   7.441  0.00  0.00    +0.046 A 
ATOM     33  C   UNL     1       0.690  -9.621   7.351  0.00  0.00    +0.117 A 
ATOM     34  C   UNL     1      -0.317  -9.353   6.431  0.00  0.00    +0.046 A 
ATOM     35  C   UNL     1      -0.224  -8.253   5.608  0.00  0.00    +0.016 A 
BRANCH  33  36
ATOM     36  O   UNL     1       0.592 -10.703   8.165  0.00  0.00    -0.507 OA
ATOM     37  H   UNL     1       0.144 -10.526   9.003  0.00  0.00    +0.292 HD
ENDBRANCH  33  36
ENDBRANCH  21  30
ENDBRANCH   1  20
TORSDOF 11
