REMARK  Name = ZINC18060880
REMARK  6 active torsions:
REMARK  status: ('A' for Active; 'I' for Inactive)
REMARK    1  A    between atoms: C_4  and  N_28
REMARK    2  A    between atoms: C_5  and  C_7
REMARK    3  A    between atoms: N_8  and  N_9
REMARK    4  A    between atoms: C_10  and  S_12
REMARK    5  A    between atoms: S_12  and  C_13
REMARK    6  A    between atoms: N_18  and  C_21
REMARK                            x       y       z     vdW  Elec       q    Type
REMARK                         _______ _______ _______ _____ _____    ______ ____
ROOT
ATOM      1  N   UNL     1       1.733  -3.743   0.170  0.00  0.00    -0.217 N 
ATOM      2  C   UNL     1       2.918  -4.444   0.146  0.00  0.00    +0.146 C 
ATOM      3  N   UNL     1       4.049  -3.820   0.326  0.00  0.00    -0.380 N 
ATOM      4  H   UNL     1       0.888  -4.216   0.110  0.00  0.00    +0.176 HD
ATOM      5  H   UNL     1       4.886  -4.308   0.277  0.00  0.00    +0.158 HD
ATOM      6  H   UNL     1       4.053  -2.867   0.509  0.00  0.00    +0.158 HD
ENDROOT
BRANCH   1   8
ATOM      7  C   UNL     1       0.637  -1.678   0.205  0.00  0.00    +0.140 C 
ATOM      8  N   UNL     1       1.747  -2.347   0.281  0.00  0.00    -0.188 NA
BRANCH   7  13
ATOM      9  C   UNL     1       1.898   1.856   0.171  0.00  0.00    +0.001 A 
ATOM     10  C   UNL     1       0.710   2.565   0.224  0.00  0.00    +0.002 A 
ATOM     11  C   UNL     1      -0.500   1.897   0.270  0.00  0.00    +0.033 A 
ATOM     12  C   UNL     1      -0.532   0.518   0.264  0.00  0.00    +0.135 A 
ATOM     13  C   UNL     1       0.663  -0.204   0.211  0.00  0.00    +0.025 A 
ATOM     14  C   UNL     1       1.881   0.477   0.164  0.00  0.00    +0.012 A 
BRANCH  12  15
ATOM     15  N   UNL     1      -1.828  -0.195   0.315  0.00  0.00    +0.057 N 
ATOM     16  O   UNL     1      -2.852   0.424   0.489  0.00  0.00    -0.126 OA
ATOM     17  O   UNL     1      -1.863  -1.396   0.182  0.00  0.00    -0.126 OA
ENDBRANCH  12  15
ENDBRANCH   7  13
ENDBRANCH   1   8
BRANCH   2  18
ATOM     18  S   UNL     1       2.906  -6.185  -0.128  0.00  0.00    -0.078 S 
BRANCH  18  19
ATOM     19  C   UNL     1       4.659  -6.649  -0.073  0.00  0.00    +0.149 C 
ATOM     20  C   UNL     1       4.822  -8.175  -0.227  0.00  0.00    +0.120 C 
ATOM     21  C   UNL     1       5.633  -8.319  -1.497  0.00  0.00    +0.228 C 
ATOM     22  O   UNL     1       5.988  -9.368  -1.988  0.00  0.00    -0.275 OA
ATOM     23  N   UNL     1       5.895  -7.103  -1.991  0.00  0.00    -0.209 N 
ATOM     24  C   UNL     1       5.397  -6.088  -1.269  0.00  0.00    +0.240 C 
ATOM     25  O   UNL     1       5.515  -4.910  -1.531  0.00  0.00    -0.274 OA
BRANCH  23  26
ATOM     26  C   UNL     1       6.633  -6.905  -3.167  0.00  0.00    +0.044 A 
ATOM     27  C   UNL     1       7.875  -6.286  -3.114  0.00  0.00    +0.025 A 
ATOM     28  C   UNL     1       8.599  -6.093  -4.273  0.00  0.00    +0.017 A 
ATOM     29  C   UNL     1       8.089  -6.515  -5.488  0.00  0.00    +0.018 A 
ATOM     30  C   UNL     1       6.852  -7.132  -5.544  0.00  0.00    +0.017 A 
ATOM     31  C   UNL     1       6.126  -7.333  -4.387  0.00  0.00    +0.025 A 
ATOM     32 BR   UNL     1       9.083  -6.248  -7.074  0.00  0.00    -0.050 Br
ENDBRANCH  23  26
ENDBRANCH  18  19
ENDBRANCH   2  18
TORSDOF 6
