REMARK  Name = ZINC12512077
REMARK  6 active torsions:
REMARK  status: ('A' for Active; 'I' for Inactive)
REMARK    1  A    between atoms: C_1  and  N_2
REMARK    2  A    between atoms: N_2  and  C_3
REMARK    3  A    between atoms: C_3  and  C_4
REMARK    4  A    between atoms: C_11  and  C_13
REMARK    5  A    between atoms: N_16  and  C_19
REMARK    6  A    between atoms: C_24  and  N_25
REMARK                            x       y       z     vdW  Elec       q    Type
REMARK                         _______ _______ _______ _____ _____    ______ ____
ROOT
ATOM      1  C   UNL     1      -2.080   1.134   1.020  0.00  0.00    +0.078 C 
ATOM      2  C   UNL     1      -0.647   1.672   1.031  0.00  0.00    +0.031 C 
ATOM      3  C   UNL     1       0.065   1.240  -0.253  0.00  0.00    +0.106 C 
ATOM      4  N   UNL     1      -0.664   1.761  -1.417  0.00  0.00    -0.328 N 
ATOM      5  C   UNL     1      -2.028   1.221  -1.475  0.00  0.00    +0.106 C 
ATOM      6  C   UNL     1      -2.802   1.652  -0.227  0.00  0.00    +0.031 C 
ENDROOT
BRANCH   4   7
ATOM      7  C   UNL     1       0.030   1.498  -2.600  0.00  0.00    +0.060 A 
ATOM      8  C   UNL     1       0.227   0.187  -3.015  0.00  0.00    +0.025 A 
ATOM      9  C   UNL     1       0.908  -0.070  -4.189  0.00  0.00    +0.002 A 
ATOM     10  C   UNL     1       1.404   0.977  -4.945  0.00  0.00    +0.002 A 
ATOM     11  C   UNL     1       1.214   2.283  -4.532  0.00  0.00    +0.034 A 
ATOM     12  C   UNL     1       0.529   2.547  -3.362  0.00  0.00    +0.147 A 
BRANCH  12  13
ATOM     13  N   UNL     1       0.328   3.945  -2.921  0.00  0.00    +0.058 N 
ATOM     14  O   UNL     1       0.673   4.866  -3.639  0.00  0.00    -0.126 OA
ATOM     15  O   UNL     1      -0.183   4.174  -1.839  0.00  0.00    -0.126 OA
ENDBRANCH  12  13
ENDBRANCH   4   7
BRANCH   1  18
ATOM     16  C   UNL     1      -1.143   0.442   3.603  0.00  0.00    +0.132 C 
ATOM     17  N   UNL     1      -2.347   1.268   3.475  0.00  0.00    -0.300 N 
ATOM     18  C   UNL     1      -2.805   1.605   2.254  0.00  0.00    +0.219 C 
ATOM     19  O   UNL     1      -3.801   2.289   2.148  0.00  0.00    -0.275 OA
BRANCH  17  20
ATOM     20  C   UNL     1      -3.051   1.726   4.675  0.00  0.00    +0.144 C 
BRANCH  20  21
ATOM     21  C   UNL     1      -4.022   0.664   5.125  0.00  0.00    -0.012 A 
ATOM     22  C   UNL     1      -4.214  -0.467   4.354  0.00  0.00    +0.006 A 
ATOM     23  C   UNL     1      -5.101  -1.443   4.768  0.00  0.00    +0.000 A 
ATOM     24  C   UNL     1      -5.803  -1.284   5.949  0.00  0.00    +0.001 A 
ATOM     25  C   UNL     1      -5.614  -0.151   6.718  0.00  0.00    +0.020 A 
ATOM     26  C   UNL     1      -4.724   0.824   6.306  0.00  0.00    +0.046 A 
ATOM     27 CL   UNL     1      -4.487   2.248   7.271  0.00  0.00    -0.083 Cl
ENDBRANCH  20  21
ENDBRANCH  17  20
ENDBRANCH   1  18
TORSDOF 5
