REMARK  Name = ZINC21664019
REMARK  7 active torsions:
REMARK  status: ('A' for Active; 'I' for Inactive)
REMARK    1  A    between atoms: C_1  and  C_2
REMARK    2  A    between atoms: C_2  and  N_3
REMARK    3  A    between atoms: N_6  and  C_9
REMARK    4  A    between atoms: C_9  and  C_10
REMARK    5  A    between atoms: C_10  and  C_11
REMARK    6  A    between atoms: C_11  and  N_12
REMARK    7  A    between atoms: C_13  and  C_15
REMARK                            x       y       z     vdW  Elec       q    Type
REMARK                         _______ _______ _______ _____ _____    ______ ____
ROOT
ATOM      1  C   UNL     1       6.995   1.919   1.121  0.00  0.00    +0.092 C 
ATOM      2  C   UNL     1       7.688   2.251  -0.204  0.00  0.00    +0.016 C 
ATOM      3  C   UNL     1       6.893   1.629  -1.356  0.00  0.00    +0.020 C 
ATOM      4  C   UNL     1       5.457   2.158  -1.322  0.00  0.00    +0.107 C 
ATOM      5  N   UNL     1       4.838   1.815  -0.036  0.00  0.00    -0.307 N 
ATOM      6  C   UNL     1       5.556   2.440   1.083  0.00  0.00    +0.119 C 
ATOM      7  C   UNL     1       3.499   2.163  -0.021  0.00  0.00    +0.184 A 
ATOM      8  N   UNL     1       2.448   1.388  -0.013  0.00  0.00    -0.139 NA
ATOM      9  N   UNL     1       1.159   1.912   0.001  0.00  0.00    -0.169 N 
ATOM     10  C   UNL     1      -0.015   1.217   0.009  0.00  0.00    +0.279 A 
ATOM     11  O   UNL     1       0.002  -0.004   0.002  0.00  0.00    -0.265 OA
ATOM     12  C   UNL     1      -1.240   1.898   0.018  0.00  0.00    +0.040 A 
ATOM     13  C   UNL     1      -1.246   3.270   0.036  0.00  0.00    +0.053 A 
ATOM     14  N   UNL     1      -0.079   3.918   0.025  0.00  0.00    -0.226 NA
ATOM     15  C   UNL     1       1.058   3.275   0.009  0.00  0.00    +0.201 A 
ATOM     16  S   UNL     1       2.761   3.790  -0.007  0.00  0.00    -0.013 S 
ATOM     17  C   UNL     1      -2.513   4.081   0.070  0.00  0.00    +0.056 C 
ATOM     18  C   UNL     1      -3.706   3.226  -0.367  0.00  0.00    +0.006 C 
ATOM     19  C   UNL     1      -3.694   1.933   0.457  0.00  0.00    +0.005 C 
ATOM     20  C   UNL     1      -2.506   1.084   0.008  0.00  0.00    +0.042 C 
ENDROOT
BRANCH   1  22
ATOM     21  N   UNL     1       7.304   2.425   3.522  0.00  0.00    -0.315 N 
ATOM     22  C   UNL     1       7.738   2.576   2.255  0.00  0.00    +0.218 C 
ATOM     23  O   UNL     1       8.726   3.241   2.029  0.00  0.00    -0.275 OA
ATOM     24  H   UNL     1       6.407   1.821   3.728  0.00  0.00    +0.149 HD
BRANCH  21  25
ATOM     25  C   UNL     1       8.026   3.063   4.625  0.00  0.00    +0.105 C 
BRANCH  25  26
ATOM     26  C   UNL     1       7.330   2.735   5.948  0.00  0.00    +0.034 C 
BRANCH  26  27
ATOM     27  C   UNL     1       8.084   3.401   7.100  0.00  0.00    +0.086 C 
BRANCH  27  31
ATOM     28  N   UNL     1       6.209   3.702  10.874  0.00  0.00    +0.381 N 
ATOM     29  C   UNL     1       7.544   3.090  10.815  0.00  0.00    -0.063 C 
ATOM     30  C   UNL     1       8.236   3.506   9.515  0.00  0.00    +0.066 C 
ATOM     31  N   UNL     1       7.416   3.086   8.370  0.00  0.00    -0.306 NA
ATOM     32  C   UNL     1       6.082   3.698   8.429  0.00  0.00    +0.066 C 
ATOM     33  C   UNL     1       5.389   3.282   9.729  0.00  0.00    -0.063 C 
ATOM     34  H   UNL     1       6.334   4.793  10.821  0.00  0.00    -0.082 HD
BRANCH  28  36
ATOM     35  C   UNL     1       4.077   3.822  12.072  0.00  0.00    -0.017 C 
ATOM     36  C   UNL     1       5.541   3.386  12.144  0.00  0.00    -0.082 C 
ENDBRANCH  28  36
ENDBRANCH  27  31
ENDBRANCH  26  27
ENDBRANCH  25  26
ENDBRANCH  21  25
ENDBRANCH   1  22
TORSDOF 6
