REMARK  Name = ZINC36519543
REMARK  19 active torsions:
REMARK  status: ('A' for Active; 'I' for Inactive)
REMARK    1  A    between atoms: C_1  and  C_2
REMARK    2  A    between atoms: C_2  and  C_3
REMARK    3  A    between atoms: C_3  and  C_4
REMARK    4  A    between atoms: C_4  and  C_5
REMARK    5  A    between atoms: C_5  and  C_6
REMARK    6  A    between atoms: C_6  and  N_7
REMARK    7  A    between atoms: N_7  and  C_8
REMARK    8  A    between atoms: C_8  and  C_10
REMARK    9  A    between atoms: C_8  and  C_19
REMARK   10  A    between atoms: C_13  and  N_16
REMARK   11  A    between atoms: N_21  and  C_22
REMARK   12  A    between atoms: C_22  and  C_23
REMARK   13  A    between atoms: C_22  and  C_24
REMARK   14  A    between atoms: C_22  and  C_25
REMARK   15  A    between atoms: C_25  and  C_26
REMARK   16  A    between atoms: C_26  and  C_27
REMARK   17  A    between atoms: C_26  and  C_28
REMARK   18  A    between atoms: C_26  and  C_29
REMARK   19  A    between atoms: C_30  and  C_32
REMARK                            x       y       z     vdW  Elec       q    Type
REMARK                         _______ _______ _______ _____ _____    ______ ____
ROOT
ATOM      1  C   UNL     1       2.178  -6.137   7.375  0.00  0.00    +0.192 C 
ENDROOT
BRANCH   1   2
ATOM      2  C   UNL     1       1.204  -7.163   7.896  0.00  0.00    -0.018 A 
ATOM      3  C   UNL     1       0.146  -7.573   7.107  0.00  0.00    +0.008 A 
ATOM      4  C   UNL     1      -0.748  -8.514   7.584  0.00  0.00    +0.033 A 
ATOM      5  C   UNL     1      -0.583  -9.044   8.850  0.00  0.00    +0.126 A 
ATOM      6  C   UNL     1       0.476  -8.635   9.638  0.00  0.00    +0.033 A 
ATOM      7  C   UNL     1       1.372  -7.697   9.159  0.00  0.00    +0.008 A 
BRANCH   5   8
ATOM      8  N   UNL     1      -1.540 -10.051   9.361  0.00  0.00    +0.056 N 
ATOM      9  O   UNL     1      -2.466 -10.409   8.671  0.00  0.00    -0.126 OA
ATOM     10  O   UNL     1      -1.395 -10.515  10.468  0.00  0.00    -0.126 OA
ENDBRANCH   5   8
ENDBRANCH   1   2
BRANCH   1  11
ATOM     11  C   UNL     1       2.813  -5.414   8.535  0.00  0.00    +0.238 C 
ATOM     12  O   UNL     1       4.015  -5.453   8.690  0.00  0.00    -0.273 OA
ATOM     13  N   UNL     1       2.044  -4.723   9.401  0.00  0.00    -0.308 N 
ATOM     14  H   UNL     1       1.083  -4.692   9.277  0.00  0.00    +0.149 HD
BRANCH  13  15
ATOM     15  C   UNL     1       2.661  -4.020  10.528  0.00  0.00    +0.030 C 
ATOM     16  C   UNL     1       3.680  -4.938  11.206  0.00  0.00    +0.031 C 
ATOM     17  C   UNL     1       3.368  -2.762  10.019  0.00  0.00    +0.031 C 
BRANCH  15  18
ATOM     18  C   UNL     1       1.580  -3.625  11.536  0.00  0.00    +0.031 C 
BRANCH  18  19
ATOM     19  C   UNL     1       0.405  -2.982  10.797  0.00  0.00    -0.036 C 
ATOM     20  C   UNL     1      -0.334  -4.049   9.986  0.00  0.00    +0.010 C 
ATOM     21  C   UNL     1      -0.555  -2.358  11.812  0.00  0.00    +0.010 C 
ATOM     22  C   UNL     1       0.927  -1.895   9.855  0.00  0.00    +0.010 C 
ENDBRANCH  18  19
ENDBRANCH  15  18
ENDBRANCH  13  15
ENDBRANCH   1  11
BRANCH   1  23
ATOM     23  N   UNL     1       3.218  -6.806   6.589  0.00  0.00    -0.284 N 
ATOM     24  C   UNL     1       3.484  -6.392   5.335  0.00  0.00    +0.237 C 
ATOM     25  O   UNL     1       2.920  -5.418   4.884  0.00  0.00    -0.274 OA
BRANCH  24  26
ATOM     26  C   UNL     1       4.484  -7.140   4.491  0.00  0.00    +0.159 C 
ATOM     27  C   UNL     1       5.922  -6.709   4.857  0.00  0.00    +0.041 C 
ATOM     28  C   UNL     1       6.187  -5.589   3.825  0.00  0.00    +0.098 C 
ATOM     29  C   UNL     1       5.258  -5.915   2.676  0.00  0.00    +0.214 C 
ATOM     30  O   UNL     1       5.349  -5.455   1.558  0.00  0.00    -0.276 OA
ATOM     31  N   UNL     1       4.317  -6.791   3.075  0.00  0.00    -0.304 N 
ATOM     32  H   UNL     1       3.619  -7.145   2.503  0.00  0.00    +0.149 HD
ENDBRANCH  24  26
BRANCH  23  33
ATOM     33  C   UNL     1       3.967  -7.924   7.167  0.00  0.00    +0.109 C 
BRANCH  33  34
ATOM     34  C   UNL     1       3.246  -9.237   6.854  0.00  0.00    +0.019 C 
BRANCH  34  35
ATOM     35  C   UNL     1       4.029 -10.405   7.458  0.00  0.00    +0.002 C 
BRANCH  35  36
ATOM     36  C   UNL     1       3.308 -11.718   7.145  0.00  0.00    -0.000 C 
BRANCH  36  38
ATOM     37  C   UNL     1       3.370 -14.198   7.436  0.00  0.00    +0.004 C 
ATOM     38  C   UNL     1       4.091 -12.886   7.748  0.00  0.00    -0.003 C 
ENDBRANCH  36  38
ENDBRANCH  35  36
ENDBRANCH  34  35
ENDBRANCH  33  34
ENDBRANCH  23  33
ENDBRANCH   1  23
TORSDOF 13
