REMARK  Name = ZINC66175191
REMARK  9 active torsions:
REMARK  status: ('A' for Active; 'I' for Inactive)
REMARK    1  A    between atoms: C_1  and  C_2
REMARK    2  A    between atoms: C_2  and  C_3
REMARK    3  A    between atoms: C_3  and  N_4
REMARK    4  A    between atoms: C_7  and  N_10
REMARK    5  A    between atoms: N_10  and  C_11
REMARK    6  A    between atoms: N_14  and  C_15
REMARK    7  A    between atoms: C_15  and  C_16
REMARK    8  A    between atoms: C_16  and  C_18
REMARK    9  A    between atoms: C_16  and  N_23
REMARK                            x       y       z     vdW  Elec       q    Type
REMARK                         _______ _______ _______ _____ _____    ______ ____
ROOT
ATOM      1  N   UNL     1       0.357  -6.011  -2.384  0.00  0.00    -0.286 N 
ATOM      2  C   UNL     1       0.680  -6.622  -1.092  0.00  0.00    +0.134 C 
ATOM      3  C   UNL     1      -0.003  -6.787  -3.425  0.00  0.00    +0.302 C 
ATOM      4  O   UNL     1      -0.271  -6.279  -4.497  0.00  0.00    -0.253 OA
ATOM      5  N   UNL     1      -0.066  -8.125  -3.279  0.00  0.00    -0.300 N 
ATOM      6  H   UNL     1       0.148  -8.530  -2.424  0.00  0.00    +0.150 HD
ENDROOT
BRANCH   1  10
ATOM      7  N   UNL     1       0.964  -1.968  -1.358  0.00  0.00    +0.380 N 
ATOM      8  C   UNL     1      -0.411  -2.368  -1.681  0.00  0.00    -0.077 C 
ATOM      9  C   UNL     1      -0.545  -3.888  -1.565  0.00  0.00    +0.004 C 
ATOM     10  C   UNL     1       0.425  -4.556  -2.543  0.00  0.00    +0.074 C 
ATOM     11  C   UNL     1       1.848  -4.074  -2.244  0.00  0.00    +0.004 C 
ATOM     12  C   UNL     1       1.893  -2.548  -2.334  0.00  0.00    -0.077 C 
ATOM     13  H   UNL     1       1.199  -2.298  -0.434  0.00  0.00    -0.082 HD
BRANCH   7  14
ATOM     14  C   UNL     1       1.068  -0.503  -1.394  0.00  0.00    -0.079 C 
BRANCH  14  16
ATOM     15  C   UNL     1       0.301   1.623  -0.330  0.00  0.00    +0.002 C 
ATOM     16  C   UNL     1       0.192   0.098  -0.292  0.00  0.00    -0.022 C 
ENDBRANCH  14  16
ENDBRANCH   7  14
ENDBRANCH   1  10
BRANCH   5  17
ATOM     17  C   UNL     1      -0.457  -8.968  -4.411  0.00  0.00    +0.095 C 
BRANCH  17  18
ATOM     18  C   UNL     1      -0.321 -10.441  -4.021  0.00  0.00    -0.013 C 
BRANCH  18  19
ATOM     19  N   UNL     1      -0.836 -11.285  -5.107  0.00  0.00    +0.386 N 
ATOM     20  C   UNL     1      -0.731 -12.720  -4.736  0.00  0.00    -0.078 C 
ATOM     21  C   UNL     1      -1.775 -13.402  -5.654  0.00  0.00    -0.020 C 
ATOM     22  C   UNL     1      -2.928 -12.371  -5.692  0.00  0.00    -0.020 C 
ATOM     23  C   UNL     1      -2.278 -11.027  -5.314  0.00  0.00    -0.078 C 
ATOM     24  H   UNL     1      -0.325 -11.107  -5.959  0.00  0.00    -0.081 HD
ENDBRANCH  18  19
BRANCH  18  25
ATOM     25  C   UNL     1       1.130 -10.765  -3.778  0.00  0.00    -0.022 A 
ATOM     26  C   UNL     1       1.796 -10.872  -2.602  0.00  0.00    +0.009 A 
ATOM     27  C   UNL     1       3.143 -11.182  -2.620  0.00  0.00    +0.008 A 
ATOM     28  C   UNL     1       3.758 -11.370  -3.813  0.00  0.00    +0.045 A 
ATOM     29  S   UNL     1       2.418 -11.114  -4.965  0.00  0.00    -0.103 S 
ENDBRANCH  18  25
ENDBRANCH  17  18
ENDBRANCH   5  17
TORSDOF 7
