REMARK  Name = ZINC16013429
REMARK  5 active torsions:
REMARK  status: ('A' for Active; 'I' for Inactive)
REMARK    1  A    between atoms: C_4  and  C_7
REMARK    2  A    between atoms: C_7  and  C_8
REMARK    3  A    between atoms: C_8  and  N_9
REMARK    4  A    between atoms: C_14  and  C_32
REMARK    5  A    between atoms: C_32  and  C_33
REMARK                            x       y       z     vdW  Elec       q    Type
REMARK                         _______ _______ _______ _____ _____    ______ ____
ROOT
ATOM      1  N   UNL     1       5.450  -1.678   1.382  0.00  0.00    -0.241 N 
ATOM      2  C   UNL     1       5.532  -3.014   1.369  0.00  0.00    +0.227 C 
ATOM      3  O   UNL     1       4.587  -3.773   1.369  0.00  0.00    -0.275 OA
ATOM      4  C   UNL     1       6.986  -3.428   1.353  0.00  0.00    +0.107 C 
ATOM      5  C   UNL     1       7.336  -4.098   2.699  0.00  0.00    +0.072 C 
ATOM      6  N   UNL     1       8.628  -3.482   3.105  0.00  0.00    -0.295 NA
ATOM      7  C   UNL     1       8.492  -2.067   2.713  0.00  0.00    +0.136 C 
ATOM      8  C   UNL     1       7.744  -2.071   1.356  0.00  0.00    +0.122 C 
ATOM      9  C   UNL     1       6.631  -1.049   1.373  0.00  0.00    +0.228 C 
ATOM     10  O   UNL     1       6.784   0.153   1.379  0.00  0.00    -0.275 OA
ATOM     11  C   UNL     1       7.756  -1.276   3.757  0.00  0.00    +0.006 A 
ATOM     12  C   UNL     1       6.499  -1.376   4.311  0.00  0.00    +0.046 A 
ATOM     13  C   UNL     1       6.096  -0.475   5.283  0.00  0.00    +0.124 A 
ATOM     14  C   UNL     1       6.961   0.525   5.694  0.00  0.00    +0.040 A 
ATOM     15  C   UNL     1       8.220   0.629   5.140  0.00  0.00    +0.026 A 
ATOM     16  C   UNL     1       8.632  -0.274   4.162  0.00  0.00    +0.039 A 
ATOM     17  N   UNL     1       9.837  -0.373   3.462  0.00  0.00    -0.283 N 
ATOM     18  C   UNL     1       9.835  -1.401   2.591  0.00  0.00    +0.243 C 
ATOM     19  O   UNL     1      10.740  -1.726   1.852  0.00  0.00    -0.273 OA
ATOM     20  F   UNL     1       4.864  -0.572   5.828  0.00  0.00    -0.205 F 
ATOM     21  H   UNL     1       8.772  -3.569   4.100  0.00  0.00    +0.124 HD
ATOM     22  H   UNL     1      10.588   0.228   3.588  0.00  0.00    +0.155 HD
ENDROOT
BRANCH   1  23
ATOM     23  C   UNL     1       4.171  -0.963   1.399  0.00  0.00    +0.121 C 
BRANCH  23  24
ATOM     24  C   UNL     1       3.711  -0.707  -0.038  0.00  0.00    +0.054 C 
BRANCH  24  28
ATOM     25  C   UNL     1      -0.017   1.378   0.010  0.00  0.00    +0.000 A 
ATOM     26  C   UNL     1       1.171   2.086   0.002  0.00  0.00    +0.000 A 
ATOM     27  C   UNL     1       2.377   1.411  -0.013  0.00  0.00    +0.004 A 
ATOM     28  C   UNL     1       2.396   0.029  -0.020  0.00  0.00    -0.046 A 
ATOM     29  C   UNL     1       1.208  -0.679  -0.012  0.00  0.00    +0.004 A 
ATOM     30  C   UNL     1       0.002  -0.004   0.002  0.00  0.00    +0.000 A 
ENDBRANCH  24  28
ENDBRANCH  23  24
ENDBRANCH   1  23
BRANCH   5  31
ATOM     31  C   UNL     1       7.498  -5.608   2.516  0.00  0.00    +0.054 C 
BRANCH  31  32
ATOM     32  C   UNL     1       7.718  -6.256   3.858  0.00  0.00    -0.046 A 
ATOM     33  C   UNL     1       9.001  -6.407   4.352  0.00  0.00    +0.004 A 
ATOM     34  C   UNL     1       9.202  -7.001   5.583  0.00  0.00    +0.000 A 
ATOM     35  C   UNL     1       8.121  -7.445   6.322  0.00  0.00    +0.000 A 
ATOM     36  C   UNL     1       6.839  -7.293   5.829  0.00  0.00    +0.000 A 
ATOM     37  C   UNL     1       6.637  -6.695   4.600  0.00  0.00    +0.004 A 
ENDBRANCH  31  32
ENDBRANCH   5  31
TORSDOF 5
