REMARK  Name = ZINC04498972
REMARK  5 active torsions:
REMARK  status: ('A' for Active; 'I' for Inactive)
REMARK    1  A    between atoms: C_4  and  C_7
REMARK    2  A    between atoms: C_13  and  C_15
REMARK    3  A    between atoms: N_17  and  N_18
REMARK    4  A    between atoms: C_19  and  C_20
REMARK    5  A    between atoms: C_21  and  C_22
REMARK                            x       y       z     vdW  Elec       q    Type
REMARK                         _______ _______ _______ _____ _____    ______ ____
ROOT
ATOM      1  C   UNL     1       8.241   2.178   0.246  0.00  0.00    +0.245 C 
ATOM      2  O   UNL     1       8.142   1.490  -0.748  0.00  0.00    -0.273 OA
ATOM      3  N   UNL     1       8.306   1.601   1.462  0.00  0.00    -0.206 N 
ATOM      4  H   UNL     1       8.385   2.151   2.257  0.00  0.00    +0.177 HD
ENDROOT
BRANCH   1  10
ATOM      5  C   UNL     1       9.752   4.160  -0.039  0.00  0.00    +0.057 C 
ATOM      6  C   UNL     1       9.893   4.234  -1.575  0.00  0.00    +0.113 C 
ATOM      7  N   UNL     1       8.532   4.437  -2.084  0.00  0.00    -0.314 N 
ATOM      8  C   UNL     1       7.612   4.127  -1.154  0.00  0.00    +0.226 C 
ATOM      9  O   UNL     1       6.412   4.197  -1.315  0.00  0.00    -0.275 OA
ATOM     10  C   UNL     1       8.291   3.679   0.121  0.00  0.00    +0.171 C 
ATOM     11  H   UNL     1       8.322   4.754  -2.977  0.00  0.00    +0.149 HD
BRANCH   5  15
ATOM     12  C   UNL     1      12.485   1.322   1.612  0.00  0.00    +0.000 A 
ATOM     13  C   UNL     1      12.249   2.516   2.267  0.00  0.00    +0.000 A 
ATOM     14  C   UNL     1      11.365   3.435   1.733  0.00  0.00    +0.004 A 
ATOM     15  C   UNL     1      10.716   3.159   0.544  0.00  0.00    -0.042 A 
ATOM     16  C   UNL     1      10.948   1.962  -0.108  0.00  0.00    +0.004 A 
ATOM     17  C   UNL     1      11.835   1.046   0.424  0.00  0.00    +0.000 A 
ENDBRANCH   5  15
ENDBRANCH   1  10
BRANCH   3  18
ATOM     18  N   UNL     1       8.259   0.205   1.578  0.00  0.00    -0.188 NA
ATOM     19  C   UNL     1       8.322  -0.353   2.753  0.00  0.00    +0.130 C 
BRANCH  19  20
ATOM     20  C   UNL     1       8.438   0.452   3.915  0.00  0.00    +0.022 C 
ATOM     21  C   UNL     1       8.503  -0.126   5.132  0.00  0.00    +0.009 C 
BRANCH  21  22
ATOM     22  C   UNL     1       8.623   0.709   6.338  0.00  0.00    -0.025 A 
ATOM     23  C   UNL     1       8.691   0.113   7.601  0.00  0.00    +0.009 A 
ATOM     24  C   UNL     1       8.803   0.902   8.726  0.00  0.00    +0.016 A 
ATOM     25  C   UNL     1       8.848   2.281   8.608  0.00  0.00    +0.018 A 
ATOM     26  C   UNL     1       8.781   2.878   7.360  0.00  0.00    +0.016 A 
ATOM     27  C   UNL     1       8.669   2.102   6.226  0.00  0.00    +0.009 A 
ATOM     28 BR   UNL     1       8.993   3.355  10.158  0.00  0.00    -0.050 Br
ENDBRANCH  21  22
ENDBRANCH  19  20
ENDBRANCH   3  18
TORSDOF 5
