REMARK  Name = ZINC55444149
REMARK  7 active torsions:
REMARK  status: ('A' for Active; 'I' for Inactive)
REMARK    1  A    between atoms: C_1  and  C_2
REMARK    2  A    between atoms: C_4  and  O_30
REMARK    3  A    between atoms: C_5  and  C_29
REMARK    4  A    between atoms: C_6  and  O_28
REMARK    5  A    between atoms: C_7  and  C_8
REMARK    6  A    between atoms: N_9  and  N_10
REMARK    7  A    between atoms: C_11  and  C_13
REMARK                            x       y       z     vdW  Elec       q    Type
REMARK                         _______ _______ _______ _____ _____    ______ ____
ROOT
ATOM      1  N   UNL     1       0.339  -2.018   3.584  0.00  0.00    -0.204 N 
ATOM      2  C   UNL     1       0.523  -2.683   4.742  0.00  0.00    +0.276 C 
ATOM      3  O   UNL     1       0.401  -2.103   5.801  0.00  0.00    -0.270 OA
ATOM      4  H   UNL     1       0.364  -2.497   2.741  0.00  0.00    +0.177 HD
ENDROOT
BRANCH   2   5
ATOM      5  C   UNL     1       0.881  -4.147   4.721  0.00  0.00    +0.297 C 
ATOM      6  C   UNL     1       2.307  -4.324   4.184  0.00  0.00    +0.283 C 
ATOM      7  O   UNL     1       2.615  -5.721   4.181  0.00  0.00    -0.484 OA
ATOM      8  C   UNL     1       2.306  -6.419   5.309  0.00  0.00    +0.163 A 
ATOM      9  C   UNL     1       2.888  -7.640   5.508  0.00  0.00    +0.058 A 
ATOM     10  C   UNL     1       2.584  -8.381   6.661  0.00  0.00    -0.014 A 
ATOM     11  C   UNL     1       3.168  -9.638   6.895  0.00  0.00    +0.008 A 
ATOM     12  C   UNL     1       2.851 -10.329   8.024  0.00  0.00    +0.001 A 
ATOM     13  C   UNL     1       1.953  -9.809   8.955  0.00  0.00    +0.001 A 
ATOM     14  C   UNL     1       1.367  -8.596   8.762  0.00  0.00    +0.008 A 
ATOM     15  C   UNL     1       1.671  -7.852   7.609  0.00  0.00    -0.014 A 
ATOM     16  C   UNL     1       1.089  -6.596   7.377  0.00  0.00    +0.058 A 
ATOM     17  C   UNL     1       1.405  -5.895   6.248  0.00  0.00    +0.164 A 
ATOM     18  O   UNL     1       0.833  -4.674   6.051  0.00  0.00    -0.472 OA
ENDBRANCH   2   5
BRANCH   1  20
ATOM     19  C   UNL     1       0.022   0.019   2.481  0.00  0.00    +0.142 C 
ATOM     20  N   UNL     1       0.110  -0.636   3.599  0.00  0.00    -0.187 NA
BRANCH  19  27
ATOM     21  C   UNL     1       1.989   0.665   0.464  0.00  0.00    +0.044 C 
ATOM     22  C   UNL     1       0.958  -0.406   0.216  0.00  0.00    -0.035 A 
ATOM     23  C   UNL     1       0.949  -1.091  -0.979  0.00  0.00    +0.050 A 
ATOM     24  C   UNL     1       0.001  -2.080  -1.212  0.00  0.00    +0.124 A 
ATOM     25  C   UNL     1      -0.945  -2.384  -0.243  0.00  0.00    +0.033 A 
ATOM     26  C   UNL     1      -0.947  -1.702   0.961  0.00  0.00    +0.132 A 
ATOM     27  C   UNL     1       0.013  -0.708   1.200  0.00  0.00    +0.039 A 
ATOM     28  C   UNL     1      -1.971  -3.457  -0.502  0.00  0.00    +0.051 C 
BRANCH  26  29
ATOM     29  O   UNL     1      -1.872  -1.998   1.910  0.00  0.00    -0.506 OA
ATOM     30  H   UNL     1      -1.629  -2.742   2.478  0.00  0.00    +0.292 HD
ENDBRANCH  26  29
BRANCH  24  31
ATOM     31  O   UNL     1      -0.002  -2.751  -2.393  0.00  0.00    -0.506 OA
ATOM     32  H   UNL     1       0.544  -3.550  -2.392  0.00  0.00    +0.292 HD
ENDBRANCH  24  31
ENDBRANCH  19  27
ENDBRANCH   1  20
TORSDOF 5
