REMARK  Name = ZINC44963507
REMARK  8 active torsions:
REMARK  status: ('A' for Active; 'I' for Inactive)
REMARK    1  A    between atoms: C_1  and  C_2
REMARK    2  A    between atoms: C_4  and  C_33
REMARK    3  A    between atoms: C_11  and  C_32
REMARK    4  A    between atoms: C_13  and  O_31
REMARK    5  A    between atoms: C_20  and  O_30
REMARK    6  A    between atoms: C_28  and  C_29
REMARK    7  A    between atoms: C_33  and  C_35
REMARK    8  A    between atoms: C_35  and  O_36
REMARK                            x       y       z     vdW  Elec       q    Type
REMARK                         _______ _______ _______ _____ _____    ______ ____
ROOT
ATOM      1  C   UNL     1      -0.048   1.230   0.805  0.00  0.00    +0.108 C 
ATOM      2  C   UNL     1      -0.162  -0.254   0.567  0.00  0.00    +0.183 C 
ATOM      3  N   UNL     1      -1.265  -0.826   0.238  0.00  0.00    -0.236 NA
ATOM      4  C   UNL     1      -1.024  -2.270   0.073  0.00  0.00    +0.167 C 
ATOM      5  C   UNL     1       0.540  -2.324   0.012  0.00  0.00    +0.210 C 
ATOM      6  O   UNL     1       0.883  -1.093   0.674  0.00  0.00    -0.474 OA
ATOM      7  C   UNL     1       0.917  -2.214  -1.485  0.00  0.00    +0.052 C 
ATOM      8  C   UNL     1      -0.399  -1.990  -2.222  0.00  0.00    +0.005 C 
ATOM      9  C   UNL     1      -1.435  -2.705  -1.335  0.00  0.00    +0.009 C 
ATOM     10  C   UNL     1      -2.813  -2.268  -1.793  0.00  0.00    +0.041 C 
ATOM     11  C   UNL     1      -2.993  -2.756  -3.240  0.00  0.00    +0.120 C 
ATOM     12  C   UNL     1      -1.900  -2.196  -4.151  0.00  0.00    +0.035 C 
ATOM     13  C   UNL     1      -0.506  -2.581  -3.614  0.00  0.00    +0.002 C 
ATOM     14  C   UNL     1       0.539  -1.960  -4.545  0.00  0.00    +0.040 C 
ATOM     15  C   UNL     1       0.526  -0.446  -4.330  0.00  0.00    +0.142 C 
ATOM     16  C   UNL     1      -0.877   0.076  -4.428  0.00  0.00    -0.028 C 
ATOM     17  C   UNL     1      -1.058   1.411  -4.561  0.00  0.00    +0.053 C 
ATOM     18  C   UNL     1      -2.481   1.846  -4.598  0.00  0.00    +0.179 C 
ATOM     19  O   UNL     1      -2.884   2.703  -5.361  0.00  0.00    -0.288 OA
ATOM     20  C   UNL     1      -3.373   1.153  -3.627  0.00  0.00    +0.047 C 
ATOM     21  C   UNL     1      -3.165  -0.177  -3.510  0.00  0.00    -0.012 C 
ATOM     22  C   UNL     1      -2.092  -0.722  -4.362  0.00  0.00    +0.015 C 
ATOM     23  C   UNL     1      -2.679  -0.610  -5.771  0.00  0.00    +0.020 C 
ATOM     24  C   UNL     1      -1.272  -4.219  -1.489  0.00  0.00    +0.014 C 
ENDROOT
BRANCH  15  25
ATOM     25  O   UNL     1       1.051  -0.147  -3.034  0.00  0.00    -0.387 OA
ATOM     26  H   UNL     1       1.073   0.797  -2.828  0.00  0.00    +0.210 HD
ENDBRANCH  15  25
BRANCH  11  27
ATOM     27  O   UNL     1      -2.934  -4.184  -3.263  0.00  0.00    -0.391 OA
ATOM     28  H   UNL     1      -3.615  -4.614  -2.727  0.00  0.00    +0.210 HD
ENDBRANCH  11  27
BRANCH   4  29
ATOM     29  C   UNL     1      -1.639  -3.110   1.164  0.00  0.00    +0.190 C 
ATOM     30  O   UNL     1      -1.897  -4.272   0.958  0.00  0.00    -0.292 OA
BRANCH  29  31
ATOM     31  C   UNL     1      -1.931  -2.500   2.510  0.00  0.00    +0.232 C 
BRANCH  31  32
ATOM     32  O   UNL     1      -2.506  -3.489   3.366  0.00  0.00    -0.387 OA
ATOM     33  H   UNL     1      -2.720  -3.166   4.252  0.00  0.00    +0.210 HD
ENDBRANCH  31  32
ENDBRANCH  29  31
ENDBRANCH   4  29
TORSDOF 5
