REMARK  Name = ZINC39911503
REMARK  12 active torsions:
REMARK  status: ('A' for Active; 'I' for Inactive)
REMARK    1  A    between atoms: C_1  and  C_2
REMARK    2  A    between atoms: C_2  and  C_3
REMARK    3  A    between atoms: C_3  and  O_4
REMARK    4  A    between atoms: O_4  and  C_5
REMARK    5  A    between atoms: C_8  and  C_11
REMARK    6  A    between atoms: C_14  and  C_25
REMARK    7  A    between atoms: N_21  and  C_22
REMARK    8  A    between atoms: C_22  and  C_23
REMARK    9  A    between atoms: C_23  and  O_24
REMARK   10  A    between atoms: C_27  and  C_33
REMARK   11  A    between atoms: C_29  and  C_32
REMARK   12  A    between atoms: C_30  and  O_31
REMARK                            x       y       z     vdW  Elec       q    Type
REMARK                         _______ _______ _______ _____ _____    ______ ____
ROOT
ATOM      1  C   UNL     1       3.155  -4.489  -5.149  0.00  0.00    +0.141 C 
ATOM      2  C   UNL     1       4.623  -4.807  -5.087  0.00  0.00    +0.035 A 
ATOM      3  C   UNL     1       5.927  -4.329  -4.914  0.00  0.00    +0.102 A 
ATOM      4  N   UNL     1       6.742  -5.362  -5.012  0.00  0.00    -0.173 NA
ATOM      5  N   UNL     1       6.082  -6.443  -5.230  0.00  0.00    -0.272 N 
ATOM      6  H   UNL     1       6.475  -7.324  -5.336  0.00  0.00    +0.189 HD
ATOM      7  C   UNL     1       4.745  -6.168  -5.289  0.00  0.00    +0.126 A 
ATOM      8  C   UNL     1       3.404  -6.733  -5.478  0.00  0.00    +0.266 C 
ATOM      9  O   UNL     1       3.168  -7.910  -5.678  0.00  0.00    -0.268 OA
ATOM     10  N   UNL     1       2.471  -5.765  -5.400  0.00  0.00    -0.283 N 
ENDROOT
BRANCH   3  11
ATOM     11  C   UNL     1       6.321  -2.920  -4.666  0.00  0.00    +0.044 A 
ATOM     12  C   UNL     1       5.364  -1.909  -4.707  0.00  0.00    +0.017 A 
ATOM     13  C   UNL     1       5.735  -0.600  -4.476  0.00  0.00    -0.049 A 
ATOM     14  C   UNL     1       7.055  -0.288  -4.203  0.00  0.00    +0.010 A 
ATOM     15  C   UNL     1       8.012  -1.283  -4.160  0.00  0.00    -0.008 A 
ATOM     16  C   UNL     1       7.652  -2.603  -4.384  0.00  0.00    +0.129 A 
ATOM     17  C   UNL     1       9.448  -0.935  -3.863  0.00  0.00    +0.047 C 
ATOM     18  C   UNL     1       4.699   0.493  -4.521  0.00  0.00    +0.044 C 
BRANCH  16  19
ATOM     19  O   UNL     1       8.591  -3.583  -4.336  0.00  0.00    -0.506 OA
ATOM     20  H   UNL     1       9.020  -3.759  -5.185  0.00  0.00    +0.292 HD
ENDBRANCH  16  19
ENDBRANCH   3  11
BRANCH   1  24
ATOM     21  C   UNL     1       1.851  -2.828  -1.434  0.00  0.00    +0.121 A 
ATOM     22  C   UNL     1       2.229  -4.160  -1.504  0.00  0.00    +0.046 A 
ATOM     23  C   UNL     1       2.650  -4.695  -2.707  0.00  0.00    +0.009 A 
ATOM     24  C   UNL     1       2.695  -3.904  -3.839  0.00  0.00    -0.022 A 
ATOM     25  C   UNL     1       2.318  -2.575  -3.772  0.00  0.00    +0.009 A 
ATOM     26  C   UNL     1       1.891  -2.037  -2.573  0.00  0.00    +0.046 A 
BRANCH  21  27
ATOM     27  O   UNL     1       1.436  -2.299  -0.253  0.00  0.00    -0.492 OA
BRANCH  27  28
ATOM     28  C   UNL     1       1.420  -3.172   0.878  0.00  0.00    +0.229 C 
BRANCH  28  30
ATOM     29  C   UNL     1       0.911  -3.340   3.319  0.00  0.00    +0.007 C 
ATOM     30  C   UNL     1       0.928  -2.405   2.107  0.00  0.00    +0.038 C 
ENDBRANCH  28  30
ENDBRANCH  27  28
ENDBRANCH  21  27
ENDBRANCH   1  24
BRANCH  10  31
ATOM     31  C   UNL     1       1.025  -5.952  -5.539  0.00  0.00    +0.137 C 
BRANCH  31  32
ATOM     32  C   UNL     1       0.630  -5.795  -7.009  0.00  0.00    +0.175 C 
BRANCH  32  33
ATOM     33  O   UNL     1       1.222  -6.846  -7.776  0.00  0.00    -0.393 OA
ATOM     34  H   UNL     1       1.013  -6.810  -8.719  0.00  0.00    +0.209 HD
ENDBRANCH  32  33
ENDBRANCH  31  32
ENDBRANCH  10  31
TORSDOF 9
