REMARK  Name = ZINC60636408
REMARK  7 active torsions:
REMARK  status: ('A' for Active; 'I' for Inactive)
REMARK    1  A    between atoms: C_1  and  C_2
REMARK    2  A    between atoms: C_2  and  C_3
REMARK    3  A    between atoms: C_2  and  N_18
REMARK    4  A    between atoms: C_8  and  N_11
REMARK    5  A    between atoms: N_11  and  C_12
REMARK    6  A    between atoms: C_19  and  C_21
REMARK    7  A    between atoms: C_22  and  C_23
REMARK                            x       y       z     vdW  Elec       q    Type
REMARK                         _______ _______ _______ _____ _____    ______ ____
ROOT
ATOM      1  C   UNL     1      -1.391  -0.566   0.128  0.00  0.00    +0.236 C 
ATOM      2  O   UNL     1      -1.699  -1.209   1.109  0.00  0.00    -0.274 OA
ATOM      3  N   UNL     1      -2.294  -0.354  -0.850  0.00  0.00    -0.300 N 
ATOM      4  C   UNL     1      -1.904   0.322  -2.095  0.00  0.00    +0.109 C 
ATOM      5  C   UNL     1      -2.306  -0.560  -3.281  0.00  0.00    +0.041 C 
ATOM      6  C   UNL     1      -3.798  -0.890  -3.185  0.00  0.00    +0.073 C 
ATOM      7  C   UNL     1      -4.068  -1.665  -1.893  0.00  0.00    +0.041 C 
ATOM      8  C   UNL     1      -3.685  -0.801  -0.694  0.00  0.00    +0.109 C 
ENDROOT
BRANCH   1  10
ATOM      9  C   UNL     1      -0.019   1.489   0.339  0.00  0.00    +0.038 C 
ATOM     10  C   UNL     1       0.002  -0.003   0.003  0.00  0.00    +0.156 C 
BRANCH  10  11
ATOM     11  N   UNL     1       0.896  -0.700   0.930  0.00  0.00    -0.301 N 
ATOM     12  C   UNL     1       2.218  -0.757   0.678  0.00  0.00    +0.237 C 
ATOM     13  O   UNL     1       2.670  -0.229  -0.321  0.00  0.00    -0.271 OA
ATOM     14  H   UNL     1       0.536  -1.121   1.727  0.00  0.00    +0.150 HD
BRANCH  12  15
ATOM     15  C   UNL     1       3.112  -1.454   1.605  0.00  0.00    +0.068 C 
ATOM     16  C   UNL     1       4.435  -1.510   1.352  0.00  0.00    +0.013 C 
BRANCH  16  17
ATOM     17  C   UNL     1       5.333  -2.211   2.285  0.00  0.00    -0.025 A 
ATOM     18  C   UNL     1       4.817  -2.824   3.431  0.00  0.00    +0.008 A 
ATOM     19  C   UNL     1       5.665  -3.478   4.299  0.00  0.00    +0.001 A 
ATOM     20  C   UNL     1       7.023  -3.529   4.039  0.00  0.00    +0.000 A 
ATOM     21  C   UNL     1       7.542  -2.925   2.907  0.00  0.00    +0.001 A 
ATOM     22  C   UNL     1       6.706  -2.272   2.026  0.00  0.00    +0.008 A 
ENDBRANCH  16  17
ENDBRANCH  12  15
ENDBRANCH  10  11
ENDBRANCH   1  10
BRANCH   6  23
ATOM     23  N   UNL     1      -4.193  -1.706  -4.335  0.00  0.00    -0.341 N 
ATOM     24  H   UNL     1      -3.533  -2.247  -4.796  0.00  0.00    +0.146 HD
BRANCH  23  25
ATOM     25  C   UNL     1      -5.521  -1.705  -4.769  0.00  0.00    +0.027 A 
ATOM     26  C   UNL     1      -6.466  -0.926  -4.114  0.00  0.00    +0.023 A 
ATOM     27  C   UNL     1      -7.778  -0.927  -4.546  0.00  0.00    +0.002 A 
ATOM     28  C   UNL     1      -8.151  -1.703  -5.629  0.00  0.00    +0.000 A 
ATOM     29  C   UNL     1      -7.212  -2.479  -6.283  0.00  0.00    +0.002 A 
ATOM     30  C   UNL     1      -5.897  -2.478  -5.860  0.00  0.00    +0.023 A 
ENDBRANCH  23  25
ENDBRANCH   6  23
TORSDOF 6
