REMARK  Name = ZINC39659832
REMARK  4 active torsions:
REMARK  status: ('A' for Active; 'I' for Inactive)
REMARK    1  A    between atoms: C_1  and  C_2
REMARK    2  A    between atoms: C_6  and  C_9
REMARK    3  A    between atoms: C_13  and  C_22
REMARK    4  A    between atoms: N_24  and  C_25
REMARK                            x       y       z     vdW  Elec       q    Type
REMARK                         _______ _______ _______ _____ _____    ______ ____
ROOT
ATOM      1  C   UNL     1       0.041  -2.830   2.440  0.00  0.00    +0.251 C 
ATOM      2  O   UNL     1       1.105  -3.119   2.954  0.00  0.00    -0.270 OA
ATOM      3  N   UNL     1      -1.114  -3.195   3.031  0.00  0.00    -0.296 N 
ATOM      4  C   UNL     1      -2.495  -2.942   2.559  0.00  0.00    +0.121 C 
ATOM      5  C   UNL     1      -3.264  -4.243   2.883  0.00  0.00    +0.100 C 
ATOM      6  C   UNL     1      -2.468  -4.894   4.028  0.00  0.00    -0.004 C 
ATOM      7  C   UNL     1      -1.289  -3.947   4.297  0.00  0.00    +0.115 C 
ATOM      8  C   UNL     1      -3.341  -5.020   5.273  0.00  0.00    -0.010 C 
ATOM      9  C   UNL     1      -2.546  -5.722   6.378  0.00  0.00    -0.082 C 
ATOM     10  N   UNL     1      -2.127  -7.049   5.914  0.00  0.00    +0.379 N 
ATOM     11  C   UNL     1      -1.213  -6.915   4.772  0.00  0.00    -0.082 C 
ATOM     12  C   UNL     1      -1.951  -6.264   3.599  0.00  0.00    -0.010 C 
ATOM     13  H   UNL     1      -1.656  -7.533   6.664  0.00  0.00    -0.086 HD
ATOM     14  H   UNL     1      -2.938  -7.578   5.632  0.00  0.00    -0.086 HD
ENDROOT
BRANCH   1  20
ATOM     15  C   UNL     1      -0.068   1.523  -0.004  0.00  0.00    +0.047 C 
ATOM     16  C   UNL     1      -0.038   0.017  -0.013  0.00  0.00    -0.014 A 
ATOM     17  C   UNL     1      -0.036  -0.666  -1.215  0.00  0.00    +0.007 A 
ATOM     18  C   UNL     1      -0.009  -2.050  -1.234  0.00  0.00    +0.021 A 
ATOM     19  C   UNL     1       0.016  -2.760  -0.050  0.00  0.00    +0.056 A 
ATOM     20  C   UNL     1       0.015  -2.078   1.170  0.00  0.00    +0.091 A 
ATOM     21  C   UNL     1      -0.007  -0.679   1.181  0.00  0.00    +0.140 A 
ATOM     22  F   UNL     1      -0.004  -0.011   2.355  0.00  0.00    -0.204 F 
ATOM     23 CL   UNL     1       0.049  -4.495  -0.077  0.00  0.00    -0.083 Cl
ENDBRANCH   1  20
BRANCH   5  24
ATOM     24  C   UNL     1      -3.292  -5.149   1.680  0.00  0.00    +0.218 C 
ATOM     25  O   UNL     1      -2.423  -5.067   0.838  0.00  0.00    -0.275 OA
ATOM     26  N   UNL     1      -4.283  -6.051   1.538  0.00  0.00    -0.312 N 
ATOM     27  H   UNL     1      -4.979  -6.117   2.212  0.00  0.00    +0.149 HD
BRANCH  26  28
ATOM     28  C   UNL     1      -4.311  -6.933   0.368  0.00  0.00    +0.073 C 
ATOM     29  C   UNL     1      -4.998  -6.214  -0.795  0.00  0.00    +0.022 C 
ATOM     30  C   UNL     1      -4.685  -6.945  -2.102  0.00  0.00    +0.002 C 
ATOM     31  C   UNL     1      -3.199  -7.308  -2.141  0.00  0.00    +0.000 C 
ATOM     32  C   UNL     1      -3.043  -8.828  -2.072  0.00  0.00    +0.000 C 
ATOM     33  C   UNL     1      -3.286  -9.301  -0.637  0.00  0.00    +0.000 C 
ATOM     34  C   UNL     1      -4.787  -9.280  -0.341  0.00  0.00    +0.002 C 
ATOM     35  C   UNL     1      -5.085  -8.208   0.708  0.00  0.00    +0.022 C 
ENDBRANCH  26  28
ENDBRANCH   5  24
TORSDOF 3
