REMARK  Name = ZINC08968696
REMARK  8 active torsions:
REMARK  status: ('A' for Active; 'I' for Inactive)
REMARK    1  A    between atoms: C_1  and  C_2
REMARK    2  A    between atoms: C_2  and  O_4
REMARK    3  A    between atoms: O_4  and  C_5
REMARK    4  A    between atoms: C_8  and  N_11
REMARK    5  A    between atoms: N_20  and  C_31
REMARK    6  A    between atoms: C_22  and  C_23
REMARK    7  A    between atoms: C_26  and  O_29
REMARK    8  A    between atoms: O_29  and  C_30
REMARK                            x       y       z     vdW  Elec       q    Type
REMARK                         _______ _______ _______ _____ _____    ______ ____
ROOT
ATOM      1  N   UNL     1       0.060  -6.318   1.169  0.00  0.00    -0.205 N 
ATOM      2  C   UNL     1       1.131  -7.121   1.045  0.00  0.00    +0.257 C 
ATOM      3  O   UNL     1       2.289  -6.759   1.161  0.00  0.00    -0.269 OA
ATOM      4  C   UNL     1       0.729  -8.426   0.763  0.00  0.00    +0.069 C 
ATOM      5  H   UNL     1      -0.452 -11.320   0.278  0.00  0.00    +0.170 HD
ATOM      6  C   UNL     1      -0.695  -8.244   0.217  0.00  0.00    +0.217 C 
ATOM      7  C   UNL     1      -1.095  -6.931   0.822  0.00  0.00    +0.253 C 
ATOM      8  O   UNL     1      -2.221  -6.505   0.969  0.00  0.00    -0.272 OA
ATOM      9  N   UNL     1      -1.339  -9.432   0.802  0.00  0.00    -0.237 N 
ATOM     10  N   UNL     1      -0.319 -10.400   0.554  0.00  0.00    -0.262 N 
ATOM     11  C   UNL     1       0.898  -9.775   0.781  0.00  0.00    +0.062 C 
ENDROOT
BRANCH   1  15
ATOM     12  C   UNL     1       0.272  -2.370   2.498  0.00  0.00    +0.132 A 
ATOM     13  C   UNL     1      -0.963  -2.960   2.271  0.00  0.00    +0.048 A 
ATOM     14  C   UNL     1      -1.034  -4.266   1.831  0.00  0.00    +0.027 A 
ATOM     15  C   UNL     1       0.131  -4.990   1.615  0.00  0.00    +0.044 A 
ATOM     16  C   UNL     1       1.367  -4.399   1.843  0.00  0.00    +0.027 A 
ATOM     17  C   UNL     1       1.437  -3.091   2.277  0.00  0.00    +0.048 A 
BRANCH  12  18
ATOM     18  O   UNL     1       0.341  -1.083   2.931  0.00  0.00    -0.426 OA
BRANCH  18  20
ATOM     19  C   UNL     1       0.258   0.552   4.779  0.00  0.00    +0.136 C 
ATOM     20  C   UNL     1       0.086  -0.839   4.226  0.00  0.00    +0.309 C 
ATOM     21  O   UNL     1      -0.282  -1.735   4.948  0.00  0.00    -0.251 OA
ENDBRANCH  18  20
ENDBRANCH  12  18
ENDBRANCH   1  15
BRANCH  11  22
ATOM     22  C   UNL     1       2.180 -10.469   1.008  0.00  0.00    -0.002 A 
ATOM     23  C   UNL     1       3.346  -9.731   1.232  0.00  0.00    +0.013 A 
ATOM     24  C   UNL     1       4.541 -10.382   1.444  0.00  0.00    +0.046 A 
ATOM     25  C   UNL     1       4.589 -11.771   1.434  0.00  0.00    +0.120 A 
ATOM     26  C   UNL     1       3.432 -12.508   1.211  0.00  0.00    +0.046 A 
ATOM     27  C   UNL     1       2.232 -11.865   1.004  0.00  0.00    +0.013 A 
BRANCH  25  28
ATOM     28  O   UNL     1       5.769 -12.409   1.643  0.00  0.00    -0.495 OA
ATOM     29  C   UNL     1       5.747 -13.837   1.620  0.00  0.00    +0.277 C 
ENDBRANCH  25  28
ENDBRANCH  11  22
BRANCH   9  30
ATOM     30  C   UNL     1      -2.583  -9.571   1.419  0.00  0.00    +0.049 A 
ATOM     31  C   UNL     1      -3.719  -9.033   0.827  0.00  0.00    +0.025 A 
ATOM     32  C   UNL     1      -4.948  -9.173   1.440  0.00  0.00    +0.002 A 
ATOM     33  C   UNL     1      -5.050  -9.848   2.643  0.00  0.00    +0.000 A 
ATOM     34  C   UNL     1      -3.922 -10.385   3.235  0.00  0.00    +0.002 A 
ATOM     35  C   UNL     1      -2.690 -10.253   2.624  0.00  0.00    +0.025 A 
ENDBRANCH   9  30
TORSDOF 6
