REMARK  Name = ZINC08968696
REMARK  8 active torsions:
REMARK  status: ('A' for Active; 'I' for Inactive)
REMARK    1  A    between atoms: C_1  and  C_2
REMARK    2  A    between atoms: C_2  and  O_4
REMARK    3  A    between atoms: O_4  and  C_5
REMARK    4  A    between atoms: C_8  and  N_11
REMARK    5  A    between atoms: N_20  and  C_31
REMARK    6  A    between atoms: C_22  and  C_23
REMARK    7  A    between atoms: C_26  and  O_29
REMARK    8  A    between atoms: O_29  and  C_30
REMARK                            x       y       z     vdW  Elec       q    Type
REMARK                         _______ _______ _______ _____ _____    ______ ____
ROOT
ATOM      1  N   UNL     1      -0.446  -6.176   0.073  0.00  0.00    -0.205 N 
ATOM      2  C   UNL     1       0.739  -6.790   0.245  0.00  0.00    +0.257 C 
ATOM      3  O   UNL     1       1.781  -6.224   0.525  0.00  0.00    -0.269 OA
ATOM      4  C   UNL     1       0.604  -8.165   0.057  0.00  0.00    +0.069 C 
ATOM      5  H   UNL     1       0.058 -11.219  -0.562  0.00  0.00    +0.170 HD
ATOM      6  C   UNL     1      -0.901  -8.400   0.254  0.00  0.00    +0.217 C 
ATOM      7  C   UNL     1      -1.472  -7.049  -0.048  0.00  0.00    +0.253 C 
ATOM      8  O   UNL     1      -2.620  -6.790  -0.343  0.00  0.00    -0.272 OA
ATOM      9  N   UNL     1      -1.126  -9.435  -0.769  0.00  0.00    -0.237 N 
ATOM     10  N   UNL     1       0.024 -10.250  -0.539  0.00  0.00    -0.262 N 
ATOM     11  C   UNL     1       1.083  -9.393  -0.277  0.00  0.00    +0.062 C 
ENDROOT
BRANCH   1  15
ATOM     12  C   UNL     1      -0.906  -2.033  -0.054  0.00  0.00    +0.132 A 
ATOM     13  C   UNL     1      -2.024  -2.855  -0.051  0.00  0.00    +0.048 A 
ATOM     14  C   UNL     1      -1.872  -4.227  -0.009  0.00  0.00    +0.027 A 
ATOM     15  C   UNL     1      -0.601  -4.783   0.030  0.00  0.00    +0.044 A 
ATOM     16  C   UNL     1       0.517  -3.960   0.026  0.00  0.00    +0.027 A 
ATOM     17  C   UNL     1       0.364  -2.589  -0.022  0.00  0.00    +0.048 A 
BRANCH  12  18
ATOM     18  O   UNL     1      -1.056  -0.682  -0.096  0.00  0.00    -0.426 OA
BRANCH  18  20
ATOM     19  C   UNL     1      -1.514   1.449   1.063  0.00  0.00    +0.136 C 
ATOM     20  C   UNL     1      -1.442  -0.056   1.027  0.00  0.00    +0.309 C 
ATOM     21  O   UNL     1      -1.732  -0.699   2.008  0.00  0.00    -0.251 OA
ENDBRANCH  18  20
ENDBRANCH  12  18
ENDBRANCH   1  15
BRANCH  11  22
ATOM     22  C   UNL     1       2.510  -9.759  -0.349  0.00  0.00    -0.002 A 
ATOM     23  C   UNL     1       3.493  -8.809  -0.056  0.00  0.00    +0.013 A 
ATOM     24  C   UNL     1       4.824  -9.155  -0.124  0.00  0.00    +0.046 A 
ATOM     25  C   UNL     1       5.191 -10.447  -0.484  0.00  0.00    +0.120 A 
ATOM     26  C   UNL     1       4.217 -11.394  -0.776  0.00  0.00    +0.046 A 
ATOM     27  C   UNL     1       2.883 -11.058  -0.705  0.00  0.00    +0.013 A 
BRANCH  25  28
ATOM     28  O   UNL     1       6.504 -10.784  -0.549  0.00  0.00    -0.495 OA
ATOM     29  C   UNL     1       6.811 -12.128  -0.925  0.00  0.00    +0.277 C 
ENDBRANCH  25  28
ENDBRANCH  11  22
BRANCH   9  30
ATOM     30  C   UNL     1      -2.162  -9.577  -1.695  0.00  0.00    +0.049 A 
ATOM     31  C   UNL     1      -1.899 -10.082  -2.962  0.00  0.00    +0.025 A 
ATOM     32  C   UNL     1      -2.926 -10.223  -3.875  0.00  0.00    +0.002 A 
ATOM     33  C   UNL     1      -4.215  -9.861  -3.528  0.00  0.00    +0.000 A 
ATOM     34  C   UNL     1      -4.480  -9.358  -2.268  0.00  0.00    +0.002 A 
ATOM     35  C   UNL     1      -3.459  -9.220  -1.348  0.00  0.00    +0.025 A 
ENDBRANCH   9  30
TORSDOF 6
