REMARK  Name = ZINC23616771
REMARK  11 active torsions:
REMARK  status: ('A' for Active; 'I' for Inactive)
REMARK    1  A    between atoms: C_1  and  C_2
REMARK    2  A    between atoms: C_3  and  C_7
REMARK    3  A    between atoms: C_10  and  S_13
REMARK    4  A    between atoms: N_11  and  N_12
REMARK    5  A    between atoms: S_13  and  C_14
REMARK    6  A    between atoms: C_14  and  C_16
REMARK    7  A    between atoms: C_14  and  C_17
REMARK    8  A    between atoms: N_19  and  C_20
REMARK    9  A    between atoms: C_20  and  C_21
REMARK   10  A    between atoms: C_25  and  O_27
REMARK   11  A    between atoms: O_27  and  C_28
REMARK                            x       y       z     vdW  Elec       q    Type
REMARK                         _______ _______ _______ _____ _____    ______ ____
ROOT
ATOM      1  S   UNL     1      -0.022   1.806   0.012  0.00  0.00    -0.072 S 
ENDROOT
BRANCH   1   5
ATOM      2  C   UNL     1       3.654   3.130  -0.016  0.00  0.00    +0.185 A 
ATOM      3  N   UNL     1       3.816   1.827  -0.025  0.00  0.00    -0.127 NA
ATOM      4  N   UNL     1       2.671   1.243  -0.017  0.00  0.00    -0.121 NA
ATOM      5  C   UNL     1       1.708   2.135  -0.003  0.00  0.00    +0.209 A 
ATOM      6  N   UNL     1       2.299   3.368  -0.007  0.00  0.00    -0.224 N 
BRANCH   2   9
ATOM      7  C   UNL     1       6.740   2.580  -0.035  0.00  0.00    +0.087 C 
ATOM      8  C   UNL     1       6.068   3.929  -0.028  0.00  0.00    +0.112 A 
ATOM      9  C   UNL     1       4.726   4.149  -0.020  0.00  0.00    +0.061 A 
ATOM     10  C   UNL     1       4.562   5.608  -0.010  0.00  0.00    +0.053 A 
ATOM     11  C   UNL     1       5.803   6.121  -0.018  0.00  0.00    +0.196 A 
ATOM     12  O   UNL     1       6.692   5.116  -0.032  0.00  0.00    -0.467 OA
ENDBRANCH   2   9
BRANCH   6  13
ATOM     13  N   UNL     1       1.675   4.583  -0.001  0.00  0.00    -0.295 N 
ATOM     14  H   UNL     1       0.576   4.637   0.005  0.00  0.00    +0.163 HD
ATOM     15  H   UNL     1       2.271   5.508  -0.003  0.00  0.00    +0.163 HD
ENDBRANCH   6  13
ENDBRANCH   1   5
BRANCH   1  16
ATOM     16  C   UNL     1       0.002  -0.004   0.002  0.00  0.00    +0.137 C 
ATOM     17  C   UNL     1       0.631  -0.513   1.301  0.00  0.00    +0.029 C 
BRANCH  16  18
ATOM     18  C   UNL     1      -1.407  -0.525  -0.111  0.00  0.00    +0.226 C 
ATOM     19  O   UNL     1      -2.343   0.189   0.181  0.00  0.00    -0.275 OA
ATOM     20  N   UNL     1      -1.628  -1.784  -0.537  0.00  0.00    -0.310 N 
ATOM     21  H   UNL     1      -0.780  -2.432  -0.802  0.00  0.00    +0.149 HD
BRANCH  20  22
ATOM     22  C   UNL     1      -2.999  -2.291  -0.647  0.00  0.00    +0.139 C 
BRANCH  22  23
ATOM     23  C   UNL     1      -2.970  -3.714  -1.142  0.00  0.00    -0.027 A 
ATOM     24  C   UNL     1      -3.017  -3.975  -2.499  0.00  0.00    +0.005 A 
ATOM     25  C   UNL     1      -2.985  -5.279  -2.956  0.00  0.00    +0.004 A 
ATOM     26  C   UNL     1      -2.918  -6.326  -2.057  0.00  0.00    +0.045 A 
ATOM     27  C   UNL     1      -2.877  -6.067  -0.695  0.00  0.00    +0.120 A 
ATOM     28  C   UNL     1      -2.903  -4.757  -0.239  0.00  0.00    +0.050 A 
BRANCH  27  29
ATOM     29  O   UNL     1      -2.811  -7.095   0.192  0.00  0.00    -0.495 OA
ATOM     30  C   UNL     1      -2.788  -8.418  -0.349  0.00  0.00    +0.277 C 
ENDBRANCH  27  29
ENDBRANCH  22  23
ENDBRANCH  20  22
ENDBRANCH  16  18
ENDBRANCH   1  16
TORSDOF 8
