REMARK  Name = ZINC43128936
REMARK  10 active torsions:
REMARK  status: ('A' for Active; 'I' for Inactive)
REMARK    1  A    between atoms: C_1  and  C_2
REMARK    2  A    between atoms: C_2  and  C_4
REMARK    3  A    between atoms: C_2  and  N_22
REMARK    4  A    between atoms: C_4  and  C_6
REMARK    5  A    between atoms: C_4  and  N_12
REMARK    6  A    between atoms: N_9  and  C_11
REMARK    7  A    between atoms: N_15  and  C_18
REMARK    8  A    between atoms: C_18  and  C_19
REMARK    9  A    between atoms: C_18  and  C_20
REMARK   10  A    between atoms: C_18  and  C_21
REMARK                            x       y       z     vdW  Elec       q    Type
REMARK                         _______ _______ _______ _____ _____    ______ ____
ROOT
ATOM      1  C   UNL     1       0.748  -0.497   1.298  0.00  0.00    +0.075 C 
ENDROOT
BRANCH   1   2
ATOM      2  N   UNL     1       0.674  -1.963   1.361  0.00  0.00    -0.300 NA
ATOM      3  C   UNL     1      -0.712  -2.428   1.202  0.00  0.00    +0.066 C 
ATOM      4  C   UNL     1      -0.738  -3.958   1.213  0.00  0.00    -0.062 C 
ATOM      5  N   UNL     1      -0.182  -4.448   2.481  0.00  0.00    +0.385 N 
ATOM      6  C   UNL     1       1.209  -3.996   2.615  0.00  0.00    -0.062 C 
ATOM      7  C   UNL     1       1.252  -2.466   2.615  0.00  0.00    +0.066 C 
ATOM      8  H   UNL     1      -0.728  -4.086   3.249  0.00  0.00    -0.081 HD
BRANCH   5   9
ATOM      9  C   UNL     1      -0.224  -5.916   2.500  0.00  0.00    -0.074 C 
ATOM     10  C   UNL     1       0.603  -6.464   1.335  0.00  0.00    -0.010 C 
ATOM     11  C   UNL     1       0.355  -6.426   3.821  0.00  0.00    -0.010 C 
ATOM     12  C   UNL     1      -1.673  -6.386   2.362  0.00  0.00    -0.010 C 
ENDBRANCH   5   9
ENDBRANCH   1   2
BRANCH   1  13
ATOM     13  C   UNL     1       2.186  -0.062   1.417  0.00  0.00    +0.006 A 
ATOM     14  C   UNL     1       3.286  -0.683   0.817  0.00  0.00    +0.139 A 
ATOM     15  N   UNL     1       4.362  -0.018   1.150  0.00  0.00    -0.180 NA
ATOM     16  N   UNL     1       3.981   1.049   1.973  0.00  0.00    -0.274 N 
ATOM     17  C   UNL     1       2.640   1.003   2.117  0.00  0.00    +0.113 A 
ATOM     18  C   UNL     1       4.878   2.042   2.568  0.00  0.00    +0.172 C 
ENDBRANCH   1  13
BRANCH   1  20
ATOM     19  C   UNL     1       0.904  -0.716  -1.186  0.00  0.00    -0.012 C 
ATOM     20  C   UNL     1       0.177  -0.015  -0.036  0.00  0.00    -0.056 C 
BRANCH  20  21
ATOM     21  N   UNL     1       0.364   1.438  -0.153  0.00  0.00    +0.381 N 
ATOM     22  H   UNL     1      -0.099   1.771  -0.985  0.00  0.00    -0.090 HD
ATOM     23  H   UNL     1      -0.029   1.893   0.657  0.00  0.00    -0.090 HD
ATOM     24  H   UNL     1       1.350   1.646  -0.210  0.00  0.00    -0.090 HD
ENDBRANCH  20  21
ENDBRANCH   1  20
TORSDOF 5
