REMARK  Name = ZINC19804783
REMARK  5 active torsions:
REMARK  status: ('A' for Active; 'I' for Inactive)
REMARK    1  A    between atoms: C_6  and  C_11
REMARK    2  A    between atoms: C_12  and  C_21
REMARK    3  A    between atoms: C_13  and  N_20
REMARK    4  A    between atoms: C_15  and  N_19
REMARK    5  A    between atoms: C_16  and  C_17
REMARK                            x       y       z     vdW  Elec       q    Type
REMARK                         _______ _______ _______ _____ _____    ______ ____
ROOT
ATOM      1  C   UNL     1      -3.727   5.964   0.067  0.00  0.00    +0.104 C 
ATOM      2  C   UNL     1      -3.816   6.784  -1.174  0.00  0.00    +0.069 C 
ATOM      3  C   UNL     1      -3.494   8.083  -1.279  0.00  0.00    +0.079 C 
ATOM      4  S   UNL     1      -2.915   9.039   0.073  0.00  0.00    -0.058 S 
ATOM      5  C   UNL     1      -3.469   8.070   1.427  0.00  0.00    +0.079 C 
ATOM      6  C   UNL     1      -3.794   6.771   1.318  0.00  0.00    +0.069 C 
ENDROOT
BRANCH   1  12
ATOM      7  C   UNL     1       1.191   1.779   0.000  0.00  0.00    +0.001 A 
ATOM      8  C   UNL     1      -0.013   1.076   0.008  0.00  0.00    +0.001 A 
ATOM      9  C   UNL     1      -1.206   1.730   0.017  0.00  0.00    +0.008 A 
ATOM     10  C   UNL     1      -1.229   3.135   0.030  0.00  0.00    -0.018 A 
ATOM     11  C   UNL     1      -2.441   3.845   0.044  0.00  0.00    +0.013 A 
ATOM     12  C   UNL     1      -2.424   5.206   0.052  0.00  0.00    -0.034 A 
ATOM     13  C   UNL     1      -1.221   5.909   0.044  0.00  0.00    +0.005 A 
ATOM     14  C   UNL     1      -0.028   5.255   0.029  0.00  0.00    +0.009 A 
ATOM     15  C   UNL     1      -0.005   3.850   0.022  0.00  0.00    -0.018 A 
ATOM     16  C   UNL     1       1.208   3.139   0.007  0.00  0.00    +0.008 A 
ENDBRANCH   1  12
BRANCH   5  17
ATOM     17  N   UNL     1      -3.575   8.670   2.660  0.00  0.00    -0.352 N 
ATOM     18  H   UNL     1      -3.920   8.087   3.527  0.00  0.00    +0.143 HD
ATOM     19  H   UNL     1      -3.316   9.732   2.780  0.00  0.00    +0.143 HD
ENDBRANCH   5  17
BRANCH   3  20
ATOM     20  N   UNL     1      -3.624   8.693  -2.504  0.00  0.00    -0.352 N 
ATOM     21  H   UNL     1      -3.368   9.756  -2.619  0.00  0.00    +0.143 HD
ATOM     22  H   UNL     1      -3.984   8.117  -3.370  0.00  0.00    +0.143 HD
ENDBRANCH   3  20
BRANCH   6  23
ATOM     23  C   UNL     1      -4.242   6.105   2.504  0.00  0.00    +0.098 C 
ATOM     24  N   UNL     1      -4.598   5.577   3.445  0.00  0.00    -0.191 NA
ENDBRANCH   6  23
BRANCH   2  25
ATOM     25  C   UNL     1      -4.285   6.131  -2.359  0.00  0.00    +0.098 C 
ATOM     26  N   UNL     1      -4.657   5.613  -3.299  0.00  0.00    -0.191 NA
ENDBRANCH   2  25
TORSDOF 5
