REMARK  Name = ZINC08923448
REMARK  8 active torsions:
REMARK  status: ('A' for Active; 'I' for Inactive)
REMARK    1  A    between atoms: C_1  and  C_2
REMARK    2  A    between atoms: C_2  and  C_3
REMARK    3  A    between atoms: C_2  and  N_58
REMARK    4  A    between atoms: C_11  and  O_30
REMARK    5  A    between atoms: C_13  and  C_16
REMARK    6  A    between atoms: C_20  and  O_22
REMARK    7  A    between atoms: O_22  and  C_23
REMARK    8  A    between atoms: C_23  and  C_24
REMARK                            x       y       z     vdW  Elec       q    Type
REMARK                         _______ _______ _______ _____ _____    ______ ____
ROOT
ATOM      1  C   UNL     1      -1.356  -0.550   0.132  0.00  0.00    -0.073 C 
ATOM      2  C   UNL     1      -1.366  -2.032  -0.252  0.00  0.00    +0.018 C 
ATOM      3  C   UNL     1      -0.272  -2.737   0.543  0.00  0.00    -0.027 A 
ATOM      4  C   UNL     1       0.716  -2.013   1.120  0.00  0.00    -0.021 A 
ATOM      5  S   UNL     1       1.744  -3.210   1.928  0.00  0.00    -0.080 S 
ATOM      6  C   UNL     1       0.882  -4.627   1.508  0.00  0.00    +0.080 A 
ATOM      7  C   UNL     1      -0.198  -4.172   0.739  0.00  0.00    +0.067 A 
ATOM      8  C   UNL     1      -1.146  -5.196   0.230  0.00  0.00    +0.220 C 
ATOM      9  N   UNL     1      -0.806  -6.450   0.341  0.00  0.00    -0.223 NA
ATOM     10  C   UNL     1       0.480  -6.920   0.843  0.00  0.00    +0.224 C 
ATOM     11  N   UNL     1       1.078  -5.958   1.788  0.00  0.00    -0.313 N 
ATOM     12  C   UNL     1       0.878  -0.527   1.068  0.00  0.00    -0.035 C 
ATOM     13  H   UNL     1       1.583  -6.249   2.563  0.00  0.00    +0.149 HD
ATOM     14  N   UNL     1       0.012  -0.013  -0.021  0.00  0.00    +0.384 N 
ATOM     15  H   UNL     1       0.392  -0.321  -0.924  0.00  0.00    -0.081 HD
ENDROOT
BRANCH  10  16
ATOM     16  C   UNL     1       1.420  -7.116  -0.318  0.00  0.00    -0.002 A 
ATOM     17  C   UNL     1       2.780  -6.941  -0.143  0.00  0.00    +0.007 A 
ATOM     18  C   UNL     1       3.646  -7.127  -1.205  0.00  0.00    +0.004 A 
ATOM     19  C   UNL     1       3.152  -7.476  -2.447  0.00  0.00    +0.045 A 
ATOM     20  C   UNL     1       1.787  -7.647  -2.627  0.00  0.00    +0.121 A 
ATOM     21  C   UNL     1       0.921  -7.466  -1.558  0.00  0.00    +0.053 A 
BRANCH  20  22
ATOM     22  O   UNL     1       1.299  -7.991  -3.848  0.00  0.00    -0.487 OA
BRANCH  22  23
ATOM     23  C   UNL     1       2.248  -8.161  -4.902  0.00  0.00    +0.264 C 
BRANCH  23  24
ATOM     24  C   UNL     1       1.528  -8.537  -6.171  0.00  0.00    -0.010 A 
ATOM     25  C   UNL     1       1.310  -9.869  -6.473  0.00  0.00    +0.007 A 
ATOM     26  C   UNL     1       0.645 -10.214  -7.634  0.00  0.00    +0.000 A 
ATOM     27  C   UNL     1       0.208  -9.229  -8.499  0.00  0.00    +0.000 A 
ATOM     28  C   UNL     1       0.430  -7.898  -8.200  0.00  0.00    +0.000 A 
ATOM     29  C   UNL     1       1.091  -7.552  -7.036  0.00  0.00    +0.007 A 
ENDBRANCH  23  24
ENDBRANCH  22  23
ENDBRANCH  20  22
ENDBRANCH  10  16
BRANCH  14  31
ATOM     30  C   UNL     1       1.417   1.994  -0.001  0.00  0.00    -0.014 C 
ATOM     31  C   UNL     1      -0.018   1.465   0.010  0.00  0.00    -0.074 C 
ATOM     32  C   UNL     1      -0.758   1.972  -1.229  0.00  0.00    -0.014 C 
ENDBRANCH  14  31
BRANCH   8  33
ATOM     33  O   UNL     1      -2.325  -4.839  -0.331  0.00  0.00    -0.492 OA
ATOM     34  H   UNL     1      -2.862  -5.587  -0.627  0.00  0.00    +0.294 HD
ENDBRANCH   8  33
TORSDOF 6
