REMARK  Name = ZINC40744521
REMARK  9 active torsions:
REMARK  status: ('A' for Active; 'I' for Inactive)
REMARK    1  A    between atoms: C_6  and  C_7
REMARK    2  A    between atoms: C_7  and  O_8
REMARK    3  A    between atoms: O_8  and  C_9
REMARK    4  A    between atoms: C_14  and  C_15
REMARK    5  A    between atoms: C_15  and  N_16
REMARK    6  A    between atoms: N_16  and  C_17
REMARK    7  A    between atoms: C_17  and  C_18
REMARK    8  A    between atoms: C_18  and  N_19
REMARK    9  A    between atoms: C_20  and  C_22
REMARK                            x       y       z     vdW  Elec       q    Type
REMARK                         _______ _______ _______ _____ _____    ______ ____
ROOT
ATOM      1  C   UNL     1      -2.569  -1.488  -3.984  0.00  0.00    -0.043 C 
ENDROOT
BRANCH   1   7
ATOM      2  C   UNL     1      -2.875  -1.699  -1.504  0.00  0.00    +0.122 A 
ATOM      3  C   UNL     1      -3.594  -2.133  -0.400  0.00  0.00    +0.047 A 
ATOM      4  C   UNL     1      -4.772  -2.832  -0.575  0.00  0.00    +0.019 A 
ATOM      5  C   UNL     1      -5.236  -3.100  -1.851  0.00  0.00    +0.018 A 
ATOM      6  C   UNL     1      -4.520  -2.669  -2.953  0.00  0.00    +0.020 A 
ATOM      7  C   UNL     1      -3.344  -1.964  -2.782  0.00  0.00    -0.022 A 
ATOM      8 BR   UNL     1      -6.849  -4.058  -2.088  0.00  0.00    -0.050 Br
BRANCH   2   9
ATOM      9  O   UNL     1      -1.716  -1.011  -1.334  0.00  0.00    -0.487 OA
BRANCH   9  10
ATOM     10  C   UNL     1      -1.293  -0.775   0.011  0.00  0.00    +0.264 C 
BRANCH  10  16
ATOM     11  C   UNL     1      -0.017   1.378   0.010  0.00  0.00    +0.008 A 
ATOM     12  C   UNL     1       1.171   2.086   0.002  0.00  0.00    +0.022 A 
ATOM     13  C   UNL     1       2.378   1.412  -0.013  0.00  0.00    +0.059 A 
ATOM     14  C   UNL     1       2.397   0.027  -0.021  0.00  0.00    +0.060 A 
ATOM     15  C   UNL     1       1.208  -0.680  -0.013  0.00  0.00    +0.028 A 
ATOM     16  C   UNL     1       0.002  -0.004   0.002  0.00  0.00    -0.009 A 
ATOM     17 CL   UNL     1       3.912  -0.821  -0.040  0.00  0.00    -0.082 Cl
ATOM     18 CL   UNL     1       3.869   2.301  -0.023  0.00  0.00    -0.082 Cl
ENDBRANCH  10  16
ENDBRANCH   9  10
ENDBRANCH   2   9
ENDBRANCH   1   7
BRANCH   1  19
ATOM     19  N   UNL     1      -1.453  -2.409  -4.242  0.00  0.00    +0.383 N 
ATOM     20  H   UNL     1      -0.845  -2.434  -3.438  0.00  0.00    -0.085 HD
ATOM     21  H   UNL     1      -1.815  -3.334  -4.420  0.00  0.00    -0.085 HD
BRANCH  19  22
ATOM     22  C   UNL     1      -0.697  -1.945  -5.413  0.00  0.00    -0.063 C 
BRANCH  22  23
ATOM     23  C   UNL     1       0.464  -2.904  -5.683  0.00  0.00    +0.085 C 
BRANCH  23  24
ATOM     24  N   UNL     1       1.218  -2.441  -6.851  0.00  0.00    -0.312 N 
ATOM     25  C   UNL     1       2.293  -3.134  -7.277  0.00  0.00    +0.269 C 
ATOM     26  O   UNL     1       2.636  -4.143  -6.692  0.00  0.00    -0.268 OA
ATOM     27  H   UNL     1       0.944  -1.636  -7.317  0.00  0.00    +0.149 HD
BRANCH  25  28
ATOM     28  C   UNL     1       3.055  -2.667  -8.458  0.00  0.00    +0.209 A 
ATOM     29  C   UNL     1       4.235  -3.321  -9.034  0.00  0.00    +0.192 A 
ATOM     30  N   UNL     1       4.631  -2.622 -10.062  0.00  0.00    -0.033 NA
ATOM     31  O   UNL     1       3.757  -1.516 -10.200  0.00  0.00    -0.240 OA
ATOM     32  N   UNL     1       2.788  -1.603  -9.170  0.00  0.00    -0.042 NA
ATOM     33  N   UNL     1       4.829  -4.485  -8.565  0.00  0.00    -0.339 N 
ATOM     34  H   UNL     1       4.462  -4.938  -7.790  0.00  0.00    +0.144 HD
ATOM     35  H   UNL     1       5.610  -4.845  -9.013  0.00  0.00    +0.144 HD
ENDBRANCH  25  28
ENDBRANCH  23  24
ENDBRANCH  22  23
ENDBRANCH  19  22
ENDBRANCH   1  19
TORSDOF 9
