REMARK  Name = ZINC37006492
REMARK  14 active torsions:
REMARK  status: ('A' for Active; 'I' for Inactive)
REMARK    1  A    between atoms: C_1  and  C_2
REMARK    2  A    between atoms: C_7  and  N_12
REMARK    3  A    between atoms: C_9  and  C_11
REMARK    4  A    between atoms: C_13  and  C_15
REMARK    5  A    between atoms: C_15  and  C_38
REMARK    6  A    between atoms: C_22  and  O_28
REMARK    7  A    between atoms: C_25  and  O_26
REMARK    8  A    between atoms: O_26  and  C_27
REMARK    9  A    between atoms: O_28  and  C_29
REMARK   10  A    between atoms: N_32  and  C_33
REMARK   11  A    between atoms: C_33  and  C_34
REMARK   12  A    between atoms: C_34  and  C_35
REMARK   13  A    between atoms: C_35  and  C_36
REMARK   14  A    between atoms: C_35  and  C_37
REMARK                            x       y       z     vdW  Elec       q    Type
REMARK                         _______ _______ _______ _____ _____    ______ ____
ROOT
ATOM      1  C   UNL     1       1.936  -4.254   4.128  0.00  0.00    +0.128 C 
ATOM      2  C   UNL     1       1.167  -3.818   5.375  0.00  0.00    +0.157 C 
ATOM      3  N   UNL     1       1.355  -2.378   5.582  0.00  0.00    -0.331 N 
ATOM      4  C   UNL     1       2.527  -1.733   5.176  0.00  0.00    +0.106 A 
ATOM      5  C   UNL     1       2.457  -0.424   5.501  0.00  0.00    +0.044 A 
ATOM      6  C   UNL     1       1.214  -0.211   6.119  0.00  0.00    +0.046 A 
ATOM      7  C   UNL     1       0.538  -1.460   6.154  0.00  0.00    +0.095 A 
ATOM      8  C   UNL     1      -0.740  -1.562   6.713  0.00  0.00    +0.144 A 
ATOM      9  C   UNL     1      -1.303  -0.402   7.226  0.00  0.00    +0.051 A 
ATOM     10  C   UNL     1      -0.645   0.816   7.195  0.00  0.00    +0.050 A 
ATOM     11  C   UNL     1       0.621   0.952   6.647  0.00  0.00    +0.129 A 
ATOM     12  C   UNL     1       3.597  -2.479   4.492  0.00  0.00    +0.264 C 
ATOM     13  O   UNL     1       4.691  -1.987   4.286  0.00  0.00    -0.268 OA
ATOM     14  N   UNL     1       3.301  -3.741   4.104  0.00  0.00    -0.281 N 
ATOM     15  C   UNL     1       1.980  -5.782   4.086  0.00  0.00    +0.043 C 
ENDROOT
BRANCH   1  17
ATOM     16  N   UNL     1       1.471  -2.526   2.420  0.00  0.00    -0.310 N 
ATOM     17  C   UNL     1       1.207  -3.754   2.907  0.00  0.00    +0.238 C 
ATOM     18  O   UNL     1       0.382  -4.458   2.364  0.00  0.00    -0.273 OA
ATOM     19  H   UNL     1       2.131  -1.963   2.855  0.00  0.00    +0.149 HD
BRANCH  16  25
ATOM     20  C   UNL     1      -0.019   1.526   0.010  0.00  0.00    +0.008 C 
ATOM     21  C   UNL     1       0.002  -0.004   0.002  0.00  0.00    -0.009 C 
ATOM     22  C   UNL     1       0.718  -0.497  -1.257  0.00  0.00    +0.003 C 
ATOM     23  C   UNL     1       0.739  -2.027  -1.265  0.00  0.00    +0.002 C 
ATOM     24  C   UNL     1       1.479  -2.534  -0.026  0.00  0.00    +0.022 C 
ATOM     25  C   UNL     1       0.763  -2.041   1.233  0.00  0.00    +0.076 C 
ATOM     26  C   UNL     1       0.742  -0.511   1.242  0.00  0.00    +0.009 C 
ATOM     27  C   UNL     1       0.026  -0.018   2.500  0.00  0.00    +0.009 C 
ENDBRANCH  16  25
ENDBRANCH   1  17
BRANCH  11  28
ATOM     28  O   UNL     1       1.261   2.150   6.623  0.00  0.00    -0.494 OA
ATOM     29  C   UNL     1       0.569   3.267   7.186  0.00  0.00    +0.277 C 
ENDBRANCH  11  28
BRANCH   8  30
ATOM     30  O   UNL     1      -1.404  -2.749   6.752  0.00  0.00    -0.493 OA
ATOM     31  C   UNL     1      -2.704  -2.746   7.345  0.00  0.00    +0.277 C 
ENDBRANCH   8  30
BRANCH  14  32
ATOM     32  C   UNL     1       4.382  -4.619   3.649  0.00  0.00    +0.109 C 
BRANCH  32  33
ATOM     33  C   UNL     1       4.562  -4.463   2.137  0.00  0.00    +0.022 C 
BRANCH  33  34
ATOM     34  C   UNL     1       5.691  -5.379   1.661  0.00  0.00    -0.016 C 
ATOM     35  C   UNL     1       5.789  -5.318   0.136  0.00  0.00    +0.007 C 
ATOM     36  C   UNL     1       7.015  -4.919   2.276  0.00  0.00    +0.007 C 
ENDBRANCH  33  34
ENDBRANCH  32  33
ENDBRANCH  14  32
TORSDOF 7
