REMARK  Name = ZINC44871027
REMARK  4 active torsions:
REMARK  status: ('A' for Active; 'I' for Inactive)
REMARK    1  A    between atoms: C_8  and  C_10
REMARK    2  A    between atoms: C_10  and  C_11
REMARK    3  A    between atoms: C_11  and  C_12
REMARK    4  A    between atoms: C_12  and  N_13
REMARK                            x       y       z     vdW  Elec       q    Type
REMARK                         _______ _______ _______ _____ _____    ______ ____
ROOT
ATOM      1  C   UNL     1      -4.263  -4.528  -0.319  0.00  0.00    +0.029 C 
ENDROOT
BRANCH   1   2
ATOM      2  C   UNL     1      -4.635  -3.049  -0.208  0.00  0.00    +0.098 C 
BRANCH   2  10
ATOM      3  C   UNL     1      -0.017   1.376   0.012  0.00  0.00    +0.021 A 
ATOM      4  C   UNL     1      -1.235   2.040  -0.019  0.00  0.00    +0.056 A 
ATOM      5  C   UNL     1      -2.400   1.285  -0.019  0.00  0.00    +0.217 A 
ATOM      6  C   UNL     1      -2.303  -0.107   0.013  0.00  0.00    +0.150 A 
ATOM      7  N   UNL     1      -1.121  -0.698   0.042  0.00  0.00    -0.346 N 
ATOM      8  C   UNL     1       0.002  -0.004   0.042  0.00  0.00    +0.084 A 
ATOM      9  N   UNL     1      -3.464  -0.881   0.014  0.00  0.00    -0.269 N 
ATOM     10  C   UNL     1      -3.381  -2.222  -0.096  0.00  0.00    +0.218 C 
ATOM     11  O   UNL     1      -2.295  -2.763  -0.104  0.00  0.00    -0.275 OA
ATOM     12  O   UNL     1      -3.616   1.892  -0.048  0.00  0.00    -0.284 OA
ATOM     13  H   UNL     1      -4.332  -0.454   0.093  0.00  0.00    +0.156 HD
ATOM     14  H   UNL     1      -1.077  -1.667   0.064  0.00  0.00    +0.167 HD
ENDBRANCH   2  10
ENDBRANCH   1   2
BRANCH   1  15
ATOM     15  C   UNL     1      -5.537  -5.368  -0.433  0.00  0.00    +0.118 C 
BRANCH  15  16
ATOM     16  N   UNL     1      -5.180  -6.785  -0.539  0.00  0.00    -0.224 N 
ATOM     17  C   UNL     1      -4.952  -7.425  -1.706  0.00  0.00    +0.246 C 
ATOM     18  O   UNL     1      -5.001  -6.957  -2.824  0.00  0.00    -0.273 OA
ATOM     19  C   UNL     1      -4.623  -8.845  -1.324  0.00  0.00    +0.113 C 
ATOM     20  C   UNL     1      -3.218  -9.234  -1.802  0.00  0.00    +0.035 C 
ATOM     21  C   UNL     1      -3.352 -10.732  -2.182  0.00  0.00    +0.003 C 
ATOM     22  C   UNL     1      -4.769 -10.803  -2.807  0.00  0.00    +0.003 C 
ATOM     23  C   UNL     1      -5.611  -9.832  -1.950  0.00  0.00    +0.035 C 
ATOM     24  N   UNL     1      -4.707  -8.860   0.138  0.00  0.00    -0.285 N 
ATOM     25  C   UNL     1      -5.034  -7.605   0.509  0.00  0.00    +0.309 C 
ATOM     26  O   UNL     1      -5.183  -7.259   1.665  0.00  0.00    -0.252 OA
ATOM     27  H   UNL     1      -4.554  -9.618   0.723  0.00  0.00    +0.151 HD
ENDBRANCH  15  16
ENDBRANCH   1  15
TORSDOF 4
