REMARK  Name = ZINC58411441
REMARK  5 active torsions:
REMARK  status: ('A' for Active; 'I' for Inactive)
REMARK    1  A    between atoms: C_1  and  N_2
REMARK    2  A    between atoms: N_7  and  S_8
REMARK    3  A    between atoms: S_8  and  C_11
REMARK    4  A    between atoms: C_14  and  N_17
REMARK    5  A    between atoms: C_18  and  C_20
REMARK                            x       y       z     vdW  Elec       q    Type
REMARK                         _______ _______ _______ _____ _____    ______ ____
ROOT
ATOM      1  C   UNL     1       4.067   1.237  -1.774  0.00  0.00    +0.113 A 
ATOM      2  C   UNL     1       5.129   1.687  -1.011  0.00  0.00    +0.031 A 
ATOM      3  C   UNL     1       6.381   1.820  -1.579  0.00  0.00    +0.025 A 
ATOM      4  C   UNL     1       6.573   1.502  -2.917  0.00  0.00    +0.034 A 
ATOM      5  C   UNL     1       5.504   1.050  -3.680  0.00  0.00    +0.025 A 
ATOM      6  C   UNL     1       4.256   0.914  -3.105  0.00  0.00    +0.031 A 
ENDROOT
BRANCH   4   7
ATOM      7  N   UNL     1       7.839   1.636  -3.495  0.00  0.00    -0.280 N 
ATOM      8  C   UNL     1       7.955   1.980  -4.793  0.00  0.00    +0.265 C 
ATOM      9  O   UNL     1       6.965   2.289  -5.430  0.00  0.00    -0.268 OA
ATOM     10  H   UNL     1       8.634   1.481  -2.962  0.00  0.00    +0.155 HD
BRANCH   8  11
ATOM     11  C   UNL     1       9.275   1.982  -5.438  0.00  0.00    +0.103 A 
ATOM     12  C   UNL     1       9.519   2.314  -6.733  0.00  0.00    +0.040 A 
ATOM     13  C   UNL     1      10.911   2.187  -6.956  0.00  0.00    +0.000 A 
ATOM     14  C   UNL     1      11.729   2.391  -8.075  0.00  0.00    +0.010 A 
ATOM     15  C   UNL     1      13.074   2.180  -7.981  0.00  0.00    +0.001 A 
ATOM     16  C   UNL     1      13.642   1.765  -6.783  0.00  0.00    +0.002 A 
ATOM     17  C   UNL     1      12.860   1.558  -5.670  0.00  0.00    +0.026 A 
ATOM     18  C   UNL     1      11.485   1.766  -5.741  0.00  0.00    +0.047 A 
ATOM     19  N   UNL     1      10.468   1.652  -4.823  0.00  0.00    -0.351 N 
ATOM     20  H   UNL     1      10.570   1.382  -3.897  0.00  0.00    +0.166 HD
ENDBRANCH   8  11
ENDBRANCH   4   7
BRANCH   1  21
ATOM     21  S   UNL     1       2.472   1.068  -1.046  0.00  0.00    +0.100 S 
ATOM     22  O   UNL     1       1.530   1.143  -2.107  0.00  0.00    -0.146 OA
ATOM     23  O   UNL     1       2.437   1.951   0.067  0.00  0.00    -0.146 OA
BRANCH  21  30
ATOM     24  C   UNL     1       0.034   1.266   0.264  0.00  0.00    +0.130 C 
ATOM     25  N   UNL     1       0.092  -0.192   0.126  0.00  0.00    -0.320 N 
ATOM     26  C   UNL     1      -1.070  -1.094   0.121  0.00  0.00    +0.106 C 
ATOM     27  C   UNL     1      -0.538  -2.413   0.724  0.00  0.00    +0.026 C 
ATOM     28  C   UNL     1       0.964  -2.366   0.368  0.00  0.00    +0.075 C 
ATOM     29  C   UNL     1       1.236  -0.929  -0.024  0.00  0.00    +0.119 C 
ATOM     30  N   UNL     1       2.373  -0.468  -0.433  0.00  0.00    -0.118 NA
ENDBRANCH  21  30
ENDBRANCH   1  21
TORSDOF 4
