REMARK  Name = ZINC12682325
REMARK  10 active torsions:
REMARK  status: ('A' for Active; 'I' for Inactive)
REMARK    1  A    between atoms: C_1  and  C_2
REMARK    2  A    between atoms: C_2  and  C_3
REMARK    3  A    between atoms: C_2  and  C_4
REMARK    4  A    between atoms: C_4  and  C_6
REMARK    5  A    between atoms: C_4  and  O_12
REMARK    6  A    between atoms: O_12  and  C_13
REMARK    7  A    between atoms: C_13  and  C_15
REMARK    8  A    between atoms: C_24  and  C_27
REMARK    9  A    between atoms: C_30  and  O_33
REMARK   10  A    between atoms: O_33  and  C_34
REMARK                            x       y       z     vdW  Elec       q    Type
REMARK                         _______ _______ _______ _____ _____    ______ ____
ROOT
ATOM      1  C   UNL     1      -0.750   3.109   1.275  0.00  0.00    +0.069 C 
ATOM      2  C   UNL     1      -0.729   1.579   1.267  0.00  0.00    +0.021 C 
ATOM      3  C   UNL     1      -0.013   1.086   0.008  0.00  0.00    -0.009 C 
ATOM      4  C   UNL     1      -0.753   1.593  -1.232  0.00  0.00    +0.007 C 
ATOM      5  C   UNL     1      -0.773   3.123  -1.223  0.00  0.00    -0.009 C 
ATOM      6  C   UNL     1      -1.490   3.616   0.036  0.00  0.00    +0.021 C 
ATOM      7  C   UNL     1       0.662   3.652  -1.234  0.00  0.00    +0.015 C 
ATOM      8  C   UNL     1       1.402   3.145   0.006  0.00  0.00    -0.003 C 
ATOM      9  C   UNL     1       1.423   1.615  -0.003  0.00  0.00    +0.015 C 
ATOM     10  C   UNL     1       0.686   3.639   1.264  0.00  0.00    +0.029 C 
ENDROOT
BRANCH   8  11
ATOM     11  C   UNL     1       2.816   3.667  -0.005  0.00  0.00    -0.041 A 
ATOM     12  C   UNL     1       3.264   4.467   1.030  0.00  0.00    +0.008 A 
ATOM     13  C   UNL     1       4.561   4.942   1.025  0.00  0.00    +0.046 A 
ATOM     14  C   UNL     1       5.411   4.625  -0.025  0.00  0.00    +0.120 A 
ATOM     15  C   UNL     1       4.957   3.827  -1.065  0.00  0.00    +0.046 A 
ATOM     16  C   UNL     1       3.661   3.349  -1.052  0.00  0.00    +0.008 A 
BRANCH  14  17
ATOM     17  O   UNL     1       6.686   5.096  -0.035  0.00  0.00    -0.495 OA
ATOM     18  C   UNL     1       7.085   5.912   1.068  0.00  0.00    +0.277 C 
ENDBRANCH  14  17
ENDBRANCH   8  11
BRANCH   1  19
ATOM     19  C   UNL     1      -1.455   3.595   2.515  0.00  0.00    +0.314 C 
ATOM     20  O   UNL     1      -1.896   2.800   3.310  0.00  0.00    -0.250 OA
BRANCH  19  21
ATOM     21  O   UNL     1      -1.593   4.912   2.736  0.00  0.00    -0.451 OA
BRANCH  21  22
ATOM     22  C   UNL     1      -2.284   5.308   3.951  0.00  0.00    +0.264 C 
BRANCH  22  23
ATOM     23  C   UNL     1      -2.985   6.622   3.724  0.00  0.00    +0.261 C 
ATOM     24  O   UNL     1      -2.911   7.171   2.646  0.00  0.00    -0.271 OA
ATOM     25  N   UNL     1      -3.696   7.187   4.721  0.00  0.00    -0.237 N 
ATOM     26  C   UNL     1      -4.323   8.362   4.518  0.00  0.00    +0.303 C 
ATOM     27  O   UNL     1      -4.249   8.913   3.437  0.00  0.00    -0.253 OA
ATOM     28  N   UNL     1      -5.033   8.928   5.514  0.00  0.00    -0.313 N 
ATOM     29  H   UNL     1      -3.755   6.748   5.583  0.00  0.00    +0.159 HD
ATOM     30  H   UNL     1      -5.093   8.488   6.377  0.00  0.00    +0.146 HD
ATOM     31  H   UNL     1      -5.485   9.774   5.369  0.00  0.00    +0.146 HD
ENDBRANCH  22  23
BRANCH  22  33
ATOM     32  C   UNL     1      -0.558   4.125   5.316  0.00  0.00    +0.011 C 
ATOM     33  C   UNL     1      -1.270   5.460   5.087  0.00  0.00    +0.033 C 
ATOM     34  C   UNL     1      -0.242   6.529   4.713  0.00  0.00    +0.011 C 
ENDBRANCH  22  33
ENDBRANCH  21  22
ENDBRANCH  19  21
ENDBRANCH   1  19
TORSDOF 7
