REMARK  Name = ZINC63908576
REMARK  6 active torsions:
REMARK  status: ('A' for Active; 'I' for Inactive)
REMARK    1  A    between atoms: C_4  and  C_7
REMARK    2  A    between atoms: C_7  and  C_9
REMARK    3  A    between atoms: C_7  and  C_25
REMARK    4  A    between atoms: C_9  and  N_10
REMARK    5  A    between atoms: C_11  and  C_13
REMARK    6  A    between atoms: C_13  and  N_14
REMARK                            x       y       z     vdW  Elec       q    Type
REMARK                         _______ _______ _______ _____ _____    ______ ____
ROOT
ATOM      1  C   UNL     1       3.817  -1.592   1.206  0.00  0.00    +0.116 C 
ENDROOT
BRANCH   1   2
ATOM      2  N   UNL     1       3.861  -0.748   2.403  0.00  0.00    -0.313 N 
ATOM      3  C   UNL     1       3.954  -1.314   3.623  0.00  0.00    +0.232 C 
ATOM      4  O   UNL     1       4.003  -2.521   3.730  0.00  0.00    -0.274 OA
ATOM      5  H   UNL     1       3.822   0.217   2.318  0.00  0.00    +0.149 HD
BRANCH   3   6
ATOM      6  C   UNL     1       3.999  -0.446   4.854  0.00  0.00    +0.224 C 
BRANCH   6   7
ATOM      7  N   UNL     1       4.101  -1.293   6.045  0.00  0.00    -0.208 N 
ATOM      8  C   UNL     1       5.325  -1.629   6.512  0.00  0.00    +0.264 C 
ATOM      9  O   UNL     1       6.337  -1.165   6.021  0.00  0.00    -0.269 OA
ATOM     10  C   UNL     1       5.389  -2.578   7.641  0.00  0.00    +0.060 A 
ATOM     11  C   UNL     1       6.550  -2.815   8.365  0.00  0.00    +0.015 A 
ATOM     12  C   UNL     1       6.524  -3.723   9.405  0.00  0.00    +0.001 A 
ATOM     13  C   UNL     1       5.353  -4.393   9.726  0.00  0.00    +0.002 A 
ATOM     14  C   UNL     1       4.191  -4.164   9.013  0.00  0.00    +0.025 A 
ATOM     15  C   UNL     1       4.200  -3.258   7.970  0.00  0.00    +0.055 A 
ATOM     16  N   UNL     1       3.074  -2.965   7.210  0.00  0.00    -0.264 N 
ATOM     17  N   UNL     1       2.961  -1.717   6.656  0.00  0.00    -0.158 NA
ATOM     18  H   UNL     1       2.380  -3.631   7.078  0.00  0.00    +0.168 HD
ATOM     19  H   UNL     1       2.643  -1.043   7.336  0.00  0.00    +0.168 HD
ENDBRANCH   6   7
ENDBRANCH   3   6
ENDBRANCH   1   2
BRANCH   1  20
ATOM     20  C   UNL     1       3.711  -0.707  -0.038  0.00  0.00    +0.064 C 
BRANCH  20  21
ATOM     21  C   UNL     1       3.790  -1.566  -1.273  0.00  0.00    -0.033 C 
ATOM     22  C   UNL     1       4.716  -1.494  -2.256  0.00  0.00    -0.000 A 
ATOM     23  C   UNL     1       5.883  -0.628  -2.461  0.00  0.00    +0.010 A 
ATOM     24  C   UNL     1       6.640  -0.798  -3.569  0.00  0.00    +0.001 A 
ATOM     25  C   UNL     1       6.338  -1.778  -4.524  0.00  0.00    +0.002 A 
ATOM     26  C   UNL     1       5.284  -2.612  -4.405  0.00  0.00    +0.026 A 
ATOM     27  C   UNL     1       4.420  -2.522  -3.279  0.00  0.00    +0.043 A 
ATOM     28  N   UNL     1       3.352  -3.203  -2.942  0.00  0.00    -0.380 N 
ATOM     29  C   UNL     1       2.853  -2.687  -1.662  0.00  0.00    +0.145 C 
ATOM     30  H   UNL     1       2.959  -3.929  -3.451  0.00  0.00    +0.160 HD
ENDBRANCH  20  21
BRANCH  20  34
ATOM     31  C   UNL     1      -0.017   1.378   0.010  0.00  0.00    +0.000 A 
ATOM     32  C   UNL     1       1.171   2.086   0.002  0.00  0.00    +0.000 A 
ATOM     33  C   UNL     1       2.377   1.411  -0.013  0.00  0.00    +0.004 A 
ATOM     34  C   UNL     1       2.396   0.029  -0.020  0.00  0.00    -0.039 A 
ATOM     35  C   UNL     1       1.208  -0.679  -0.012  0.00  0.00    +0.004 A 
ATOM     36  C   UNL     1       0.002  -0.004   0.002  0.00  0.00    +0.000 A 
ENDBRANCH  20  34
ENDBRANCH   1  20
TORSDOF 6
