REMARK  Name = ZINC20572222
REMARK  7 active torsions:
REMARK  status: ('A' for Active; 'I' for Inactive)
REMARK    1  A    between atoms: C_1  and  C_2
REMARK    2  A    between atoms: C_9  and  N_14
REMARK    3  A    between atoms: C_10  and  C_11
REMARK    4  A    between atoms: C_15  and  C_17
REMARK    5  A    between atoms: C_17  and  S_18
REMARK    6  A    between atoms: S_18  and  C_19
REMARK    7  A    between atoms: C_20  and  C_30
REMARK                            x       y       z     vdW  Elec       q    Type
REMARK                         _______ _______ _______ _____ _____    ______ ____
ROOT
ATOM      1  N   UNL     1       4.609   0.894   4.420  0.00  0.00    -0.279 N 
ATOM      2  C   UNL     1       5.894   1.103   4.068  0.00  0.00    +0.228 C 
ATOM      3  O   UNL     1       6.168   1.399   2.924  0.00  0.00    -0.275 OA
ATOM      4  H   UNL     1       4.360   0.625   5.457  0.00  0.00    +0.155 HD
ENDROOT
BRANCH   1  12
ATOM      5  C   UNL     1      -0.758   1.595  -1.227  0.00  0.00    +0.008 C 
ATOM      6  C   UNL     1      -0.013   1.086   0.008  0.00  0.00    -0.009 C 
ATOM      7  C   UNL     1      -0.714   1.583   1.276  0.00  0.00    +0.008 C 
ATOM      8  C   UNL     1      -0.129   0.881   2.503  0.00  0.00    +0.037 C 
ATOM      9  C   UNL     1       1.387   1.034   2.479  0.00  0.00    -0.023 A 
ATOM     10  C   UNL     1       2.035   1.365   1.342  0.00  0.00    -0.004 A 
ATOM     11  S   UNL     1       3.745   1.426   1.797  0.00  0.00    -0.077 S 
ATOM     12  C   UNL     1       3.602   1.017   3.475  0.00  0.00    +0.084 A 
ATOM     13  C   UNL     1       2.236   0.844   3.643  0.00  0.00    +0.068 A 
ATOM     14  C   UNL     1       1.427   1.620  -0.003  0.00  0.00    +0.046 C 
BRANCH  13  15
ATOM     15  C   UNL     1       1.670   0.482   4.946  0.00  0.00    +0.244 C 
ATOM     16  O   UNL     1       1.336   1.354   5.727  0.00  0.00    -0.270 OA
ATOM     17  N   UNL     1       1.521  -0.815   5.280  0.00  0.00    -0.325 N 
ATOM     18  H   UNL     1       1.096  -1.086   6.258  0.00  0.00    +0.145 HD
ATOM     19  H   UNL     1       1.823  -1.603   4.574  0.00  0.00    +0.145 HD
ENDBRANCH  13  15
ENDBRANCH   1  12
BRANCH   2  20
ATOM     20  C   UNL     1       6.988   0.969   5.095  0.00  0.00    +0.172 C 
BRANCH  20  21
ATOM     21  S   UNL     1       8.588   1.309   4.320  0.00  0.00    -0.095 S 
BRANCH  21  22
ATOM     22  C   UNL     1       9.653   1.087   5.706  0.00  0.00    +0.115 A 
ATOM     23  C   UNL     1      11.040   1.260   5.554  0.00  0.00    +0.084 A 
ATOM     24  C   UNL     1      11.866   1.075   6.670  0.00  0.00    +0.027 A 
ATOM     25  C   UNL     1      11.268   0.732   7.871  0.00  0.00    -0.025 A 
ATOM     26  C   UNL     1       9.906   0.584   7.946  0.00  0.00    +0.046 A 
ATOM     27  N   UNL     1       9.140   0.765   6.884  0.00  0.00    -0.244 NA
ATOM     28  C   UNL     1       9.259   0.216   9.267  0.00  0.00    +0.056 C 
ATOM     29  C   UNL     1       9.364   1.416  10.210  0.00  0.00    +0.006 C 
ATOM     30  C   UNL     1      10.689   1.416  10.946  0.00  0.00    +0.001 C 
ATOM     31  C   UNL     1      11.894   1.681  10.065  0.00  0.00    +0.005 C 
ATOM     32  C   UNL     1      12.129   0.518   9.098  0.00  0.00    +0.037 C 
BRANCH  23  33
ATOM     33  C   UNL     1      11.598   1.616   4.285  0.00  0.00    +0.102 C 
ATOM     34  N   UNL     1      12.040   1.899   3.277  0.00  0.00    -0.191 NA
ENDBRANCH  23  33
ENDBRANCH  21  22
ENDBRANCH  20  21
ENDBRANCH   2  20
TORSDOF 6
