REMARK  Name = ZINC18017128
REMARK  11 active torsions:
REMARK  status: ('A' for Active; 'I' for Inactive)
REMARK    1  A    between atoms: C_1  and  C_2
REMARK    2  A    between atoms: C_2  and  C_3
REMARK    3  A    between atoms: C_6  and  C_9
REMARK    4  A    between atoms: C_9  and  C_11
REMARK    5  A    between atoms: C_9  and  N_71
REMARK    6  A    between atoms: C_11  and  N_12
REMARK    7  A    between atoms: C_13  and  C_15
REMARK    8  A    between atoms: N_18  and  S_21
REMARK    9  A    between atoms: S_21  and  C_24
REMARK   10  A    between atoms: C_33  and  N_71
REMARK   11  A    between atoms: C_34  and  N_71
REMARK                            x       y       z     vdW  Elec       q    Type
REMARK                         _______ _______ _______ _____ _____    ______ ____
ROOT
ATOM      1  N   UNL     1       1.209   1.307   0.028  0.00  0.00    -0.316 N 
ATOM      2  C   UNL     1       0.241   0.373  -0.050  0.00  0.00    +0.216 C 
ATOM      3  O   UNL     1       0.525  -0.773  -0.326  0.00  0.00    -0.276 OA
ATOM      4  H   UNL     1       0.982   2.224   0.248  0.00  0.00    +0.149 HD
ENDROOT
BRANCH   2   5
ATOM      5  C   UNL     1      -1.195   0.754   0.199  0.00  0.00    +0.077 C 
ATOM      6  C   UNL     1      -1.337   1.310   1.617  0.00  0.00    +0.030 C 
ATOM      7  C   UNL     1      -2.791   1.728   1.855  0.00  0.00    +0.110 C 
ATOM      8  N   UNL     1      -3.666   0.584   1.565  0.00  0.00    -0.177 NA
ATOM      9  C   UNL     1      -3.548  -0.083   0.262  0.00  0.00    +0.110 C 
ATOM     10  C   UNL     1      -2.085  -0.481   0.042  0.00  0.00    +0.030 C 
BRANCH   8  11
ATOM     11  S   UNL     1      -4.764   0.056   2.687  0.00  0.00    +0.061 S 
ATOM     12  O   UNL     1      -5.038   1.160   3.538  0.00  0.00    -0.153 OA
ATOM     13  O   UNL     1      -5.784  -0.624   1.968  0.00  0.00    -0.153 OA
BRANCH  11  14
ATOM     14  C   UNL     1      -3.955  -1.155   3.679  0.00  0.00    +0.106 A 
ATOM     15  C   UNL     1      -3.279  -0.773   4.823  0.00  0.00    +0.029 A 
ATOM     16  C   UNL     1      -2.646  -1.724   5.599  0.00  0.00    +0.006 A 
ATOM     17  C   UNL     1      -2.685  -3.060   5.235  0.00  0.00    -0.044 A 
ATOM     18  C   UNL     1      -3.361  -3.442   4.091  0.00  0.00    -0.042 A 
ATOM     19  C   UNL     1      -4.000  -2.487   3.317  0.00  0.00    +0.032 A 
ATOM     20  C   UNL     1      -3.259  -4.941   3.913  0.00  0.00    +0.036 C 
ATOM     21  C   UNL     1      -2.826  -5.483   5.292  0.00  0.00    +0.009 C 
ATOM     22  C   UNL     1      -2.083  -4.277   5.903  0.00  0.00    +0.036 C 
ENDBRANCH  11  14
ENDBRANCH   8  11
ENDBRANCH   2   5
BRANCH   1  23
ATOM     23  C   UNL     1       2.605   0.938  -0.220  0.00  0.00    +0.093 C 
BRANCH  23  24
ATOM     24  C   UNL     1       3.494   2.174  -0.069  0.00  0.00    -0.021 C 
BRANCH  24  28
ATOM     25  C   UNL     1       7.593   1.034  -0.448  0.00  0.00    -0.048 A 
ATOM     26  C   UNL     1       6.766   0.356   0.428  0.00  0.00    +0.004 A 
ATOM     27  C   UNL     1       5.439   0.726   0.550  0.00  0.00    +0.002 A 
ATOM     28  C   UNL     1       4.941   1.772  -0.203  0.00  0.00    -0.059 A 
ATOM     29  C   UNL     1       5.767   2.446  -1.082  0.00  0.00    +0.002 A 
ATOM     30  C   UNL     1       7.095   2.080  -1.201  0.00  0.00    +0.004 A 
BRANCH  25  32
ATOM     31  C   UNL     1       9.174  -0.429  -1.678  0.00  0.00    +0.009 C 
ATOM     32  C   UNL     1       9.040   0.631  -0.583  0.00  0.00    +0.032 C 
ENDBRANCH  25  32
ENDBRANCH  24  28
BRANCH  24  35
ATOM     33  C   UNL     1       3.586   1.823   2.325  0.00  0.00    -0.096 C 
ATOM     34  C   UNL     1       4.053   4.013   1.403  0.00  0.00    -0.096 C 
ATOM     35  N   UNL     1       3.246   2.784   1.254  0.00  0.00    +0.382 N 
ATOM     36  H   UNL     1       2.251   3.027   1.328  0.00  0.00    -0.082 HD
ENDBRANCH  24  35
ENDBRANCH  23  24
ENDBRANCH   1  23
TORSDOF 8
