REMARK  Name = ZINC09368672
REMARK  10 active torsions:
REMARK  status: ('A' for Active; 'I' for Inactive)
REMARK    1  A    between atoms: C_1  and  C_2
REMARK    2  A    between atoms: C_4  and  S_24
REMARK    3  A    between atoms: C_6  and  N_9
REMARK    4  A    between atoms: C_7  and  C_8
REMARK    5  A    between atoms: N_9  and  C_10
REMARK    6  A    between atoms: C_10  and  C_11
REMARK    7  A    between atoms: N_13  and  C_14
REMARK    8  A    between atoms: S_24  and  N_27
REMARK    9  A    between atoms: N_27  and  C_28
REMARK   10  A    between atoms: N_27  and  C_29
REMARK                            x       y       z     vdW  Elec       q    Type
REMARK                         _______ _______ _______ _____ _____    ______ ____
ROOT
ATOM      1  N   UNL     1      -3.491   0.541   3.694  0.00  0.00    -0.335 N 
ATOM      2  H   UNL     1      -3.991   0.808   4.481  0.00  0.00    +0.147 HD
ENDROOT
BRANCH   1   8
ATOM      3  C   UNL     1      -1.204   4.891   3.730  0.00  0.00    +0.044 C 
ATOM      4  C   UNL     1      -1.432   3.531   3.122  0.00  0.00    -0.044 A 
ATOM      5  C   UNL     1      -0.717   3.145   2.003  0.00  0.00    +0.032 A 
ATOM      6  C   UNL     1      -0.927   1.900   1.439  0.00  0.00    +0.107 A 
ATOM      7  C   UNL     1      -1.845   1.033   1.999  0.00  0.00    +0.051 A 
ATOM      8  C   UNL     1      -2.561   1.415   3.126  0.00  0.00    +0.033 A 
ATOM      9  C   UNL     1      -2.352   2.669   3.686  0.00  0.00    -0.027 A 
ATOM     10  C   UNL     1      -3.127   3.087   4.909  0.00  0.00    +0.046 C 
BRANCH   6  11
ATOM     11  S   UNL     1      -0.017   1.417   0.010  0.00  0.00    +0.060 S 
ATOM     12  O   UNL     1       0.002  -0.004   0.002  0.00  0.00    -0.153 OA
ATOM     13  O   UNL     1       1.172   2.195   0.003  0.00  0.00    -0.153 OA
BRANCH  11  14
ATOM     14  N   UNL     1      -0.897   1.885  -1.312  0.00  0.00    -0.183 NA
ATOM     15  C   UNL     1      -0.691   3.213  -1.897  0.00  0.00    +0.131 C 
ATOM     16  C   UNL     1      -1.883   0.973  -1.897  0.00  0.00    +0.131 C 
ENDBRANCH  11  14
ENDBRANCH   6  11
ENDBRANCH   1   8
BRANCH   1  17
ATOM     17  C   UNL     1      -3.711  -0.781   3.101  0.00  0.00    +0.197 C 
BRANCH  17  18
ATOM     18  C   UNL     1      -4.755  -1.521   3.897  0.00  0.00    +0.231 C 
ATOM     19  O   UNL     1      -5.265  -0.996   4.864  0.00  0.00    -0.274 OA
ATOM     20  N   UNL     1      -5.122  -2.766   3.533  0.00  0.00    -0.308 N 
ATOM     21  H   UNL     1      -4.714  -3.186   2.760  0.00  0.00    +0.149 HD
BRANCH  20  22
ATOM     22  C   UNL     1      -6.137  -3.485   4.307  0.00  0.00    +0.035 C 
ATOM     23  C   UNL     1      -5.657  -3.648   5.751  0.00  0.00    +0.029 C 
ATOM     24  C   UNL     1      -6.717  -4.399   6.559  0.00  0.00    -0.008 C 
ATOM     25  C   UNL     1      -6.947  -5.779   5.940  0.00  0.00    +0.007 C 
ATOM     26  C   UNL     1      -7.427  -5.617   4.496  0.00  0.00    -0.008 C 
ATOM     27  C   UNL     1      -6.367  -4.865   3.688  0.00  0.00    +0.029 C 
ATOM     28  C   UNL     1      -8.736  -4.826   4.479  0.00  0.00    +0.007 C 
ATOM     29  C   UNL     1      -8.506  -3.446   5.098  0.00  0.00    -0.008 C 
ATOM     30  C   UNL     1      -8.027  -3.608   6.542  0.00  0.00    +0.007 C 
ATOM     31  C   UNL     1      -7.446  -2.694   4.290  0.00  0.00    +0.029 C 
ENDBRANCH  20  22
ENDBRANCH  17  18
ENDBRANCH   1  17
TORSDOF 6
