REMARK  Name = ZINC08917527
REMARK  8 active torsions:
REMARK  status: ('A' for Active; 'I' for Inactive)
REMARK    1  A    between atoms: C_1  and  C_2
REMARK    2  A    between atoms: C_5  and  C_8
REMARK    3  A    between atoms: N_23  and  C_24
REMARK    4  A    between atoms: C_24  and  C_25
REMARK    5  A    between atoms: C_25  and  C_27
REMARK    6  A    between atoms: C_25  and  N_70
REMARK    7  A    between atoms: C_30  and  O_33
REMARK    8  A    between atoms: O_33  and  C_34
REMARK                            x       y       z     vdW  Elec       q    Type
REMARK                         _______ _______ _______ _____ _____    ______ ____
ROOT
ATOM      1  C   UNL     1      -5.822   4.125   0.941  0.00  0.00    +0.144 C 
ATOM      2  C   UNL     1      -6.790   5.277   0.876  0.00  0.00    +0.072 A 
ATOM      3  C   UNL     1      -8.231   5.350   0.615  0.00  0.00    +0.199 A 
ATOM      4  O   UNL     1      -8.892   4.351   0.392  0.00  0.00    -0.287 OA
ATOM      5  C   UNL     1      -8.841   6.694   0.638  0.00  0.00    +0.064 A 
ATOM      6  C   UNL     1     -10.203   6.879   0.403  0.00  0.00    +0.015 A 
ATOM      7  C   UNL     1     -10.728   8.141   0.432  0.00  0.00    +0.001 A 
ATOM      8  C   UNL     1      -9.914   9.234   0.692  0.00  0.00    +0.004 A 
ATOM      9  C   UNL     1      -8.566   9.070   0.927  0.00  0.00    +0.047 A 
ATOM     10  C   UNL     1      -8.008   7.795   0.903  0.00  0.00    +0.139 A 
ATOM     11  O   UNL     1      -6.694   7.617   1.129  0.00  0.00    -0.450 OA
ATOM     12  C   UNL     1      -6.090   6.412   1.120  0.00  0.00    +0.199 A 
ATOM     13  C   UNL     1      -4.671   6.044   1.353  0.00  0.00    +0.283 C 
ATOM     14  O   UNL     1      -3.781   6.833   1.603  0.00  0.00    -0.267 OA
ATOM     15  N   UNL     1      -4.512   4.714   1.243  0.00  0.00    -0.285 N 
ENDROOT
BRANCH   1  20
ATOM     16  C   UNL     1      -7.367   0.452   5.126  0.00  0.00    +0.044 C 
ATOM     17  C   UNL     1      -6.964   1.410   4.035  0.00  0.00    -0.050 A 
ATOM     18  C   UNL     1      -7.215   1.096   2.712  0.00  0.00    +0.004 A 
ATOM     19  C   UNL     1      -6.846   1.975   1.711  0.00  0.00    +0.006 A 
ATOM     20  C   UNL     1      -6.225   3.167   2.032  0.00  0.00    -0.022 A 
ATOM     21  C   UNL     1      -5.968   3.479   3.354  0.00  0.00    +0.006 A 
ATOM     22  C   UNL     1      -6.343   2.602   4.356  0.00  0.00    +0.004 A 
ENDBRANCH   1  20
BRANCH  15  23
ATOM     23  C   UNL     1      -3.254   3.981   1.404  0.00  0.00    +0.098 C 
BRANCH  23  24
ATOM     24  C   UNL     1      -2.553   3.867   0.048  0.00  0.00    -0.020 C 
BRANCH  24  30
ATOM     25  C   UNL     1      -3.790   1.873  -0.548  0.00  0.00    -0.078 C 
ATOM     26  C   UNL     1      -4.853   1.318  -1.499  0.00  0.00    -0.019 C 
ATOM     27  C   UNL     1      -4.321   1.365  -2.934  0.00  0.00    -0.004 C 
ATOM     28  C   UNL     1      -3.947   2.807  -3.285  0.00  0.00    -0.019 C 
ATOM     29  C   UNL     1      -2.911   3.319  -2.283  0.00  0.00    -0.078 C 
ATOM     30  N   UNL     1      -3.493   3.272  -0.924  0.00  0.00    +0.385 N 
ATOM     31  H   UNL     1      -4.366   3.811  -0.917  0.00  0.00    -0.081 HD
ENDBRANCH  24  30
BRANCH  24  32
ATOM     32  C   UNL     1      -1.323   3.009   0.189  0.00  0.00    -0.059 A 
ATOM     33  C   UNL     1      -0.113   3.449  -0.316  0.00  0.00    +0.005 A 
ATOM     34  C   UNL     1       1.016   2.662  -0.193  0.00  0.00    +0.046 A 
ATOM     35  C   UNL     1       0.937   1.434   0.448  0.00  0.00    +0.120 A 
ATOM     36  C   UNL     1      -0.277   0.997   0.960  0.00  0.00    +0.046 A 
ATOM     37  C   UNL     1      -1.403   1.786   0.829  0.00  0.00    +0.005 A 
BRANCH  35  38
ATOM     38  O   UNL     1       2.047   0.660   0.575  0.00  0.00    -0.495 OA
ATOM     39  C   UNL     1       1.892  -0.592   1.247  0.00  0.00    +0.277 C 
ENDBRANCH  35  38
ENDBRANCH  24  32
ENDBRANCH  23  24
ENDBRANCH  15  23
TORSDOF 6
