REMARK  Name = ZINC35744552
REMARK  13 active torsions:
REMARK  status: ('A' for Active; 'I' for Inactive)
REMARK    1  A    between atoms: C_1  and  C_2
REMARK    2  A    between atoms: C_5  and  C_9
REMARK    3  A    between atoms: C_11  and  C_14
REMARK    4  A    between atoms: C_14  and  C_16
REMARK    5  A    between atoms: C_14  and  N_19
REMARK    6  A    between atoms: C_16  and  C_17
REMARK    7  A    between atoms: C_16  and  C_18
REMARK    8  A    between atoms: N_19  and  C_20
REMARK    9  A    between atoms: C_20  and  C_21
REMARK   10  A    between atoms: C_21  and  C_23
REMARK   11  A    between atoms: C_21  and  O_31
REMARK   12  A    between atoms: C_23  and  O_24
REMARK   13  A    between atoms: O_24  and  C_25
REMARK                            x       y       z     vdW  Elec       q    Type
REMARK                         _______ _______ _______ _____ _____    ______ ____
ROOT
ATOM      1  C   UNL     1       0.026  -7.376   1.851  0.00  0.00    +0.022 C 
ENDROOT
BRANCH   1   4
ATOM      2  C   UNL     1      -0.001  -3.913   0.764  0.00  0.00    +0.202 A 
ATOM      3  N   UNL     1      -0.105  -4.882   1.691  0.00  0.00    -0.193 NA
ATOM      4  C   UNL     1       0.068  -6.049   1.138  0.00  0.00    +0.214 A 
ATOM      5  O   UNL     1       0.290  -5.870  -0.171  0.00  0.00    -0.339 OA
ATOM      6  N   UNL     1       0.237  -4.470  -0.398  0.00  0.00    -0.056 NA
BRANCH   2  11
ATOM      7  C   UNL     1      -0.538   1.740   1.734  0.00  0.00    +0.045 C 
ATOM      8  C   UNL     1      -0.398   0.261   1.480  0.00  0.00    -0.032 A 
ATOM      9  C   UNL     1      -0.145  -0.198   0.200  0.00  0.00    +0.005 A 
ATOM     10  C   UNL     1      -0.015  -1.552  -0.038  0.00  0.00    +0.012 A 
ATOM     11  C   UNL     1      -0.139  -2.457   1.014  0.00  0.00    +0.024 A 
ATOM     12  C   UNL     1      -0.394  -1.990   2.302  0.00  0.00    +0.032 A 
ATOM     13  C   UNL     1      -0.516  -0.633   2.530  0.00  0.00    +0.045 A 
ATOM     14 CL   UNL     1      -0.827  -0.049   4.135  0.00  0.00    -0.083 Cl
ENDBRANCH   2  11
ENDBRANCH   1   4
BRANCH   1  15
ATOM     15  C   UNL     1      -1.289  -8.088   1.525  0.00  0.00    -0.022 C 
ATOM     16  C   UNL     1      -1.361  -9.405   2.301  0.00  0.00    +0.006 C 
ATOM     17  C   UNL     1      -2.465  -7.195   1.925  0.00  0.00    +0.006 C 
ENDBRANCH   1  15
BRANCH   1  18
ATOM     18  N   UNL     1       1.155  -8.206   1.408  0.00  0.00    +0.389 N 
ATOM     19  H   UNL     1       1.079  -9.124   1.820  0.00  0.00    -0.085 HD
ATOM     20  H   UNL     1       1.139  -8.286   0.402  0.00  0.00    -0.085 HD
BRANCH  18  21
ATOM     21  C   UNL     1       2.416  -7.582   1.831  0.00  0.00    -0.046 C 
BRANCH  21  22
ATOM     22  C   UNL     1       3.585  -8.499   1.466  0.00  0.00    +0.135 C 
BRANCH  22  23
ATOM     23  O   UNL     1       3.430  -9.755   2.129  0.00  0.00    -0.390 OA
ATOM     24  H   UNL     1       3.407  -9.691   3.094  0.00  0.00    +0.210 HD
ENDBRANCH  22  23
BRANCH  22  25
ATOM     25  C   UNL     1       4.899  -7.849   1.906  0.00  0.00    +0.258 C 
BRANCH  25  26
ATOM     26  O   UNL     1       5.997  -8.649   1.463  0.00  0.00    -0.489 OA
BRANCH  26  27
ATOM     27  C   UNL     1       7.245  -8.209   1.774  0.00  0.00    +0.121 A 
ATOM     28  C   UNL     1       7.409  -7.036   2.495  0.00  0.00    +0.045 A 
ATOM     29  C   UNL     1       8.678  -6.591   2.810  0.00  0.00    +0.004 A 
ATOM     30  C   UNL     1       9.785  -7.315   2.407  0.00  0.00    +0.000 A 
ATOM     31  C   UNL     1       9.625  -8.485   1.688  0.00  0.00    +0.004 A 
ATOM     32  C   UNL     1       8.357  -8.937   1.375  0.00  0.00    +0.045 A 
ENDBRANCH  26  27
ENDBRANCH  25  26
ENDBRANCH  22  25
ENDBRANCH  21  22
ENDBRANCH  18  21
ENDBRANCH   1  18
TORSDOF 10
