REMARK  Name = ZINC21605499
REMARK  8 active torsions:
REMARK  status: ('A' for Active; 'I' for Inactive)
REMARK    1  A    between atoms: C_1  and  C_2
REMARK    2  A    between atoms: C_10  and  C_11
REMARK    3  A    between atoms: C_11  and  O_13
REMARK    4  A    between atoms: O_13  and  C_14
REMARK    5  A    between atoms: C_14  and  C_16
REMARK    6  A    between atoms: C_14  and  C_17
REMARK    7  A    between atoms: N_19  and  C_20
REMARK    8  A    between atoms: C_21  and  C_28
REMARK                            x       y       z     vdW  Elec       q    Type
REMARK                         _______ _______ _______ _____ _____    ______ ____
ROOT
ATOM      1  C   UNL     1      -2.257   2.497  -3.496  0.00  0.00    +0.258 C 
ATOM      2  O   UNL     1      -3.300   3.079  -3.285  0.00  0.00    -0.271 OA
ATOM      3  N   UNL     1      -1.504   2.067  -2.463  0.00  0.00    -0.276 N 
ATOM      4  H   UNL     1      -0.558   1.540  -2.655  0.00  0.00    +0.155 HD
ENDROOT
BRANCH   3   5
ATOM      5  C   UNL     1      -1.923   2.290  -1.160  0.00  0.00    +0.084 A 
ATOM      6  C   UNL     1      -1.294   1.929   0.019  0.00  0.00    +0.068 A 
ATOM      7  C   UNL     1      -1.949   2.292   1.275  0.00  0.00    -0.023 A 
ATOM      8  C   UNL     1      -3.116   2.947   1.141  0.00  0.00    -0.004 A 
ATOM      9  S   UNL     1      -3.359   3.086  -0.613  0.00  0.00    -0.077 S 
ATOM     10  C   UNL     1      -3.727   3.290   2.473  0.00  0.00    +0.043 C 
ATOM     11  C   UNL     1      -2.568   3.137   3.483  0.00  0.00    +0.010 C 
ATOM     12  C   UNL     1      -1.659   2.119   2.766  0.00  0.00    +0.037 C 
BRANCH   6  13
ATOM     13  C   UNL     1      -0.014   1.213   0.009  0.00  0.00    +0.244 C 
ATOM     14  O   UNL     1       0.002  -0.004   0.002  0.00  0.00    -0.270 OA
ATOM     15  N   UNL     1       1.143   1.903   0.001  0.00  0.00    -0.325 N 
ATOM     16  H   UNL     1       2.103   1.366  -0.006  0.00  0.00    +0.145 HD
ATOM     17  H   UNL     1       1.129   3.002   0.003  0.00  0.00    +0.145 HD
ENDBRANCH   6  13
ENDBRANCH   3   5
BRANCH   1  18
ATOM     18  C   UNL     1      -1.803   2.255  -4.912  0.00  0.00    +0.259 C 
ATOM     19  C   UNL     1      -0.448   2.931  -5.136  0.00  0.00    +0.062 C 
BRANCH  18  20
ATOM     20  O   UNL     1      -2.778   2.808  -5.835  0.00  0.00    -0.448 OA
BRANCH  20  21
ATOM     21  C   UNL     1      -2.902   2.200  -7.032  0.00  0.00    +0.347 C 
ATOM     22  O   UNL     1      -2.214   1.233  -7.296  0.00  0.00    -0.244 OA
BRANCH  21  32
ATOM     23  C   UNL     1      -3.381   1.039  -9.793  0.00  0.00    +0.046 C 
ATOM     24  C   UNL     1      -4.132   2.233  -9.263  0.00  0.00    -0.019 A 
ATOM     25  C   UNL     1      -5.108   2.859 -10.057  0.00  0.00    +0.028 A 
ATOM     26  C   UNL     1      -5.525   2.515 -11.372  0.00  0.00    +0.132 A 
ATOM     27  C   UNL     1      -6.495   3.244 -12.009  0.00  0.00    +0.039 A 
ATOM     28  C   UNL     1      -7.102   4.334 -11.397  0.00  0.00    +0.004 A 
ATOM     29  C   UNL     1      -6.722   4.697 -10.121  0.00  0.00    +0.016 A 
ATOM     30  C   UNL     1      -5.747   3.975  -9.466  0.00  0.00    +0.023 A 
ATOM     31  S   UNL     1      -4.982   4.091  -7.869  0.00  0.00    -0.081 S 
ATOM     32  C   UNL     1      -3.868   2.704  -8.014  0.00  0.00    +0.100 A 
ATOM     33  F   UNL     1      -4.960   1.461 -11.999  0.00  0.00    -0.205 F 
ENDBRANCH  21  32
ENDBRANCH  20  21
ENDBRANCH  18  20
ENDBRANCH   1  18
TORSDOF 6
