REMARK  Name = ZINC11911572
REMARK  7 active torsions:
REMARK  status: ('A' for Active; 'I' for Inactive)
REMARK    1  A    between atoms: C_4  and  C_7
REMARK    2  A    between atoms: C_7  and  C_8
REMARK    3  A    between atoms: C_8  and  C_9
REMARK    4  A    between atoms: N_17  and  C_18
REMARK    5  A    between atoms: C_23  and  C_24
REMARK    6  A    between atoms: C_23  and  N_59
REMARK    7  A    between atoms: C_25  and  C_26
REMARK                            x       y       z     vdW  Elec       q    Type
REMARK                         _______ _______ _______ _____ _____    ______ ____
ROOT
ATOM      1  C   UNL     1       2.806  -2.130  -0.037  0.00  0.00    +0.112 A 
ATOM      2  N   UNL     1       3.346  -0.946  -0.035  0.00  0.00    -0.231 NA
ATOM      3  C   UNL     1       2.371  -0.004  -0.021  0.00  0.00    +0.108 A 
ATOM      4  C   UNL     1       2.374   1.395  -0.013  0.00  0.00    +0.033 A 
ATOM      5  C   UNL     1       1.158   2.050   0.002  0.00  0.00    +0.022 A 
ATOM      6  C   UNL     1      -0.016   1.313   0.009  0.00  0.00    +0.113 A 
ATOM      7  N   UNL     1       0.002  -0.004   0.002  0.00  0.00    -0.236 NA
ATOM      8  C   UNL     1       1.139  -0.682  -0.013  0.00  0.00    +0.161 A 
ATOM      9  N   UNL     1       1.449  -2.025  -0.023  0.00  0.00    -0.309 N 
ENDROOT
BRANCH   9  10
ATOM     10  C   UNL     1       0.493  -3.135  -0.019  0.00  0.00    +0.087 C 
ATOM     11  C   UNL     1      -0.402  -3.044  -1.258  0.00  0.00    +0.006 C 
ATOM     12  C   UNL     1      -1.438  -4.169  -1.217  0.00  0.00    -0.076 C 
ATOM     13  C   UNL     1      -1.413  -4.183   1.206  0.00  0.00    -0.076 C 
ATOM     14  C   UNL     1      -0.377  -3.057   1.238  0.00  0.00    +0.006 C 
ATOM     15  N   UNL     1      -2.259  -4.023   0.004  0.00  0.00    +0.382 N 
ATOM     16  H   UNL     1      -2.677  -3.086   0.014  0.00  0.00    -0.081 HD
BRANCH  15  17
ATOM     17  C   UNL     1      -3.339  -5.031   0.010  0.00  0.00    -0.051 C 
BRANCH  17  18
ATOM     18  C   UNL     1      -4.018  -5.034  -1.335  0.00  0.00    -0.042 C 
ATOM     19  C   UNL     1      -4.138  -6.169  -2.017  0.00  0.00    +0.040 C 
BRANCH  19  20
ATOM     20  C   UNL     1      -4.801  -6.172  -3.330  0.00  0.00    +0.127 A 
ATOM     21  C   UNL     1      -4.984  -7.259  -4.131  0.00  0.00    +0.049 A 
ATOM     22  C   UNL     1      -5.660  -6.805  -5.280  0.00  0.00    +0.042 A 
ATOM     23  C   UNL     1      -5.848  -5.479  -5.131  0.00  0.00    +0.195 A 
ATOM     24  O   UNL     1      -5.328  -5.100  -3.952  0.00  0.00    -0.464 OA
ENDBRANCH  19  20
ENDBRANCH  17  18
ENDBRANCH  15  17
ENDBRANCH   9  10
BRANCH   1  25
ATOM     25  C   UNL     1       3.571  -3.428  -0.052  0.00  0.00    +0.079 C 
BRANCH  25  26
ATOM     26  C   UNL     1       3.844  -3.876   1.385  0.00  0.00    +0.043 C 
BRANCH  26  30
ATOM     27  C   UNL     1       6.013  -7.556   1.341  0.00  0.00    +0.000 A 
ATOM     28  C   UNL     1       6.694  -6.353   1.341  0.00  0.00    +0.000 A 
ATOM     29  C   UNL     1       5.992  -5.162   1.355  0.00  0.00    +0.003 A 
ATOM     30  C   UNL     1       4.610  -5.175   1.369  0.00  0.00    -0.047 A 
ATOM     31  C   UNL     1       3.929  -6.378   1.374  0.00  0.00    +0.003 A 
ATOM     32  C   UNL     1       4.631  -7.569   1.355  0.00  0.00    +0.000 A 
ENDBRANCH  26  30
ENDBRANCH  25  26
ENDBRANCH   1  25
TORSDOF 7
