REMARK  Name = ZINC36232854
REMARK  5 active torsions:
REMARK  status: ('A' for Active; 'I' for Inactive)
REMARK    1  A    between atoms: C_1  and  C_2
REMARK    2  A    between atoms: C_2  and  C_19
REMARK    3  A    between atoms: N_4  and  C_8
REMARK    4  A    between atoms: C_11  and  N_16
REMARK    5  A    between atoms: C_13  and  C_14
REMARK                            x       y       z     vdW  Elec       q    Type
REMARK                         _______ _______ _______ _____ _____    ______ ____
ROOT
ATOM      1  C   UNL     1       0.614  -2.842  -2.192  0.00  0.00    +0.034 A 
ATOM      2  C   UNL     1      -0.695  -3.290  -2.321  0.00  0.00    +0.025 A 
ATOM      3  C   UNL     1      -1.036  -4.132  -3.361  0.00  0.00    +0.034 A 
ATOM      4  C   UNL     1      -0.075  -4.531  -4.273  0.00  0.00    +0.127 A 
ATOM      5  C   UNL     1       1.228  -4.088  -4.146  0.00  0.00    +0.039 A 
ATOM      6  C   UNL     1       1.575  -3.240  -3.112  0.00  0.00    -0.010 A 
ENDROOT
BRANCH   1  10
ATOM      7  C   UNL     1       0.275   1.611  -0.209  0.00  0.00    +0.043 C 
ATOM      8  C   UNL     1       0.145   0.088  -0.164  0.00  0.00    +0.080 C 
ATOM      9  C   UNL     1       0.948  -0.529  -1.315  0.00  0.00    +0.139 C 
ATOM     10  N   UNL     1       0.962  -1.990  -1.141  0.00  0.00    -0.325 N 
ATOM     11  C   UNL     1       1.353  -2.526   0.172  0.00  0.00    +0.133 C 
ATOM     12  C   UNL     1       0.530  -1.812   1.251  0.00  0.00    +0.179 C 
ATOM     13  O   UNL     1       0.655  -0.399   1.079  0.00  0.00    -0.371 OA
ATOM     14  C   UNL     1      -1.328  -0.304  -0.300  0.00  0.00    +0.043 C 
ENDBRANCH   1  10
BRANCH   4  15
ATOM     15  N   UNL     1      -0.444  -5.434  -5.386  0.00  0.00    +0.056 N 
ATOM     16  O   UNL     1      -1.583  -5.822  -5.497  0.00  0.00    -0.126 OA
ATOM     17  O   UNL     1       0.395  -5.783  -6.184  0.00  0.00    -0.126 OA
ENDBRANCH   4  15
BRANCH   6  18
ATOM     18  C   UNL     1       2.995  -2.753  -2.979  0.00  0.00    +0.145 C 
ATOM     19 CL   UNL     1       3.967  -3.975  -2.076  0.00  0.00    -0.120 Cl
ENDBRANCH   6  18
TORSDOF 3
