REMARK  Name = ZINC67292850
REMARK  6 active torsions:
REMARK  status: ('A' for Active; 'I' for Inactive)
REMARK    1  A    between atoms: C_1  and  S_2
REMARK    2  A    between atoms: S_2  and  C_3
REMARK    3  A    between atoms: C_7  and  N_9
REMARK    4  A    between atoms: C_11  and  C_21
REMARK    5  A    between atoms: N_23  and  C_24
REMARK    6  A    between atoms: C_24  and  C_25
REMARK                            x       y       z     vdW  Elec       q    Type
REMARK                         _______ _______ _______ _____ _____    ______ ____
ROOT
ATOM      1  N   UNL     1       1.917  -3.368  -3.355  0.00  0.00    -0.325 N 
ATOM      2  C   UNL     1       1.692  -3.762  -4.590  0.00  0.00    +0.212 A 
ATOM      3  C   UNL     1       2.003  -5.141  -5.016  0.00  0.00    +0.097 A 
ATOM      4  C   UNL     1       1.264  -5.658  -6.072  0.00  0.00    +0.030 A 
ATOM      5  C   UNL     1       0.244  -4.792  -6.667  0.00  0.00    +0.020 A 
ATOM      6  C   UNL     1      -0.716  -5.314  -7.543  0.00  0.00    +0.031 A 
ATOM      7  C   UNL     1      -1.666  -4.478  -8.087  0.00  0.00    +0.042 A 
ATOM      8  C   UNL     1      -1.676  -3.126  -7.770  0.00  0.00    +0.023 A 
ATOM      9  C   UNL     1      -0.735  -2.598  -6.909  0.00  0.00    +0.048 A 
ATOM     10  C   UNL     1       0.232  -3.421  -6.352  0.00  0.00    +0.138 A 
ATOM     11  O   UNL     1       1.162  -2.916  -5.509  0.00  0.00    -0.439 OA
ATOM     12 CL   UNL     1      -2.858  -5.119  -9.174  0.00  0.00    -0.084 Cl
ATOM     13  H   UNL     1       2.213  -4.006  -2.688  0.00  0.00    +0.169 HD
ENDROOT
BRANCH   1  18
ATOM     14  C   UNL     1       0.876  -0.397  -1.493  0.00  0.00    +0.010 A 
ATOM     15  C   UNL     1       1.362   0.607  -2.325  0.00  0.00    +0.015 A 
ATOM     16  C   UNL     1       2.029   0.282  -3.492  0.00  0.00    +0.003 A 
ATOM     17  C   UNL     1       2.216  -1.040  -3.840  0.00  0.00    +0.026 A 
ATOM     18  C   UNL     1       1.732  -2.057  -3.012  0.00  0.00    +0.043 A 
ATOM     19  C   UNL     1       1.064  -1.729  -1.831  0.00  0.00    +0.040 A 
BRANCH  14  21
ATOM     20  C   UNL     1       0.030   1.838   0.000  0.00  0.00    +0.090 C 
ATOM     21  S   UNL     1       0.028   0.024  -0.007  0.00  0.00    -0.129 S 
ENDBRANCH  14  21
ENDBRANCH   1  18
BRANCH   3  22
ATOM     22  C   UNL     1       3.052  -5.933  -4.351  0.00  0.00    +0.249 C 
ATOM     23  O   UNL     1       3.622  -5.488  -3.373  0.00  0.00    -0.270 OA
ATOM     24  N   UNL     1       3.379  -7.152  -4.825  0.00  0.00    -0.309 N 
ATOM     25  H   UNL     1       2.977  -7.476  -5.646  0.00  0.00    +0.149 HD
BRANCH  24  26
ATOM     26  C   UNL     1       4.340  -7.986  -4.100  0.00  0.00    +0.136 C 
BRANCH  26  27
ATOM     27  C   UNL     1       4.532  -9.308  -4.845  0.00  0.00    +0.135 C 
ATOM     28  C   UNL     1       5.450 -10.242  -4.027  0.00  0.00    +0.035 C 
ATOM     29  C   UNL     1       6.317 -10.903  -5.133  0.00  0.00    +0.031 C 
ATOM     30  C   UNL     1       6.441  -9.737  -6.146  0.00  0.00    +0.160 C 
ATOM     31  O   UNL     1       5.169  -9.067  -6.105  0.00  0.00    -0.375 OA
ENDBRANCH  26  27
ENDBRANCH  24  26
ENDBRANCH   3  22
TORSDOF 5
