REMARK  Name = ZINC35024119
REMARK  8 active torsions:
REMARK  status: ('A' for Active; 'I' for Inactive)
REMARK    1  A    between atoms: C_1  and  C_2
REMARK    2  A    between atoms: C_2  and  O_3
REMARK    3  A    between atoms: O_3  and  C_4
REMARK    4  A    between atoms: C_7  and  C_10
REMARK    5  A    between atoms: C_12  and  C_13
REMARK    6  A    between atoms: C_13  and  C_14
REMARK    7  A    between atoms: N_29  and  C_30
REMARK    8  A    between atoms: C_30  and  C_31
REMARK                            x       y       z     vdW  Elec       q    Type
REMARK                         _______ _______ _______ _____ _____    ______ ____
ROOT
ATOM      1  C   UNL     1       1.217  -5.458   1.625  0.00  0.00    +0.145 C 
ATOM      2  C   UNL     1       2.389  -6.317   1.212  0.00  0.00    +0.076 C 
ATOM      3  C   UNL     1       2.782  -6.998   2.314  0.00  0.00    +0.249 C 
ATOM      4  O   UNL     1       3.807  -7.880   2.367  0.00  0.00    -0.282 OA
ATOM      5  C   UNL     1       1.914  -6.624   3.450  0.00  0.00    +0.288 C 
ATOM      6  O   UNL     1       2.013  -7.065   4.578  0.00  0.00    -0.266 OA
ATOM      7  N   UNL     1       0.998  -5.723   3.051  0.00  0.00    -0.276 N 
ENDROOT
BRANCH   1  11
ATOM      8  C   UNL     1       2.139  -1.329   1.024  0.00  0.00    +0.121 A 
ATOM      9  C   UNL     1       1.315  -1.994   0.128  0.00  0.00    +0.046 A 
ATOM     10  C   UNL     1       1.019  -3.329   0.325  0.00  0.00    +0.009 A 
ATOM     11  C   UNL     1       1.543  -4.002   1.413  0.00  0.00    -0.022 A 
ATOM     12  C   UNL     1       2.364  -3.341   2.308  0.00  0.00    +0.009 A 
ATOM     13  C   UNL     1       2.668  -2.007   2.112  0.00  0.00    +0.046 A 
BRANCH   8  14
ATOM     14  O   UNL     1       2.433  -0.015   0.833  0.00  0.00    -0.492 OA
BRANCH  14  16
ATOM     15  C   UNL     1       2.294   2.084  -0.357  0.00  0.00    +0.048 C 
ATOM     16  C   UNL     1       1.853   0.619  -0.309  0.00  0.00    +0.225 C 
ENDBRANCH  14  16
ENDBRANCH   8  14
ENDBRANCH   1  11
BRANCH   2  17
ATOM     17  C   UNL     1       2.986  -6.399  -0.125  0.00  0.00    +0.195 C 
ATOM     18  O   UNL     1       4.133  -6.033  -0.302  0.00  0.00    -0.287 OA
BRANCH  17  19
ATOM     19  C   UNL     1       2.196  -6.924  -1.255  0.00  0.00    +0.026 A 
ATOM     20  C   UNL     1       0.919  -7.449  -1.034  0.00  0.00    +0.015 A 
ATOM     21  C   UNL     1       0.184  -7.939  -2.090  0.00  0.00    +0.050 A 
ATOM     22  C   UNL     1       0.707  -7.914  -3.379  0.00  0.00    +0.162 A 
ATOM     23  C   UNL     1       1.977  -7.390  -3.607  0.00  0.00    +0.163 A 
ATOM     24  C   UNL     1       2.719  -6.894  -2.551  0.00  0.00    +0.061 A 
ATOM     25  O   UNL     1       2.499  -7.351  -4.863  0.00  0.00    -0.485 OA
ATOM     26  C   UNL     1       1.880  -8.191  -5.843  0.00  0.00    +0.270 C 
ATOM     27  C   UNL     1       0.359  -8.023  -5.727  0.00  0.00    +0.270 C 
ATOM     28  O   UNL     1      -0.036  -8.406  -4.406  0.00  0.00    -0.485 OA
ENDBRANCH  17  19
ENDBRANCH   2  17
BRANCH   7  29
ATOM     29  C   UNL     1      -0.037  -5.115   3.892  0.00  0.00    +0.183 C 
BRANCH  29  30
ATOM     30  C   UNL     1      -1.283  -5.962   3.847  0.00  0.00    +0.122 A 
ATOM     31  C   UNL     1      -1.577  -6.974   4.683  0.00  0.00    +0.046 A 
ATOM     32  C   UNL     1      -2.832  -7.485   4.281  0.00  0.00    +0.041 A 
ATOM     33  C   UNL     1      -3.230  -6.755   3.224  0.00  0.00    +0.195 A 
ATOM     34  O   UNL     1      -2.290  -5.830   2.969  0.00  0.00    -0.466 OA
ENDBRANCH  29  30
ENDBRANCH   7  29
TORSDOF 7
