REMARK  Name = ZINC20115179
REMARK  11 active torsions:
REMARK  status: ('A' for Active; 'I' for Inactive)
REMARK    1  A    between atoms: C_1  and  C_2
REMARK    2  A    between atoms: C_2  and  C_3
REMARK    3  A    between atoms: C_2  and  C_4
REMARK    4  A    between atoms: C_9  and  O_10
REMARK    5  A    between atoms: O_10  and  C_11
REMARK    6  A    between atoms: C_11  and  C_12
REMARK    7  A    between atoms: N_14  and  N_15
REMARK    8  A    between atoms: C_16  and  C_17
REMARK    9  A    between atoms: C_16  and  C_18
REMARK   10  A    between atoms: C_20  and  O_25
REMARK   11  A    between atoms: C_23  and  O_24
REMARK                            x       y       z     vdW  Elec       q    Type
REMARK                         _______ _______ _______ _____ _____    ______ ____
ROOT
ATOM      1  C   UNL     1      -3.354  -2.572   2.660  0.00  0.00    +0.270 C 
ATOM      2  O   UNL     1      -3.812  -2.087   1.647  0.00  0.00    -0.270 OA
ATOM      3  N   UNL     1      -4.098  -3.419   3.399  0.00  0.00    -0.204 N 
ATOM      4  H   UNL     1      -3.731  -3.807   4.208  0.00  0.00    +0.177 HD
ENDROOT
BRANCH   3   5
ATOM      5  N   UNL     1      -5.401  -3.739   2.997  0.00  0.00    -0.184 NA
ATOM      6  C   UNL     1      -6.084  -4.626   3.654  0.00  0.00    +0.067 C 
ATOM      7  C   UNL     1      -7.434  -5.064   3.149  0.00  0.00    +0.068 C 
BRANCH   6   8
ATOM      8  C   UNL     1      -5.538  -5.205   4.894  0.00  0.00    +0.042 A 
ATOM      9  C   UNL     1      -5.346  -4.401   6.020  0.00  0.00    +0.058 A 
ATOM     10  C   UNL     1      -4.834  -4.951   7.181  0.00  0.00    +0.118 A 
ATOM     11  C   UNL     1      -4.510  -6.301   7.229  0.00  0.00    +0.049 A 
ATOM     12  C   UNL     1      -4.696  -7.103   6.120  0.00  0.00    +0.049 A 
ATOM     13  C   UNL     1      -5.214  -6.567   4.952  0.00  0.00    +0.126 A 
BRANCH  13  14
ATOM     14  O   UNL     1      -5.402  -7.359   3.864  0.00  0.00    -0.506 OA
ATOM     15  H   UNL     1      -4.666  -7.346   3.236  0.00  0.00    +0.292 HD
ENDBRANCH  13  14
BRANCH  10  16
ATOM     16  O   UNL     1      -4.646  -4.169   8.277  0.00  0.00    -0.507 OA
ATOM     17  H   UNL     1      -5.411  -4.129   8.867  0.00  0.00    +0.292 HD
ENDBRANCH  10  16
ENDBRANCH   6   8
ENDBRANCH   3   5
BRANCH   1  18
ATOM     18  C   UNL     1      -1.952  -2.228   3.092  0.00  0.00    +0.326 C 
BRANCH  18  19
ATOM     19  O   UNL     1      -1.373  -1.319   2.154  0.00  0.00    -0.482 OA
BRANCH  19  25
ATOM     20  C   UNL     1       0.521  -0.024   1.527  0.00  0.00    -0.003 A 
ATOM     21  C   UNL     1       1.812   0.400   1.781  0.00  0.00    +0.007 A 
ATOM     22  C   UNL     1       2.484  -0.059   2.899  0.00  0.00    +0.001 A 
ATOM     23  C   UNL     1       1.867  -0.943   3.765  0.00  0.00    +0.004 A 
ATOM     24  C   UNL     1       0.577  -1.369   3.516  0.00  0.00    +0.046 A 
ATOM     25  C   UNL     1      -0.102  -0.906   2.398  0.00  0.00    +0.125 A 
BRANCH  20  27
ATOM     26  C   UNL     1      -0.323   2.001   0.372  0.00  0.00    +0.012 C 
ATOM     27  C   UNL     1      -0.211   0.477   0.309  0.00  0.00    +0.016 C 
ATOM     28  C   UNL     1       0.559   0.074  -0.950  0.00  0.00    +0.012 C 
ENDBRANCH  20  27
ENDBRANCH  19  25
ENDBRANCH  18  19
ENDBRANCH   1  18
TORSDOF 8
