REMARK  Name = ZINC39684673
REMARK  9 active torsions:
REMARK  status: ('A' for Active; 'I' for Inactive)
REMARK    1  A    between atoms: C_1  and  C_2
REMARK    2  A    between atoms: C_2  and  C_4
REMARK    3  A    between atoms: C_2  and  N_8
REMARK    4  A    between atoms: C_4  and  C_5
REMARK    5  A    between atoms: C_4  and  C_6
REMARK    6  A    between atoms: C_4  and  C_7
REMARK    7  A    between atoms: C_9  and  C_11
REMARK    8  A    between atoms: C_22  and  C_24
REMARK    9  A    between atoms: C_27  and  C_29
REMARK                            x       y       z     vdW  Elec       q    Type
REMARK                         _______ _______ _______ _____ _____    ______ ____
ROOT
ATOM      1  C   UNL     1      -3.465  -1.164  -1.134  0.00  0.00    +0.100 C 
ATOM      2  C   UNL     1      -4.361  -0.271  -0.248  0.00  0.00    +0.121 C 
ATOM      3  N   UNL     1      -4.986   0.686  -1.192  0.00  0.00    -0.294 N 
ATOM      4  C   UNL     1      -5.291  -0.128  -2.393  0.00  0.00    +0.115 C 
ATOM      5  C   UNL     1      -4.080  -1.071  -2.540  0.00  0.00    -0.004 C 
ATOM      6  C   UNL     1      -4.538  -2.449  -3.009  0.00  0.00    -0.010 C 
ATOM      7  C   UNL     1      -5.093  -2.341  -4.432  0.00  0.00    -0.082 C 
ATOM      8  N   UNL     1      -4.053  -1.817  -5.326  0.00  0.00    +0.379 N 
ATOM      9  C   UNL     1      -3.685  -0.455  -4.923  0.00  0.00    -0.082 C 
ATOM     10  C   UNL     1      -3.071  -0.483  -3.521  0.00  0.00    -0.010 C 
ATOM     11  C   UNL     1      -5.223   1.999  -1.002  0.00  0.00    +0.282 C 
ATOM     12  O   UNL     1      -5.749   2.656  -1.881  0.00  0.00    -0.267 OA
ATOM     13  H   UNL     1      -3.240  -2.412  -5.278  0.00  0.00    -0.086 HD
ATOM     14  H   UNL     1      -4.401  -1.804  -6.273  0.00  0.00    -0.086 HD
ENDROOT
BRANCH  11  15
ATOM     15  C   UNL     1      -4.848   2.635   0.264  0.00  0.00    +0.190 A 
ATOM     16  C   UNL     1      -5.038   3.960   0.590  0.00  0.00    +0.055 A 
ATOM     17  C   UNL     1      -4.537   4.132   1.884  0.00  0.00    +0.050 A 
ATOM     18  C   UNL     1      -4.064   2.919   2.296  0.00  0.00    +0.136 A 
ATOM     19  O   UNL     1      -4.262   2.024   1.315  0.00  0.00    -0.450 OA
BRANCH  18  20
ATOM     20  C   UNL     1      -3.443   2.637   3.606  0.00  0.00    +0.017 A 
ATOM     21  C   UNL     1      -3.304   3.658   4.550  0.00  0.00    +0.014 A 
ATOM     22  C   UNL     1      -2.724   3.389   5.772  0.00  0.00    +0.039 A 
ATOM     23  C   UNL     1      -2.280   2.108   6.064  0.00  0.00    +0.123 A 
ATOM     24  C   UNL     1      -2.415   1.092   5.131  0.00  0.00    +0.039 A 
ATOM     25  C   UNL     1      -2.998   1.348   3.908  0.00  0.00    +0.014 A 
ATOM     26  F   UNL     1      -1.712   1.850   7.263  0.00  0.00    -0.205 F 
ENDBRANCH  18  20
ENDBRANCH  11  15
BRANCH   1  28
ATOM     27  N   UNL     1      -1.020  -1.493  -1.323  0.00  0.00    -0.312 N 
ATOM     28  C   UNL     1      -2.051  -0.643  -1.145  0.00  0.00    +0.218 C 
ATOM     29  O   UNL     1      -1.840   0.542  -0.993  0.00  0.00    -0.275 OA
ATOM     30  H   UNL     1      -1.188  -2.440  -1.444  0.00  0.00    +0.149 HD
BRANCH  27  32
ATOM     31  C   UNL     1       0.873  -0.889   0.103  0.00  0.00    +0.028 C 
ATOM     32  C   UNL     1       0.354  -0.986  -1.333  0.00  0.00    +0.075 C 
BRANCH  32  33
ATOM     33  C   UNL     1       1.244  -1.939  -2.133  0.00  0.00    -0.020 C 
ATOM     34  C   UNL     1       1.216  -3.326  -1.487  0.00  0.00    +0.012 C 
ATOM     35  C   UNL     1       0.725  -2.036  -3.569  0.00  0.00    +0.012 C 
ATOM     36  C   UNL     1       2.679  -1.410  -2.144  0.00  0.00    +0.012 C 
ENDBRANCH  32  33
ENDBRANCH  27  32
ENDBRANCH   1  28
TORSDOF 5
