REMARK  Name = ZINC05397721
REMARK  6 active torsions:
REMARK  status: ('A' for Active; 'I' for Inactive)
REMARK    1  A    between atoms: C_1  and  N_2
REMARK    2  A    between atoms: N_2  and  C_3
REMARK    3  A    between atoms: N_2  and  C_4
REMARK    4  A    between atoms: C_7  and  C_10
REMARK    5  A    between atoms: C_10  and  N_56
REMARK    6  A    between atoms: C_19  and  C_26
REMARK                            x       y       z     vdW  Elec       q    Type
REMARK                         _______ _______ _______ _____ _____    ______ ____
ROOT
ATOM      1  C   UNL     1      -0.875   3.113   1.252  0.00  0.00    -0.073 C 
ATOM      2  C   UNL     1      -0.774   1.595   1.278  0.00  0.00    -0.007 C 
ATOM      3  C   UNL     1      -0.047   1.076   0.035  0.00  0.00    +0.011 C 
ATOM      4  C   UNL     1      -0.807   1.591  -1.194  0.00  0.00    +0.020 C 
ATOM      5  C   UNL     1      -0.765   3.128  -1.168  0.00  0.00    -0.069 C 
ATOM      6  C   UNL     1      -2.257   1.174  -1.092  0.00  0.00    +0.032 A 
ATOM      7  C   UNL     1      -2.965   1.027  -2.268  0.00  0.00    +0.009 A 
ATOM      8  C   UNL     1      -4.335   0.694  -2.233  0.00  0.00    +0.016 A 
ATOM      9  C   UNL     1      -4.945   0.557  -1.024  0.00  0.00    +0.071 A 
ATOM     10  C   UNL     1      -4.195   0.721   0.149  0.00  0.00    +0.252 A 
ATOM     11  O   UNL     1      -4.753   0.650   1.232  0.00  0.00    -0.268 OA
ATOM     12  N   UNL     1      -2.860   0.955   0.101  0.00  0.00    -0.311 N 
ATOM     13  C   UNL     1      -2.140   0.938   1.375  0.00  0.00    +0.126 C 
ATOM     14  N   UNL     1      -1.538   3.571   0.015  0.00  0.00    +0.383 N 
ATOM     15  H   UNL     1      -2.479   3.163  -0.030  0.00  0.00    -0.081 HD
ENDROOT
BRANCH   7  16
ATOM     16  C   UNL     1      -2.284   1.220  -3.567  0.00  0.00    +0.021 A 
ATOM     17  C   UNL     1      -2.039   0.306  -4.556  0.00  0.00    +0.016 A 
ATOM     18  C   UNL     1      -1.383   0.723  -5.695  0.00  0.00    +0.008 A 
ATOM     19  C   UNL     1      -0.992   2.018  -5.796  0.00  0.00    +0.046 A 
ATOM     20  S   UNL     1      -1.561   2.703  -4.248  0.00  0.00    -0.097 S 
ENDBRANCH   7  16
BRANCH  14  21
ATOM     21  C   UNL     1      -1.654   5.043   0.020  0.00  0.00    -0.043 C 
BRANCH  21  25
ATOM     22  C   UNL     1      -4.125   6.240  -3.256  0.00  0.00    +0.029 A 
ATOM     23  C   UNL     1      -4.696   5.948  -2.024  0.00  0.00    +0.023 A 
ATOM     24  C   UNL     1      -3.895   5.561  -0.967  0.00  0.00    +0.003 A 
ATOM     25  C   UNL     1      -2.526   5.465  -1.135  0.00  0.00    -0.064 A 
ATOM     26  C   UNL     1      -1.953   5.761  -2.359  0.00  0.00    +0.003 A 
ATOM     27  C   UNL     1      -2.749   6.143  -3.421  0.00  0.00    +0.023 A 
BRANCH  22  29
ATOM     28  C   UNL     1      -6.391   6.614  -4.188  0.00  0.00    +0.129 C 
ATOM     29  N   UNL     1      -4.933   6.632  -4.326  0.00  0.00    -0.336 N 
ATOM     30  C   UNL     1      -4.321   7.060  -5.587  0.00  0.00    +0.129 C 
ENDBRANCH  22  29
ENDBRANCH  21  25
ENDBRANCH  14  21
TORSDOF 4
