REMARK  Name = ZINC10450657
REMARK  10 active torsions:
REMARK  status: ('A' for Active; 'I' for Inactive)
REMARK    1  A    between atoms: C_1  and  C_2
REMARK    2  A    between atoms: C_2  and  C_4
REMARK    3  A    between atoms: C_2  and  O_24
REMARK    4  A    between atoms: N_6  and  N_7
REMARK    5  A    between atoms: N_7  and  C_8
REMARK    6  A    between atoms: C_8  and  N_10
REMARK    7  A    between atoms: C_11  and  C_13
REMARK    8  A    between atoms: C_14  and  C_15
REMARK    9  A    between atoms: C_19  and  N_21
REMARK   10  A    between atoms: O_24  and  C_25
REMARK                            x       y       z     vdW  Elec       q    Type
REMARK                         _______ _______ _______ _____ _____    ______ ____
ROOT
ATOM      1  N   UNL     1      -3.674  -0.350  -0.761  0.00  0.00    -0.245 N 
ATOM      2  H   UNL     1      -4.015  -0.733   0.062  0.00  0.00    +0.172 HD
ENDROOT
BRANCH   1   5
ATOM      3  C   UNL     1      -1.469  -0.321   0.135  0.00  0.00    +0.270 C 
ATOM      4  O   UNL     1      -1.895  -0.800   1.165  0.00  0.00    -0.270 OA
ATOM      5  N   UNL     1      -2.309  -0.064  -0.887  0.00  0.00    -0.232 N 
ATOM      6  H   UNL     1      -1.968   0.320  -1.710  0.00  0.00    +0.173 HD
BRANCH   3   8
ATOM      7  C   UNL     1       0.193   1.499  -0.139  0.00  0.00    +0.062 C 
ATOM      8  C   UNL     1       0.000  -0.013  -0.000  0.00  0.00    +0.257 C 
BRANCH   8   9
ATOM      9  O   UNL     1       0.693  -0.477   1.160  0.00  0.00    -0.478 OA
BRANCH   9  10
ATOM     10  C   UNL     1       2.014  -0.764   1.016  0.00  0.00    +0.140 A 
ATOM     11  C   UNL     1       2.656  -0.496  -0.184  0.00  0.00    +0.048 A 
ATOM     12  C   UNL     1       3.999  -0.788  -0.329  0.00  0.00    +0.023 A 
ATOM     13  C   UNL     1       4.704  -1.347   0.722  0.00  0.00    +0.043 A 
ATOM     14  C   UNL     1       4.066  -1.616   1.920  0.00  0.00    +0.043 A 
ATOM     15  C   UNL     1       2.724  -1.320   2.071  0.00  0.00    +0.084 A 
ATOM     16 CL   UNL     1       1.925  -1.651   3.576  0.00  0.00    -0.080 Cl
ATOM     17 CL   UNL     1       6.391  -1.714   0.537  0.00  0.00    -0.083 Cl
ENDBRANCH   9  10
ENDBRANCH   8   9
ENDBRANCH   3   8
ENDBRANCH   1   5
BRANCH   1  18
ATOM     18  C   UNL     1      -4.514  -0.093  -1.783  0.00  0.00    +0.153 C 
ATOM     19  S   UNL     1      -6.183  -0.443  -1.629  0.00  0.00    -0.017 S 
BRANCH  18  20
ATOM     20  N   UNL     1      -4.040   0.440  -2.927  0.00  0.00    -0.263 N 
ATOM     21  C   UNL     1      -4.880   0.697  -3.949  0.00  0.00    +0.242 C 
ATOM     22  O   UNL     1      -6.066   0.449  -3.840  0.00  0.00    -0.270 OA
ATOM     23  H   UNL     1      -3.095   0.638  -3.014  0.00  0.00    +0.157 HD
BRANCH  21  24
ATOM     24  C   UNL     1      -4.365   1.276  -5.191  0.00  0.00    +0.068 C 
ATOM     25  C   UNL     1      -5.206   1.533  -6.214  0.00  0.00    +0.013 C 
BRANCH  25  26
ATOM     26  C   UNL     1      -4.688   2.115  -7.463  0.00  0.00    -0.023 A 
ATOM     27  C   UNL     1      -3.324   2.397  -7.595  0.00  0.00    +0.008 A 
ATOM     28  C   UNL     1      -2.847   2.942  -8.768  0.00  0.00    +0.003 A 
ATOM     29  C   UNL     1      -3.714   3.211  -9.813  0.00  0.00    +0.033 A 
ATOM     30  C   UNL     1      -5.064   2.934  -9.690  0.00  0.00    +0.127 A 
ATOM     31  C   UNL     1      -5.556   2.384  -8.526  0.00  0.00    +0.040 A 
BRANCH  30  32
ATOM     32  N   UNL     1      -5.982   3.226 -10.814  0.00  0.00    +0.056 N 
ATOM     33  O   UNL     1      -5.552   3.705 -11.838  0.00  0.00    -0.126 OA
ATOM     34  O   UNL     1      -7.162   2.985 -10.709  0.00  0.00    -0.126 OA
ENDBRANCH  30  32
ENDBRANCH  25  26
ENDBRANCH  21  24
ENDBRANCH  18  20
ENDBRANCH   1  18
TORSDOF 9
