REMARK  Name = ZINC23193760
REMARK  8 active torsions:
REMARK  status: ('A' for Active; 'I' for Inactive)
REMARK    1  A    between atoms: C_4  and  N_7
REMARK    2  A    between atoms: N_10  and  C_13
REMARK    3  A    between atoms: C_13  and  C_14
REMARK    4  A    between atoms: C_14  and  N_15
REMARK    5  A    between atoms: C_16  and  C_18
REMARK    6  A    between atoms: C_19  and  C_20
REMARK    7  A    between atoms: C_23  and  S_26
REMARK    8  A    between atoms: S_26  and  N_29
REMARK                            x       y       z     vdW  Elec       q    Type
REMARK                         _______ _______ _______ _____ _____    ______ ____
ROOT
ATOM      1  N   UNL     1      -0.397   0.859  -4.832  0.00  0.00    -0.314 N 
ATOM      2  C   UNL     1      -1.018   1.024  -6.017  0.00  0.00    +0.237 C 
ATOM      3  O   UNL     1      -2.088   1.600  -6.068  0.00  0.00    -0.271 OA
ATOM      4  H   UNL     1       0.570   0.338  -4.786  0.00  0.00    +0.149 HD
ENDROOT
BRANCH   2   5
ATOM      5  C   UNL     1      -0.404   0.509  -7.243  0.00  0.00    +0.068 C 
ATOM      6  C   UNL     1      -1.025   0.674  -8.428  0.00  0.00    +0.013 C 
BRANCH   6   7
ATOM      7  C   UNL     1      -0.408   0.156  -9.660  0.00  0.00    -0.025 A 
ATOM      8  C   UNL     1       0.824  -0.502  -9.607  0.00  0.00    +0.010 A 
ATOM      9  C   UNL     1       1.394  -0.987 -10.765  0.00  0.00    +0.029 A 
ATOM     10  C   UNL     1       0.753  -0.816 -11.980  0.00  0.00    +0.106 A 
ATOM     11  C   UNL     1      -0.465  -0.162 -12.042  0.00  0.00    +0.029 A 
ATOM     12  C   UNL     1      -1.049   0.325 -10.892  0.00  0.00    +0.010 A 
BRANCH  10  13
ATOM     13  S   UNL     1       1.492  -1.435 -13.455  0.00  0.00    +0.061 S 
ATOM     14  O   UNL     1       2.365  -2.485 -13.062  0.00  0.00    -0.153 OA
ATOM     15  O   UNL     1       0.437  -1.629 -14.387  0.00  0.00    -0.153 OA
BRANCH  13  16
ATOM     16  N   UNL     1       2.448  -0.229 -14.066  0.00  0.00    -0.177 NA
ATOM     17  C   UNL     1       1.867   0.709 -15.002  0.00  0.00    +0.109 C 
ATOM     18  C   UNL     1       2.020   0.177 -16.442  0.00  0.00    +0.017 C 
ATOM     19  C   UNL     1       3.427   0.250 -16.866  0.00  0.00    +0.001 C 
ATOM     20  C   UNL     1       4.378  -0.612 -16.040  0.00  0.00    +0.001 C 
ATOM     21  C   UNL     1       4.806   0.152 -14.812  0.00  0.00    +0.017 C 
ATOM     22  C   UNL     1       3.859  -0.159 -13.639  0.00  0.00    +0.109 C 
ENDBRANCH  13  16
ENDBRANCH  10  13
ENDBRANCH   6   7
ENDBRANCH   2   5
BRANCH   1  23
ATOM     23  C   UNL     1      -1.011   1.374  -3.606  0.00  0.00    +0.086 C 
BRANCH  23  24
ATOM     24  C   UNL     1      -0.109   1.057  -2.412  0.00  0.00    -0.060 C 
BRANCH  24  28
ATOM     25  N   UNL     1      -0.783   3.048   1.252  0.00  0.00    -0.333 N 
ATOM     26  C   UNL     1      -0.730   1.580   1.267  0.00  0.00    +0.086 C 
ATOM     27  C   UNL     1      -0.013   1.086   0.008  0.00  0.00    -0.060 C 
ATOM     28  N   UNL     1      -0.724   1.573  -1.182  0.00  0.00    +0.383 N 
ATOM     29  C   UNL     1      -0.777   3.042  -1.196  0.00  0.00    -0.060 C 
ATOM     30  C   UNL     1      -1.495   3.536   0.062  0.00  0.00    +0.086 C 
ATOM     31  H   UNL     1      -1.757   1.196  -1.138  0.00  0.00    -0.082 HD
BRANCH  25  35
ATOM     32  C   UNL     1      -2.527   4.513   4.738  0.00  0.00    +0.000 A 
ATOM     33  C   UNL     1      -1.424   3.683   4.815  0.00  0.00    +0.002 A 
ATOM     34  C   UNL     1      -0.843   3.195   3.661  0.00  0.00    +0.023 A 
ATOM     35  C   UNL     1      -1.369   3.539   2.422  0.00  0.00    +0.030 A 
ATOM     36  C   UNL     1      -2.474   4.378   2.348  0.00  0.00    +0.023 A 
ATOM     37  C   UNL     1      -3.053   4.858   3.506  0.00  0.00    +0.002 A 
ENDBRANCH  25  35
ENDBRANCH  24  28
ENDBRANCH  23  24
ENDBRANCH   1  23
TORSDOF 8
