REMARK  Name = ZINC03165694
REMARK  10 active torsions:
REMARK  status: ('A' for Active; 'I' for Inactive)
REMARK    1  A    between atoms: C_1  and  C_2
REMARK    2  A    between atoms: C_5  and  S_8
REMARK    3  A    between atoms: S_8  and  C_11
REMARK    4  A    between atoms: N_22  and  C_25
REMARK    5  A    between atoms: C_23  and  N_24
REMARK    6  A    between atoms: C_25  and  C_26
REMARK    7  A    between atoms: C_26  and  C_27
REMARK    8  A    between atoms: C_27  and  O_28
REMARK    9  A    between atoms: O_28  and  C_29
REMARK   10  A    between atoms: C_29  and  C_31
REMARK                            x       y       z     vdW  Elec       q    Type
REMARK                         _______ _______ _______ _____ _____    ______ ____
ROOT
ATOM      1  C   UNL     1      -2.001   2.483   1.708  0.00  0.00    +0.160 A 
ATOM      2  C   UNL     1      -2.776   1.602   2.499  0.00  0.00    +0.135 A 
ATOM      3  C   UNL     1      -2.875   2.231   3.823  0.00  0.00    +0.163 A 
ATOM      4  N   UNL     1      -3.544   1.629   4.781  0.00  0.00    -0.226 NA
ATOM      5  C   UNL     1      -4.138   0.453   4.542  0.00  0.00    +0.092 A 
ATOM      6  C   UNL     1      -4.861  -0.195   5.560  0.00  0.00    +0.030 A 
ATOM      7  C   UNL     1      -5.455  -1.393   5.311  0.00  0.00    +0.002 A 
ATOM      8  C   UNL     1      -5.360  -1.994   4.057  0.00  0.00    +0.002 A 
ATOM      9  C   UNL     1      -4.671  -1.398   3.048  0.00  0.00    +0.030 A 
ATOM     10  C   UNL     1      -4.042  -0.158   3.266  0.00  0.00    +0.090 A 
ATOM     11  N   UNL     1      -3.362   0.436   2.279  0.00  0.00    -0.240 NA
ATOM     12  N   UNL     1      -2.180   3.419   3.739  0.00  0.00    -0.311 N 
ATOM     13  C   UNL     1      -1.668   3.550   2.472  0.00  0.00    +0.126 A 
ENDROOT
BRANCH   1  14
ATOM     14  S   UNL     1      -1.554   2.238   0.022  0.00  0.00    +0.030 S 
ATOM     15  O   UNL     1      -1.304   3.526  -0.523  0.00  0.00    -0.164 OA
ATOM     16  O   UNL     1      -2.519   1.353  -0.529  0.00  0.00    -0.164 OA
BRANCH  14  21
ATOM     17  C   UNL     1       3.711  -0.707  -0.037  0.00  0.00    +0.044 C 
ATOM     18  C   UNL     1       2.396   0.029  -0.021  0.00  0.00    -0.050 A 
ATOM     19  C   UNL     1       1.208  -0.679  -0.013  0.00  0.00    +0.005 A 
ATOM     20  C   UNL     1       0.002  -0.004   0.002  0.00  0.00    +0.027 A 
ATOM     21  C   UNL     1      -0.017   1.378   0.010  0.00  0.00    +0.094 A 
ATOM     22  C   UNL     1       1.171   2.086   0.002  0.00  0.00    +0.027 A 
ATOM     23  C   UNL     1       2.377   1.411  -0.015  0.00  0.00    +0.005 A 
ENDBRANCH  14  21
ENDBRANCH   1  14
BRANCH  13  24
ATOM     24  N   UNL     1      -0.914   4.625   2.036  0.00  0.00    -0.343 N 
ATOM     25  H   UNL     1      -0.585   4.649   1.124  0.00  0.00    +0.144 HD
ATOM     26  H   UNL     1      -0.715   5.355   2.643  0.00  0.00    +0.144 HD
ENDBRANCH  13  24
BRANCH  12  27
ATOM     27  C   UNL     1      -2.015   4.386   4.827  0.00  0.00    +0.128 C 
BRANCH  27  28
ATOM     28  C   UNL     1      -3.163   5.397   4.788  0.00  0.00    +0.063 C 
BRANCH  28  29
ATOM     29  C   UNL     1      -2.991   6.407   5.924  0.00  0.00    +0.234 C 
BRANCH  29  30
ATOM     30  O   UNL     1      -4.080   7.367   5.888  0.00  0.00    -0.461 OA
BRANCH  30  31
ATOM     31  C   UNL     1      -4.077   8.332   6.830  0.00  0.00    +0.346 C 
ATOM     32  O   UNL     1      -3.188   8.370   7.659  0.00  0.00    -0.244 OA
BRANCH  31  33
ATOM     33  C   UNL     1      -5.144   9.335   6.854  0.00  0.00    +0.096 A 
ATOM     34  C   UNL     1      -5.329  10.394   7.730  0.00  0.00    +0.022 A 
ATOM     35  C   UNL     1      -6.425  11.192   7.522  0.00  0.00    +0.008 A 
ATOM     36  C   UNL     1      -7.268  10.908   6.495  0.00  0.00    +0.046 A 
ATOM     37  S   UNL     1      -6.550   9.507   5.769  0.00  0.00    -0.090 S 
ENDBRANCH  31  33
ENDBRANCH  30  31
ENDBRANCH  29  30
ENDBRANCH  28  29
ENDBRANCH  27  28
ENDBRANCH  12  27
TORSDOF 9
