REMARK  Name = ZINC14475351
REMARK  4 active torsions:
REMARK  status: ('A' for Active; 'I' for Inactive)
REMARK    1  A    between atoms: C_1  and  N_2
REMARK    2  A    between atoms: N_2  and  C_3
REMARK    3  A    between atoms: C_9  and  C_11
REMARK    4  A    between atoms: C_18  and  C_27
REMARK                            x       y       z     vdW  Elec       q    Type
REMARK                         _______ _______ _______ _____ _____    ______ ____
ROOT
ATOM      1  C   UNL     1       0.259  -0.556  -6.019  0.00  0.00    +0.058 A 
ATOM      2  C   UNL     1       1.389  -0.676  -6.830  0.00  0.00    +0.015 A 
ATOM      3  C   UNL     1       1.366  -1.537  -7.905  0.00  0.00    +0.001 A 
ATOM      4  C   UNL     1       0.232  -2.279  -8.180  0.00  0.00    +0.006 A 
ATOM      5  C   UNL     1      -0.901  -2.174  -7.386  0.00  0.00    -0.019 A 
ATOM      6  C   UNL     1      -0.893  -1.316  -6.299  0.00  0.00    +0.044 A 
ATOM      7  N   UNL     1      -1.995  -1.155  -5.474  0.00  0.00    -0.336 N 
ATOM      8  C   UNL     1      -2.850  -2.342  -5.458  0.00  0.00    +0.105 C 
ATOM      9  C   UNL     1      -3.319  -2.651  -6.881  0.00  0.00    +0.029 C 
ATOM     10  C   UNL     1      -2.092  -3.014  -7.744  0.00  0.00    +0.049 C 
ATOM     11  C   UNL     1      -1.832  -4.468  -7.424  0.00  0.00    -0.023 C 
ATOM     12  C   UNL     1      -2.908  -5.028  -6.929  0.00  0.00    -0.030 C 
ATOM     13  C   UNL     1      -4.043  -4.026  -6.857  0.00  0.00    +0.033 C 
ATOM     14  H   UNL     1      -2.522  -0.333  -5.725  0.00  0.00    +0.147 HD
ENDROOT
BRANCH   8  15
ATOM     15  C   UNL     1      -2.072  -3.515  -4.920  0.00  0.00    -0.026 A 
ATOM     16  C   UNL     1      -2.756  -4.637  -4.454  0.00  0.00    +0.006 A 
ATOM     17  C   UNL     1      -2.083  -5.713  -3.962  0.00  0.00    +0.009 A 
ATOM     18  C   UNL     1      -0.678  -5.696  -3.921  0.00  0.00    -0.018 A 
ATOM     19  C   UNL     1       0.050  -6.789  -3.421  0.00  0.00    +0.008 A 
ATOM     20  C   UNL     1       1.410  -6.737  -3.397  0.00  0.00    +0.001 A 
ATOM     21  C   UNL     1       2.094  -5.615  -3.863  0.00  0.00    +0.001 A 
ATOM     22  C   UNL     1       1.421  -4.538  -4.354  0.00  0.00    +0.008 A 
ATOM     23  C   UNL     1       0.017  -4.556  -4.394  0.00  0.00    -0.018 A 
ATOM     24  C   UNL     1      -0.712  -3.466  -4.901  0.00  0.00    +0.014 A 
ENDBRANCH   8  15
BRANCH   1  27
ATOM     25  C   UNL     1       1.237   2.072  -6.311  0.00  0.00    +0.132 C 
ATOM     26  N   UNL     1       0.698   1.633  -5.022  0.00  0.00    -0.297 N 
ATOM     27  C   UNL     1       0.275   0.363  -4.866  0.00  0.00    +0.248 C 
ATOM     28  O   UNL     1      -0.095  -0.026  -3.775  0.00  0.00    -0.270 OA
BRANCH  26  29
ATOM     29  C   UNL     1       0.618   2.574  -3.902  0.00  0.00    +0.076 C 
ATOM     30  C   UNL     1       2.021   3.081  -3.562  0.00  0.00    +0.022 C 
ATOM     31  C   UNL     1       1.938   4.064  -2.392  0.00  0.00    +0.002 C 
ATOM     32  C   UNL     1       1.048   5.246  -2.781  0.00  0.00    +0.000 C 
ATOM     33  C   UNL     1      -0.354   4.739  -3.121  0.00  0.00    +0.002 C 
ATOM     34  C   UNL     1      -0.271   3.756  -4.291  0.00  0.00    +0.022 C 
ENDBRANCH  26  29
ENDBRANCH   1  27
TORSDOF 3
