REMARK  Name = ZINC36795933
REMARK  11 active torsions:
REMARK  status: ('A' for Active; 'I' for Inactive)
REMARK    1  A    between atoms: C_1  and  C_2
REMARK    2  A    between atoms: C_3  and  C_31
REMARK    3  A    between atoms: C_5  and  N_11
REMARK    4  A    between atoms: C_6  and  C_7
REMARK    5  A    between atoms: C_7  and  O_9
REMARK    6  A    between atoms: O_9  and  C_10
REMARK    7  A    between atoms: C_12  and  C_14
REMARK    8  A    between atoms: C_14  and  N_15
REMARK    9  A    between atoms: C_18  and  C_22
REMARK   10  A    between atoms: C_18  and  C_23
REMARK   11  A    between atoms: C_26  and  C_29
REMARK                            x       y       z     vdW  Elec       q    Type
REMARK                         _______ _______ _______ _____ _____    ______ ____
ROOT
ATOM      1  N   UNL     1       0.108  -6.805   2.244  0.00  0.00    -0.215 N 
ATOM      2  C   UNL     1      -0.998  -7.508   1.931  0.00  0.00    +0.251 C 
ATOM      3  O   UNL     1      -2.151  -7.169   2.091  0.00  0.00    -0.272 OA
ATOM      4  C   UNL     1      -0.501  -8.812   1.338  0.00  0.00    +0.135 C 
ATOM      5  N   UNL     1       0.965  -8.679   1.390  0.00  0.00    -0.281 N 
ATOM      6  C   UNL     1       1.223  -7.474   1.929  0.00  0.00    +0.310 C 
ATOM      7  O   UNL     1       2.345  -7.042   2.112  0.00  0.00    -0.252 OA
ATOM      8  C   UNL     1      -0.978  -8.961  -0.108  0.00  0.00    +0.047 C 
ATOM      9  H   UNL     1       1.617  -9.332   1.091  0.00  0.00    +0.152 HD
ENDROOT
BRANCH   4  10
ATOM     10  C   UNL     1      -0.957  -9.982   2.172  0.00  0.00    -0.015 A 
ATOM     11  C   UNL     1      -2.150  -9.907   2.869  0.00  0.00    +0.007 A 
ATOM     12  C   UNL     1      -2.574 -10.974   3.634  0.00  0.00    +0.019 A 
ATOM     13  C   UNL     1      -1.796 -12.131   3.704  0.00  0.00    +0.052 A 
ATOM     14  C   UNL     1      -0.593 -12.200   2.997  0.00  0.00    +0.019 A 
ATOM     15  C   UNL     1      -0.184 -11.127   2.232  0.00  0.00    +0.007 A 
BRANCH  13  16
ATOM     16  C   UNL     1      -2.229 -13.242   4.496  0.00  0.00    +0.099 C 
ATOM     17  N   UNL     1      -2.572 -14.124   5.125  0.00  0.00    -0.191 NA
ENDBRANCH  13  16
ENDBRANCH   4  10
BRANCH   1  18
ATOM     18  C   UNL     1       0.092  -5.470   2.847  0.00  0.00    +0.214 C 
BRANCH  18  20
ATOM     19  N   UNL     1       0.055  -3.118   2.081  0.00  0.00    -0.278 N 
ATOM     20  C   UNL     1       0.072  -4.427   1.760  0.00  0.00    +0.236 C 
ATOM     21  O   UNL     1       0.072  -4.765   0.595  0.00  0.00    -0.274 OA
ATOM     22  H   UNL     1       0.055  -2.848   3.013  0.00  0.00    +0.155 HD
BRANCH  19  27
ATOM     23  C   UNL     1      -0.018   1.503   0.010  0.00  0.00    +0.045 C 
ATOM     24  C   UNL     1       0.002  -0.004   0.002  0.00  0.00    -0.025 A 
ATOM     25  C   UNL     1       0.007  -0.712  -1.142  0.00  0.00    -0.008 A 
ATOM     26  S   UNL     1       0.033  -2.400  -0.580  0.00  0.00    -0.078 S 
ATOM     27  C   UNL     1       0.037  -2.159   1.081  0.00  0.00    +0.086 A 
ATOM     28  C   UNL     1       0.024  -0.778   1.223  0.00  0.00    +0.091 A 
ATOM     29  C   UNL     1      -0.007  -0.199  -2.559  0.00  0.00    +0.052 C 
BRANCH  28  30
ATOM     30  C   UNL     1       0.028  -0.139   2.540  0.00  0.00    +0.342 C 
ATOM     31  O   UNL     1      -1.024   0.112   3.097  0.00  0.00    -0.245 OA
BRANCH  30  32
ATOM     32  O   UNL     1       1.198   0.171   3.136  0.00  0.00    -0.464 OA
ATOM     33  C   UNL     1       1.127   0.793   4.420  0.00  0.00    +0.280 C 
ENDBRANCH  30  32
ENDBRANCH  28  30
ENDBRANCH  19  27
ENDBRANCH  18  20
ENDBRANCH   1  18
TORSDOF 7
