REMARK  Name = ZINC36497685
REMARK  9 active torsions:
REMARK  status: ('A' for Active; 'I' for Inactive)
REMARK    1  A    between atoms: C_3  and  C_6
REMARK    2  A    between atoms: C_6  and  N_7
REMARK    3  A    between atoms: N_7  and  C_8
REMARK    4  A    between atoms: C_8  and  C_10
REMARK    5  A    between atoms: C_8  and  C_17
REMARK    6  A    between atoms: C_13  and  O_16
REMARK    7  A    between atoms: N_19  and  C_20
REMARK    8  A    between atoms: C_26  and  C_28
REMARK    9  A    between atoms: C_28  and  C_29
REMARK                            x       y       z     vdW  Elec       q    Type
REMARK                         _______ _______ _______ _____ _____    ______ ____
ROOT
ATOM      1  C   UNL     1       4.260  -0.490   2.144  0.00  0.00    +0.193 C 
ENDROOT
BRANCH   1   2
ATOM      2  C   UNL     1       3.381  -1.429   2.928  0.00  0.00    -0.018 A 
ATOM      3  C   UNL     1       2.391  -2.148   2.284  0.00  0.00    +0.009 A 
ATOM      4  C   UNL     1       1.583  -3.009   3.000  0.00  0.00    +0.046 A 
ATOM      5  C   UNL     1       1.767  -3.155   4.367  0.00  0.00    +0.117 A 
ATOM      6  C   UNL     1       2.761  -2.433   5.012  0.00  0.00    +0.046 A 
ATOM      7  C   UNL     1       3.570  -1.577   4.290  0.00  0.00    +0.009 A 
BRANCH   5   8
ATOM      8  O   UNL     1       0.973  -4.001   5.074  0.00  0.00    -0.507 OA
ATOM      9  H   UNL     1       1.315  -4.904   5.133  0.00  0.00    +0.292 HD
ENDBRANCH   5   8
ENDBRANCH   1   2
BRANCH   1  10
ATOM     10  C   UNL     1       5.249  -1.286   1.333  0.00  0.00    +0.238 C 
ATOM     11  O   UNL     1       5.816  -0.771   0.393  0.00  0.00    -0.273 OA
ATOM     12  N   UNL     1       5.503  -2.571   1.652  0.00  0.00    -0.311 N 
ATOM     13  H   UNL     1       5.050  -2.983   2.404  0.00  0.00    +0.149 HD
BRANCH  12  14
ATOM     14  C   UNL     1       6.465  -3.345   0.863  0.00  0.00    +0.073 C 
ATOM     15  C   UNL     1       5.760  -3.941  -0.357  0.00  0.00    +0.022 C 
ATOM     16  C   UNL     1       6.764  -4.750  -1.181  0.00  0.00    +0.002 C 
ATOM     17  C   UNL     1       7.337  -5.878  -0.322  0.00  0.00    +0.000 C 
ATOM     18  C   UNL     1       8.042  -5.282   0.898  0.00  0.00    +0.002 C 
ATOM     19  C   UNL     1       7.038  -4.474   1.722  0.00  0.00    +0.022 C 
ENDBRANCH  12  14
ENDBRANCH   1  10
BRANCH   1  20
ATOM     20  N   UNL     1       3.432   0.320   1.248  0.00  0.00    -0.278 N 
ATOM     21  C   UNL     1       2.494   1.143   1.756  0.00  0.00    +0.221 C 
ATOM     22  O   UNL     1       2.336   1.214   2.957  0.00  0.00    -0.275 OA
BRANCH  20  23
ATOM     23  C   UNL     1       3.624   0.235  -0.202  0.00  0.00    +0.183 C 
BRANCH  23  26
ATOM     24  C   UNL     1       1.756  -2.630  -1.577  0.00  0.00    +0.041 A 
ATOM     25  C   UNL     1       1.855  -1.258  -1.248  0.00  0.00    +0.046 A 
ATOM     26  C   UNL     1       3.072  -1.074  -0.706  0.00  0.00    +0.122 A 
ATOM     27  O   UNL     1       3.713  -2.254  -0.691  0.00  0.00    -0.466 OA
ATOM     28  C   UNL     1       2.920  -3.201  -1.218  0.00  0.00    +0.195 A 
ENDBRANCH  23  26
ENDBRANCH  20  23
BRANCH  21  29
ATOM     29  C   UNL     1       1.642   1.976   0.833  0.00  0.00    +0.131 C 
BRANCH  29  30
ATOM     30  C   UNL     1       0.680   2.803   1.647  0.00  0.00    -0.039 A 
ATOM     31  C   UNL     1      -0.565   2.295   1.971  0.00  0.00    +0.005 A 
ATOM     32  C   UNL     1      -1.447   3.052   2.718  0.00  0.00    +0.015 A 
ATOM     33  C   UNL     1      -1.085   4.318   3.141  0.00  0.00    +0.018 A 
ATOM     34  C   UNL     1       0.160   4.826   2.817  0.00  0.00    +0.015 A 
ATOM     35  C   UNL     1       1.044   4.066   2.075  0.00  0.00    +0.005 A 
ATOM     36 BR   UNL     1      -2.292   5.355   4.163  0.00  0.00    -0.050 Br
ENDBRANCH  29  30
ENDBRANCH  21  29
ENDBRANCH   1  20
TORSDOF 9
