REMARK  Name = ZINC36642861
REMARK  12 active torsions:
REMARK  status: ('A' for Active; 'I' for Inactive)
REMARK    1  A    between atoms: C_1  and  C_2
REMARK    2  A    between atoms: C_5  and  O_33
REMARK    3  A    between atoms: N_11  and  C_12
REMARK    4  A    between atoms: C_12  and  C_13
REMARK    5  A    between atoms: C_13  and  N_14
REMARK    6  A    between atoms: N_14  and  C_15
REMARK    7  A    between atoms: N_14  and  C_16
REMARK    8  A    between atoms: C_17  and  C_19
REMARK    9  A    between atoms: C_19  and  N_20
REMARK   10  A    between atoms: N_27  and  C_32
REMARK   11  A    between atoms: N_30  and  C_31
REMARK   12  A    between atoms: O_33  and  C_34
REMARK                            x       y       z     vdW  Elec       q    Type
REMARK                         _______ _______ _______ _____ _____    ______ ____
ROOT
ATOM      1  C   UNL     1      -0.018   1.503   0.010  0.00  0.00    +0.045 C 
ATOM      2  C   UNL     1       0.002  -0.004   0.002  0.00  0.00    -0.034 A 
ATOM      3  C   UNL     1       0.006  -0.692  -1.197  0.00  0.00    +0.008 A 
ATOM      4  C   UNL     1       0.025  -2.079  -1.186  0.00  0.00    +0.048 A 
ATOM      5  C   UNL     1       0.039  -2.786  -0.006  0.00  0.00    +0.147 A 
ATOM      6  C   UNL     1       0.036  -2.112   1.241  0.00  0.00    +0.122 A 
ATOM      7  C   UNL     1       0.023  -0.701   1.186  0.00  0.00    +0.047 A 
ATOM      8  S   UNL     1       0.033  -0.255   2.906  0.00  0.00    -0.051 S 
ATOM      9  C   UNL     1       0.061  -1.915   3.568  0.00  0.00    +0.168 A 
ATOM     10  N   UNL     1       0.048  -2.650   2.481  0.00  0.00    -0.221 NA
ATOM     11  N   UNL     1       0.079  -2.323   4.892  0.00  0.00    -0.251 N 
ATOM     12  C   UNL     1       0.075  -1.405   5.880  0.00  0.00    +0.241 C 
ATOM     13  O   UNL     1       0.057  -0.223   5.609  0.00  0.00    -0.273 OA
ENDROOT
BRANCH   5  14
ATOM     14  O   UNL     1       0.057  -4.145  -0.036  0.00  0.00    -0.493 OA
ATOM     15  C   UNL     1       0.059  -4.766  -1.324  0.00  0.00    +0.277 C 
ENDBRANCH   5  14
BRANCH  11  16
ATOM     16  C   UNL     1       0.101  -3.751   5.219  0.00  0.00    +0.097 C 
BRANCH  16  17
ATOM     17  C   UNL     1       1.551  -4.228   5.320  0.00  0.00    -0.060 C 
BRANCH  17  18
ATOM     18  N   UNL     1       1.574  -5.660   5.647  0.00  0.00    +0.377 N 
ATOM     19  C   UNL     1       0.989  -6.425   4.538  0.00  0.00    -0.097 C 
ATOM     20  C   UNL     1       2.962  -6.091   5.861  0.00  0.00    -0.097 C 
ATOM     21  H   UNL     1       1.038  -5.821   6.487  0.00  0.00    -0.083 HD
ENDBRANCH  17  18
ENDBRANCH  16  17
ENDBRANCH  11  16
BRANCH  12  22
ATOM     22  C   UNL     1       0.095  -1.849   7.320  0.00  0.00    +0.219 C 
BRANCH  22  23
ATOM     23  N   UNL     1       0.087  -0.672   8.193  0.00  0.00    -0.316 N 
ATOM     24  C   UNL     1       1.163  -0.067   8.732  0.00  0.00    +0.202 A 
ATOM     25  N   UNL     1       0.779   0.953   9.457  0.00  0.00    -0.218 NA
ATOM     26  C   UNL     1      -0.552   1.056   9.423  0.00  0.00    +0.168 A 
ATOM     27  C   UNL     1      -1.025   0.030   8.615  0.00  0.00    +0.152 A 
ATOM     28  C   UNL     1      -2.414  -0.092   8.400  0.00  0.00    +0.282 A 
ATOM     29  O   UNL     1      -2.853  -0.986   7.698  0.00  0.00    -0.265 OA
ATOM     30  N   UNL     1      -3.251   0.792   8.982  0.00  0.00    -0.262 N 
ATOM     31  C   UNL     1      -2.780   1.782   9.759  0.00  0.00    +0.333 A 
ATOM     32  O   UNL     1      -3.564   2.561  10.268  0.00  0.00    -0.246 OA
ATOM     33  N   UNL     1      -1.463   1.930   9.996  0.00  0.00    -0.280 N 
ATOM     34  C   UNL     1      -0.990   3.024  10.848  0.00  0.00    +0.155 C 
ATOM     35  C   UNL     1      -4.695   0.671   8.763  0.00  0.00    +0.157 C 
ENDBRANCH  22  23
ENDBRANCH  12  22
TORSDOF 6
