REMARK  Name = ZINC63948817
REMARK  7 active torsions:
REMARK  status: ('A' for Active; 'I' for Inactive)
REMARK    1  A    between atoms: C_1  and  C_2
REMARK    2  A    between atoms: C_5  and  C_8
REMARK    3  A    between atoms: C_8  and  C_9
REMARK    4  A    between atoms: C_9  and  C_11
REMARK    5  A    between atoms: C_9  and  S_14
REMARK    6  A    between atoms: S_14  and  C_15
REMARK    7  A    between atoms: C_21  and  C_25
REMARK                            x       y       z     vdW  Elec       q    Type
REMARK                         _______ _______ _______ _____ _____    ______ ____
ROOT
ATOM      1  S   UNL     1       2.304  -4.268  -1.584  0.00  0.00    -0.100 S 
ENDROOT
BRANCH   1   2
ATOM      2  C   UNL     1       4.031  -4.784  -1.377  0.00  0.00    +0.236 C 
ATOM      3  N   UNL     1       4.098  -6.227  -1.115  0.00  0.00    -0.355 N 
ATOM      4  C   UNL     1       4.649  -6.387   0.053  0.00  0.00    +0.061 A 
ATOM      5  C   UNL     1       4.980  -7.578   0.847  0.00  0.00    +0.028 A 
ATOM      6  C   UNL     1       5.562  -7.433   2.054  0.00  0.00    +0.005 A 
ATOM      7  C   UNL     1       5.872  -6.174   2.600  0.00  0.00    -0.048 A 
ATOM      8  C   UNL     1       5.611  -5.019   1.956  0.00  0.00    +0.030 A 
ATOM      9  C   UNL     1       4.978  -5.055   0.630  0.00  0.00    +0.061 A 
ATOM     10  N   UNL     1       4.618  -4.122  -0.205  0.00  0.00    -0.355 N 
ATOM     11  C   UNL     1       6.521  -6.114   3.958  0.00  0.00    +0.044 C 
ATOM     12  H   UNL     1       3.788  -6.932  -1.705  0.00  0.00    +0.162 HD
ATOM     13  H   UNL     1       4.719  -3.165  -0.076  0.00  0.00    +0.162 HD
ENDBRANCH   1   2
BRANCH   1  14
ATOM     14  C   UNL     1       1.508  -4.767  -0.032  0.00  0.00    +0.167 C 
BRANCH  14  15
ATOM     15  C   UNL     1       1.530  -6.269   0.083  0.00  0.00    +0.369 C 
ATOM     16  O   UNL     1       0.834  -6.947  -0.652  0.00  0.00    -0.245 OA
ATOM     17  O   UNL     1       2.244  -6.806   0.913  0.00  0.00    -0.245 OA
ENDBRANCH  14  15
BRANCH  14  18
ATOM     18  C   UNL     1       0.059  -4.275  -0.021  0.00  0.00    +0.061 C 
BRANCH  18  23
ATOM     19  C   UNL     1      -0.018   1.503   0.010  0.00  0.00    +0.044 C 
ATOM     20  C   UNL     1       0.002  -0.004   0.002  0.00  0.00    -0.050 A 
ATOM     21  C   UNL     1       0.006  -0.689  -1.199  0.00  0.00    +0.003 A 
ATOM     22  C   UNL     1       0.025  -2.071  -1.206  0.00  0.00    +0.004 A 
ATOM     23  C   UNL     1       0.040  -2.768  -0.013  0.00  0.00    -0.046 A 
ATOM     24  C   UNL     1       0.037  -2.084   1.188  0.00  0.00    +0.004 A 
ATOM     25  C   UNL     1       0.023  -0.702   1.195  0.00  0.00    +0.003 A 
ENDBRANCH  18  23
ENDBRANCH  14  18
ENDBRANCH   1  14
TORSDOF 5
