REMARK  Name = ZINC37439780
REMARK  3 active torsions:
REMARK  status: ('A' for Active; 'I' for Inactive)
REMARK    1  A    between atoms: C_9  and  C_14
REMARK    2  A    between atoms: N_10  and  C_11
REMARK    3  A    between atoms: C_15  and  N_19
REMARK                            x       y       z     vdW  Elec       q    Type
REMARK                         _______ _______ _______ _____ _____    ______ ____
ROOT
ATOM      1  C   UNL     1       0.239   1.640  -1.139  0.00  0.00    +0.040 A 
ATOM      2  C   UNL     1       1.429   2.257  -0.807  0.00  0.00    +0.031 A 
ATOM      3  C   UNL     1       2.504   1.498  -0.373  0.00  0.00    +0.070 A 
ATOM      4  C   UNL     1       2.381   0.101  -0.271  0.00  0.00    +0.092 A 
ATOM      5  C   UNL     1       1.171  -0.510  -0.610  0.00  0.00    +0.068 A 
ATOM      6  C   UNL     1       0.112   0.261  -1.040  0.00  0.00    +0.126 A 
ATOM      7  F   UNL     1      -1.059  -0.330  -1.367  0.00  0.00    -0.205 F 
ATOM      8  N   UNL     1       3.571  -0.377   0.172  0.00  0.00    -0.227 NA
ATOM      9  C   UNL     1       4.410   0.621   0.349  0.00  0.00    +0.151 A 
ATOM     10  N   UNL     1       3.795   1.804   0.024  0.00  0.00    -0.320 N 
ENDROOT
BRANCH   9  11
ATOM     11  C   UNL     1       5.791   0.489   0.821  0.00  0.00    +0.075 A 
ATOM     12  C   UNL     1       6.459  -0.644   1.268  0.00  0.00    +0.042 A 
ATOM     13  C   UNL     1       7.775  -0.510   1.664  0.00  0.00    +0.031 A 
ATOM     14  C   UNL     1       8.366   0.712   1.604  0.00  0.00    +0.048 A 
ATOM     15  S   UNL     1       7.056   1.741   0.964  0.00  0.00    -0.092 S 
BRANCH  12  16
ATOM     16  N   UNL     1       5.817  -1.884   1.317  0.00  0.00    -0.357 N 
ATOM     17  H   UNL     1       4.892  -1.963   1.035  0.00  0.00    +0.142 HD
ATOM     18  H   UNL     1       6.297  -2.667   1.631  0.00  0.00    +0.142 HD
ENDBRANCH  12  16
ENDBRANCH   9  11
BRANCH  10  19
ATOM     19  C   UNL     1       4.392   3.141   0.085  0.00  0.00    +0.089 C 
ATOM     20  C   UNL     1       3.745   4.243  -0.756  0.00  0.00    +0.027 C 
ATOM     21  C   UNL     1       5.096   3.658  -1.171  0.00  0.00    +0.027 C 
ENDBRANCH  10  19
TORSDOF 3
