REMARK  Name = ZINC40899883
REMARK  6 active torsions:
REMARK  status: ('A' for Active; 'I' for Inactive)
REMARK    1  A    between atoms: C_2  and  C_3
REMARK    2  A    between atoms: C_3  and  N_4
REMARK    3  A    between atoms: C_5  and  C_7
REMARK    4  A    between atoms: N_12  and  C_14
REMARK    5  A    between atoms: C_17  and  C_21
REMARK    6  A    between atoms: C_23  and  C_26
REMARK                            x       y       z     vdW  Elec       q    Type
REMARK                         _______ _______ _______ _____ _____    ______ ____
ROOT
ATOM      1  C   UNL     1       4.843  -5.239   4.448  0.00  0.00    +0.065 A 
ATOM      2  C   UNL     1       5.977  -6.006   4.209  0.00  0.00    +0.027 A 
ATOM      3  C   UNL     1       6.983  -6.063   5.149  0.00  0.00    +0.013 A 
ATOM      4  C   UNL     1       6.864  -5.351   6.342  0.00  0.00    +0.025 A 
ATOM      5  C   UNL     1       5.726  -4.581   6.581  0.00  0.00    +0.052 A 
ATOM      6  C   UNL     1       4.723  -4.522   5.635  0.00  0.00    +0.145 A 
ATOM      7  F   UNL     1       3.622  -3.773   5.864  0.00  0.00    -0.204 F 
ENDROOT
BRANCH   1  12
ATOM      8  C   UNL     1       2.508  -3.409   2.457  0.00  0.00    +0.092 C 
ATOM      9  C   UNL     1       1.361  -4.416   2.337  0.00  0.00    +0.016 C 
ATOM     10  C   UNL     1       1.393  -5.373   3.530  0.00  0.00    +0.020 C 
ATOM     11  C   UNL     1       2.716  -6.146   3.524  0.00  0.00    +0.105 C 
ATOM     12  N   UNL     1       3.826  -5.183   3.494  0.00  0.00    -0.327 N 
ATOM     13  C   UNL     1       3.844  -4.159   2.440  0.00  0.00    +0.118 C 
BRANCH   8  15
ATOM     14  N   UNL     1       1.367  -1.676   1.111  0.00  0.00    -0.312 N 
ATOM     15  C   UNL     1       2.457  -2.447   1.299  0.00  0.00    +0.218 C 
ATOM     16  O   UNL     1       3.396  -2.366   0.535  0.00  0.00    -0.275 OA
ATOM     17  H   UNL     1       0.617  -1.740   1.722  0.00  0.00    +0.149 HD
BRANCH  14  18
ATOM     18  C   UNL     1       1.317  -0.740  -0.015  0.00  0.00    +0.131 C 
BRANCH  18  20
ATOM     19  C   UNL     1      -0.016   1.306   0.009  0.00  0.00    +0.005 C 
ATOM     20  C   UNL     1       0.002  -0.004   0.002  0.00  0.00    -0.016 C 
ENDBRANCH  18  20
ENDBRANCH  14  18
ENDBRANCH   8  15
ENDBRANCH   1  12
BRANCH   4  21
ATOM     21  C   UNL     1       7.946  -5.412   7.355  0.00  0.00    +0.202 A 
ATOM     22  N   UNL     1       7.945  -4.777   8.538  0.00  0.00    -0.187 NA
ATOM     23  C   UNL     1       9.052  -5.045   9.190  0.00  0.00    +0.259 A 
ATOM     24  O   UNL     1       9.798  -5.867   8.432  0.00  0.00    -0.332 OA
ATOM     25  N   UNL     1       9.058  -6.098   7.244  0.00  0.00    -0.056 NA
BRANCH  23  26
ATOM     26  C   UNL     1       9.415  -4.532  10.528  0.00  0.00    +0.041 A 
ATOM     27  C   UNL     1       8.543  -3.685  11.214  0.00  0.00    +0.013 A 
ATOM     28  C   UNL     1       8.887  -3.209  12.462  0.00  0.00    +0.002 A 
ATOM     29  C   UNL     1      10.094  -3.568  13.035  0.00  0.00    +0.020 A 
ATOM     30  C   UNL     1      10.964  -4.407  12.360  0.00  0.00    +0.042 A 
ATOM     31  C   UNL     1      10.629  -4.895  11.112  0.00  0.00    +0.033 A 
ATOM     32 CL   UNL     1      12.477  -4.853  13.086  0.00  0.00    -0.084 Cl
ENDBRANCH  23  26
ENDBRANCH   4  21
TORSDOF 6
