REMARK  Name = ZINC27809672
REMARK  8 active torsions:
REMARK  status: ('A' for Active; 'I' for Inactive)
REMARK    1  A    between atoms: C_1  and  C_2
REMARK    2  A    between atoms: C_2  and  C_3
REMARK    3  A    between atoms: C_2  and  C_4
REMARK    4  A    between atoms: C_2  and  N_5
REMARK    5  A    between atoms: C_6  and  S_10
REMARK    6  A    between atoms: S_10  and  C_11
REMARK    7  A    between atoms: C_11  and  C_13
REMARK    8  A    between atoms: C_11  and  C_19
REMARK                            x       y       z     vdW  Elec       q    Type
REMARK                         _______ _______ _______ _____ _____    ______ ____
ROOT
ATOM      1  C   UNL     1       1.005  -4.572  -1.727  0.00  0.00    +0.170 C 
ENDROOT
BRANCH   1   2
ATOM      2  C   UNL     1       0.538  -5.881  -1.143  0.00  0.00    +0.238 C 
ATOM      3  O   UNL     1       0.201  -5.939   0.020  0.00  0.00    -0.274 OA
ATOM      4  N   UNL     1       0.496  -6.986  -1.913  0.00  0.00    -0.239 N 
ATOM      5  C   UNL     1       0.079  -8.156  -1.391  0.00  0.00    +0.303 C 
ATOM      6  O   UNL     1      -0.259  -8.215  -0.225  0.00  0.00    -0.253 OA
ATOM      7  N   UNL     1       0.037  -9.261  -2.161  0.00  0.00    -0.313 N 
ATOM      8  H   UNL     1       0.767  -6.939  -2.844  0.00  0.00    +0.159 HD
ATOM      9  H   UNL     1       0.307  -9.214  -3.092  0.00  0.00    +0.146 HD
ATOM     10  H   UNL     1      -0.263 -10.103  -1.786  0.00  0.00    +0.146 HD
ENDBRANCH   1   2
BRANCH   1  11
ATOM     11  C   UNL     1       2.511  -4.551  -1.773  0.00  0.00    -0.025 A 
ATOM     12  C   UNL     1       3.240  -4.681  -0.606  0.00  0.00    +0.005 A 
ATOM     13  C   UNL     1       4.622  -4.661  -0.648  0.00  0.00    +0.000 A 
ATOM     14  C   UNL     1       5.274  -4.514  -1.858  0.00  0.00    +0.000 A 
ATOM     15  C   UNL     1       4.545  -4.386  -3.026  0.00  0.00    +0.000 A 
ATOM     16  C   UNL     1       3.164  -4.409  -2.983  0.00  0.00    +0.005 A 
ENDBRANCH   1  11
BRANCH   1  17
ATOM     17  S   UNL     1       0.413  -3.204  -0.694  0.00  0.00    -0.067 S 
BRANCH  17  19
ATOM     18  N   UNL     1       0.688  -0.476  -1.203  0.00  0.00    -0.215 N 
ATOM     19  C   UNL     1       0.905  -1.760  -1.576  0.00  0.00    +0.211 A 
ATOM     20  N   UNL     1       1.554  -1.726  -2.720  0.00  0.00    -0.101 NA
ATOM     21  N   UNL     1       1.756  -0.512  -3.086  0.00  0.00    -0.022 NA
ATOM     22  N   UNL     1       1.256   0.305  -2.224  0.00  0.00    -0.043 NA
BRANCH  18  24
ATOM     23  C   UNL     1      -0.019   1.526   0.010  0.00  0.00    +0.036 C 
ATOM     24  C   UNL     1       0.002  -0.004   0.002  0.00  0.00    +0.060 C 
ATOM     25  C   UNL     1       0.742  -0.511   1.242  0.00  0.00    +0.036 C 
ATOM     26  C   UNL     1      -1.433  -0.534   0.013  0.00  0.00    +0.036 C 
ENDBRANCH  18  24
ENDBRANCH  17  19
ENDBRANCH   1  17
TORSDOF 5
