REMARK  Name = ZINC36545493
REMARK  14 active torsions:
REMARK  status: ('A' for Active; 'I' for Inactive)
REMARK    1  A    between atoms: C_1  and  C_2
REMARK    2  A    between atoms: C_2  and  C_3
REMARK    3  A    between atoms: C_3  and  C_4
REMARK    4  A    between atoms: C_4  and  N_5
REMARK    5  A    between atoms: C_6  and  C_8
REMARK    6  A    between atoms: C_8  and  C_10
REMARK    7  A    between atoms: C_8  and  N_19
REMARK    8  A    between atoms: C_13  and  N_16
REMARK    9  A    between atoms: N_16  and  C_17
REMARK   10  A    between atoms: N_16  and  C_18
REMARK   11  A    between atoms: N_19  and  C_20
REMARK   12  A    between atoms: C_27  and  C_29
REMARK   13  A    between atoms: C_33  and  O_36
REMARK   14  A    between atoms: C_34  and  O_35
REMARK                            x       y       z     vdW  Elec       q    Type
REMARK                         _______ _______ _______ _____ _____    ______ ____
ROOT
ATOM      1  N   UNL     1      -4.518  -5.807   0.367  0.00  0.00    -0.250 N 
ATOM      2  C   UNL     1      -5.373  -6.163   1.346  0.00  0.00    +0.255 C 
ATOM      3  O   UNL     1      -5.794  -5.325   2.120  0.00  0.00    -0.269 OA
ENDROOT
BRANCH   1   4
ATOM      4  C   UNL     1      -3.958  -6.785  -0.462  0.00  0.00    +0.056 A 
ATOM      5  C   UNL     1      -2.767  -7.402  -0.104  0.00  0.00    +0.025 A 
ATOM      6  C   UNL     1      -2.217  -8.368  -0.924  0.00  0.00    +0.002 A 
ATOM      7  C   UNL     1      -2.850  -8.720  -2.102  0.00  0.00    +0.002 A 
ATOM      8  C   UNL     1      -4.036  -8.108  -2.462  0.00  0.00    +0.022 A 
ATOM      9  C   UNL     1      -4.595  -7.145  -1.643  0.00  0.00    +0.062 A 
ATOM     10 CL   UNL     1      -6.088  -6.381  -2.093  0.00  0.00    -0.082 Cl
ENDBRANCH   1   4
BRANCH   2  11
ATOM     11  C   UNL     1      -5.800  -7.569   1.478  0.00  0.00    +0.082 A 
ATOM     12  C   UNL     1      -4.845  -8.584   1.597  0.00  0.00    +0.017 A 
ATOM     13  C   UNL     1      -5.247  -9.896   1.720  0.00  0.00    +0.005 A 
ATOM     14  C   UNL     1      -6.595 -10.218   1.726  0.00  0.00    +0.049 A 
ATOM     15  C   UNL     1      -7.551  -9.224   1.609  0.00  0.00    +0.159 A 
ATOM     16  C   UNL     1      -7.161  -7.893   1.490  0.00  0.00    +0.171 A 
BRANCH  16  17
ATOM     17  O   UNL     1      -8.097  -6.915   1.381  0.00  0.00    -0.503 OA
ATOM     18  H   UNL     1      -8.355  -6.718   0.470  0.00  0.00    +0.292 HD
ENDBRANCH  16  17
BRANCH  15  19
ATOM     19  O   UNL     1      -8.872  -9.548   1.616  0.00  0.00    -0.503 OA
ATOM     20  H   UNL     1      -9.271  -9.554   2.497  0.00  0.00    +0.292 HD
ENDBRANCH  15  19
ENDBRANCH   2  11
BRANCH   1  21
ATOM     21  C   UNL     1      -4.175  -4.397   0.172  0.00  0.00    +0.197 C 
BRANCH  21  22
ATOM     22  C   UNL     1      -4.432  -4.011  -1.262  0.00  0.00    -0.018 A 
ATOM     23  C   UNL     1      -5.325  -2.996  -1.554  0.00  0.00    +0.008 A 
ATOM     24  C   UNL     1      -5.563  -2.641  -2.867  0.00  0.00    +0.023 A 
ATOM     25  C   UNL     1      -4.905  -3.303  -3.895  0.00  0.00    +0.029 A 
ATOM     26  C   UNL     1      -4.008  -4.322  -3.599  0.00  0.00    +0.023 A 
ATOM     27  C   UNL     1      -3.771  -4.669  -2.283  0.00  0.00    +0.008 A 
BRANCH  25  28
ATOM     28  N   UNL     1      -5.144  -2.946  -5.224  0.00  0.00    -0.336 N 
ATOM     29  C   UNL     1      -6.090  -1.872  -5.535  0.00  0.00    +0.129 C 
ATOM     30  C   UNL     1      -4.448  -3.646  -6.307  0.00  0.00    +0.129 C 
ENDBRANCH  25  28
ENDBRANCH  21  22
BRANCH  21  32
ATOM     31  N   UNL     1      -2.175  -2.956   0.386  0.00  0.00    -0.313 N 
ATOM     32  C   UNL     1      -2.718  -4.185   0.495  0.00  0.00    +0.238 C 
ATOM     33  O   UNL     1      -2.034  -5.120   0.854  0.00  0.00    -0.273 OA
ATOM     34  H   UNL     1      -2.722  -2.208   0.099  0.00  0.00    +0.149 HD
BRANCH  31  35
ATOM     35  C   UNL     1      -0.759  -2.750   0.700  0.00  0.00    +0.104 C 
BRANCH  35  36
ATOM     36  C   UNL     1      -0.401  -1.277   0.496  0.00  0.00    +0.018 C 
BRANCH  36  38
ATOM     37  C   UNL     1       1.437   0.412   0.620  0.00  0.00    +0.004 C 
ATOM     38  C   UNL     1       1.078  -1.061   0.824  0.00  0.00    -0.002 C 
ENDBRANCH  36  38
ENDBRANCH  35  36
ENDBRANCH  31  35
ENDBRANCH  21  32
ENDBRANCH   1  21
TORSDOF 11
