REMARK  Name = ZINC13987578
REMARK  12 active torsions:
REMARK  status: ('A' for Active; 'I' for Inactive)
REMARK    1  A    between atoms: C_1  and  C_2
REMARK    2  A    between atoms: C_6  and  S_8
REMARK    3  A    between atoms: S_8  and  N_11
REMARK    4  A    between atoms: N_11  and  C_12
REMARK    5  A    between atoms: C_12  and  C_14
REMARK    6  A    between atoms: C_12  and  C_25
REMARK    7  A    between atoms: C_14  and  C_15
REMARK    8  A    between atoms: C_25  and  O_27
REMARK    9  A    between atoms: O_27  and  C_28
REMARK   10  A    between atoms: C_28  and  C_30
REMARK   11  A    between atoms: C_28  and  C_31
REMARK   12  A    between atoms: C_31  and  C_33
REMARK                            x       y       z     vdW  Elec       q    Type
REMARK                         _______ _______ _______ _____ _____    ______ ____
ROOT
ATOM      1  C   UNL     1      -1.312   5.630  -2.491  0.00  0.00    +0.189 C 
ENDROOT
BRANCH   1   2
ATOM      2  N   UNL     1      -0.143   5.886  -1.646  0.00  0.00    -0.176 NA
ATOM      3  H   UNL     1       0.443   6.634  -1.843  0.00  0.00    +0.149 HD
BRANCH   2   4
ATOM      4  S   UNL     1       0.178   4.900  -0.355  0.00  0.00    +0.059 S 
ATOM      5  O   UNL     1      -1.036   4.775   0.372  0.00  0.00    -0.153 OA
ATOM      6  O   UNL     1       1.375   5.385   0.238  0.00  0.00    -0.153 OA
BRANCH   4  12
ATOM      7  C   UNL     1      -1.287   0.130  -1.910  0.00  0.00    +0.044 C 
ATOM      8  C   UNL     1      -0.180   1.131  -1.699  0.00  0.00    -0.049 A 
ATOM      9  C   UNL     1       1.124   0.795  -2.011  0.00  0.00    +0.003 A 
ATOM     10  C   UNL     1       2.139   1.715  -1.823  0.00  0.00    +0.002 A 
ATOM     11  C   UNL     1       1.850   2.968  -1.317  0.00  0.00    +0.028 A 
ATOM     12  C   UNL     1       0.547   3.302  -0.999  0.00  0.00    +0.106 A 
ATOM     13  C   UNL     1      -0.468   2.382  -1.188  0.00  0.00    +0.032 A 
ENDBRANCH   4  12
ENDBRANCH   2   4
ENDBRANCH   1   2
BRANCH   1  14
ATOM     14  C   UNL     1      -0.857   5.231  -3.871  0.00  0.00    +0.327 C 
ATOM     15  O   UNL     1       0.323   5.168  -4.123  0.00  0.00    -0.249 OA
BRANCH  14  16
ATOM     16  O   UNL     1      -1.762   4.947  -4.820  0.00  0.00    -0.452 OA
BRANCH  16  17
ATOM     17  C   UNL     1      -1.252   4.570  -6.126  0.00  0.00    +0.244 C 
ATOM     18  C   UNL     1      -1.060   3.053  -6.181  0.00  0.00    +0.061 C 
BRANCH  17  19
ATOM     19  C   UNL     1      -2.233   4.992  -7.190  0.00  0.00    +0.203 C 
ATOM     20  O   UNL     1      -3.365   5.300  -6.882  0.00  0.00    -0.288 OA
BRANCH  19  21
ATOM     21  C   UNL     1      -1.818   5.029  -8.600  0.00  0.00    +0.021 A 
ATOM     22  C   UNL     1      -0.511   4.679  -8.957  0.00  0.00    +0.014 A 
ATOM     23  C   UNL     1      -0.130   4.711 -10.280  0.00  0.00    +0.039 A 
ATOM     24  C   UNL     1      -1.036   5.099 -11.257  0.00  0.00    +0.123 A 
ATOM     25  C   UNL     1      -2.331   5.452 -10.909  0.00  0.00    +0.039 A 
ATOM     26  C   UNL     1      -2.727   5.419  -9.589  0.00  0.00    +0.014 A 
ATOM     27  F   UNL     1      -0.655   5.133 -12.552  0.00  0.00    -0.205 F 
ENDBRANCH  19  21
ENDBRANCH  17  19
ENDBRANCH  16  17
ENDBRANCH  14  16
ENDBRANCH   1  14
BRANCH   1  28
ATOM     28  C   UNL     1      -2.164   6.897  -2.581  0.00  0.00    +0.069 C 
BRANCH  28  29
ATOM     29  C   UNL     1      -2.734   7.217  -1.223  0.00  0.00    -0.020 A 
ATOM     30  C   UNL     1      -3.932   6.838  -0.750  0.00  0.00    +0.087 A 
ATOM     31  N   UNL     1      -4.104   7.314   0.521  0.00  0.00    -0.360 N 
ATOM     32  H   UNL     1      -4.892   7.169   1.068  0.00  0.00    +0.165 HD
ATOM     33  C   UNL     1      -2.993   8.029   0.907  0.00  0.00    +0.047 A 
ATOM     34  C   UNL     1      -2.084   7.995  -0.166  0.00  0.00    +0.003 A 
ATOM     35  C   UNL     1      -0.851   8.641  -0.055  0.00  0.00    +0.010 A 
ATOM     36  C   UNL     1      -0.532   9.300   1.098  0.00  0.00    +0.001 A 
ATOM     37  C   UNL     1      -1.424   9.334   2.161  0.00  0.00    +0.002 A 
ATOM     38  C   UNL     1      -2.649   8.710   2.070  0.00  0.00    +0.026 A 
ENDBRANCH  28  29
ENDBRANCH   1  28
TORSDOF 10
