REMARK  Name = ZINC08706895
REMARK  8 active torsions:
REMARK  status: ('A' for Active; 'I' for Inactive)
REMARK    1  A    between atoms: C_1  and  O_2
REMARK    2  A    between atoms: O_2  and  C_3
REMARK    3  A    between atoms: C_7  and  C_9
REMARK    4  A    between atoms: C_9  and  C_11
REMARK    5  A    between atoms: C_9  and  N_57
REMARK    6  A    between atoms: C_11  and  N_12
REMARK    7  A    between atoms: N_12  and  C_13
REMARK    8  A    between atoms: C_24  and  C_27
REMARK                            x       y       z     vdW  Elec       q    Type
REMARK                         _______ _______ _______ _____ _____    ______ ____
ROOT
ATOM      1  N   UNL     1       0.118   7.538  -1.167  0.00  0.00    -0.343 N 
ATOM      2  H   UNL     1       0.159   7.907  -0.271  0.00  0.00    +0.146 HD
ENDROOT
BRANCH   1   3
ATOM      3  C   UNL     1       0.250   8.371  -2.266  0.00  0.00    +0.071 A 
ATOM      4  C   UNL     1       0.197   7.840  -3.573  0.00  0.00    +0.158 A 
ATOM      5  N   UNL     1       0.316   8.623  -4.609  0.00  0.00    -0.168 NA
ATOM      6  N   UNL     1       0.508   9.999  -4.454  0.00  0.00    -0.177 N 
ATOM      7  C   UNL     1       0.569  10.549  -3.224  0.00  0.00    +0.293 A 
ATOM      8  O   UNL     1       0.737  11.751  -3.097  0.00  0.00    -0.264 OA
ATOM      9  C   UNL     1       0.439   9.730  -2.093  0.00  0.00    +0.129 A 
ATOM     10 CL   UNL     1       0.514  10.413  -0.499  0.00  0.00    -0.076 Cl
ATOM     11  C   UNL     1       0.636  10.811  -5.582  0.00  0.00    +0.158 A 
ATOM     12  C   UNL     1       0.573  10.244  -6.849  0.00  0.00    +0.049 A 
ATOM     13  C   UNL     1       0.701  11.061  -7.959  0.00  0.00    +0.017 A 
ATOM     14  C   UNL     1       0.890  12.422  -7.762  0.00  0.00    +0.073 A 
ATOM     15  C   UNL     1       0.943  12.917  -6.473  0.00  0.00    +0.125 A 
ATOM     16  N   UNL     1       0.812  12.115  -5.435  0.00  0.00    -0.235 NA
BRANCH  14  17
ATOM     17  C   UNL     1       1.034  13.350  -8.941  0.00  0.00    +0.419 C 
ATOM     18  F   UNL     1      -0.227  13.820  -9.321  0.00  0.00    -0.166 F 
ATOM     19  F   UNL     1       1.847  14.431  -8.586  0.00  0.00    -0.166 F 
ATOM     20  F   UNL     1       1.617  12.659 -10.009  0.00  0.00    -0.166 F 
ENDBRANCH  14  17
ENDBRANCH   1   3
BRANCH   1  21
ATOM     21  C   UNL     1      -0.082   6.100  -1.358  0.00  0.00    +0.091 C 
BRANCH  21  22
ATOM     22  C   UNL     1      -0.360   5.440  -0.006  0.00  0.00    -0.020 C 
BRANCH  22  27
ATOM     23  C   UNL     1       0.420   1.743   0.053  0.00  0.00    +0.120 A 
ATOM     24  C   UNL     1      -0.719   1.212  -0.534  0.00  0.00    +0.045 A 
ATOM     25  C   UNL     1      -1.734   2.051  -0.952  0.00  0.00    +0.004 A 
ATOM     26  C   UNL     1      -1.619   3.418  -0.776  0.00  0.00    +0.002 A 
ATOM     27  C   UNL     1      -0.485   3.949  -0.191  0.00  0.00    -0.056 A 
ATOM     28  C   UNL     1       0.535   3.115   0.224  0.00  0.00    +0.047 A 
BRANCH  23  30
ATOM     29  C   UNL     1       1.235  -0.481   0.254  0.00  0.00    +0.277 C 
ATOM     30  O   UNL     1       1.422   0.920   0.461  0.00  0.00    -0.495 OA
ENDBRANCH  23  30
ENDBRANCH  22  27
BRANCH  22  35
ATOM     31  C   UNL     1      -2.066   5.161   1.708  0.00  0.00    -0.078 C 
ATOM     32  C   UNL     1      -3.027   6.119   2.456  0.00  0.00    -0.020 C 
ATOM     33  C   UNL     1      -2.339   7.494   2.293  0.00  0.00    -0.020 C 
ATOM     34  C   UNL     1      -1.424   7.343   1.064  0.00  0.00    -0.078 C 
ATOM     35  N   UNL     1      -1.628   5.982   0.569  0.00  0.00    +0.385 N 
ATOM     36  H   UNL     1      -2.354   5.982  -0.158  0.00  0.00    -0.081 HD
ENDBRANCH  22  35
ENDBRANCH  21  22
ENDBRANCH   1  21
TORSDOF 7
