REMARK  Name = ZINC22223945
REMARK  5 active torsions:
REMARK  status: ('A' for Active; 'I' for Inactive)
REMARK    1  A    between atoms: C_1  and  C_2
REMARK    2  A    between atoms: C_2  and  C_19
REMARK    3  A    between atoms: N_5  and  C_9
REMARK    4  A    between atoms: C_9  and  C_10
REMARK    5  A    between atoms: C_13  and  N_16
REMARK                            x       y       z     vdW  Elec       q    Type
REMARK                         _______ _______ _______ _____ _____    ______ ____
ROOT
ATOM      1  C   UNL     1      -2.673   5.060  -1.169  0.00  0.00    +0.047 C 
ATOM      2  C   UNL     1      -2.558   4.140   0.048  0.00  0.00    +0.138 C 
ATOM      3  C   UNL     1      -2.712   4.929   1.334  0.00  0.00    +0.251 C 
ATOM      4  O   UNL     1      -2.004   5.829   1.730  0.00  0.00    -0.272 OA
ATOM      5  N   UNL     1      -3.801   4.420   1.945  0.00  0.00    -0.220 N 
ATOM      6  C   UNL     1      -4.350   3.431   1.231  0.00  0.00    +0.310 C 
ATOM      7  O   UNL     1      -5.341   2.817   1.578  0.00  0.00    -0.252 OA
ATOM      8  N   UNL     1      -3.683   3.190   0.088  0.00  0.00    -0.281 N 
ATOM      9  H   UNL     1      -3.827   2.474  -0.734  0.00  0.00    +0.152 HD
ENDROOT
BRANCH   2  10
ATOM     10  C   UNL     1      -1.243   3.404   0.032  0.00  0.00    +0.022 A 
ATOM     11  C   UNL     1      -1.224   2.023   0.019  0.00  0.00    +0.047 A 
ATOM     12  C   UNL     1      -0.016   1.347   0.009  0.00  0.00    +0.124 A 
ATOM     13  C   UNL     1       1.173   2.055   0.002  0.00  0.00    +0.041 A 
ATOM     14  C   UNL     1       1.155   3.437   0.010  0.00  0.00    +0.041 A 
ATOM     15  C   UNL     1      -0.054   4.113   0.026  0.00  0.00    +0.129 A 
ATOM     16  F   UNL     1      -0.072   5.464   0.034  0.00  0.00    -0.205 F 
ATOM     17  F   UNL     1       0.002  -0.004   0.002  0.00  0.00    -0.205 F 
ENDBRANCH   2  10
BRANCH   5  18
ATOM     18  C   UNL     1      -4.318   4.893   3.231  0.00  0.00    +0.153 C 
BRANCH  18  19
ATOM     19  C   UNL     1      -3.676   4.112   4.348  0.00  0.00    -0.029 A 
ATOM     20  C   UNL     1      -4.265   2.949   4.807  0.00  0.00    +0.007 A 
ATOM     21  C   UNL     1      -3.673   2.229   5.828  0.00  0.00    +0.033 A 
ATOM     22  C   UNL     1      -2.497   2.679   6.398  0.00  0.00    +0.126 A 
ATOM     23  C   UNL     1      -1.910   3.846   5.944  0.00  0.00    +0.033 A 
ATOM     24  C   UNL     1      -2.499   4.562   4.919  0.00  0.00    +0.007 A 
BRANCH  22  25
ATOM     25  N   UNL     1      -1.865   1.912   7.495  0.00  0.00    +0.056 N 
ATOM     26  O   UNL     1      -0.829   2.309   7.997  0.00  0.00    -0.126 OA
ATOM     27  O   UNL     1      -2.382   0.885   7.896  0.00  0.00    -0.126 OA
ENDBRANCH  22  25
ENDBRANCH  18  19
ENDBRANCH   5  18
TORSDOF 4
