REMARK  Name = ZINC51606866
REMARK  8 active torsions:
REMARK  status: ('A' for Active; 'I' for Inactive)
REMARK    1  A    between atoms: C_1  and  C_2
REMARK    2  A    between atoms: C_4  and  C_21
REMARK    3  A    between atoms: C_6  and  S_8
REMARK    4  A    between atoms: S_8  and  C_9
REMARK    5  A    between atoms: C_9  and  C_11
REMARK    6  A    between atoms: C_9  and  C_17
REMARK    7  A    between atoms: C_17  and  C_19
REMARK    8  A    between atoms: C_17  and  N_20
REMARK                            x       y       z     vdW  Elec       q    Type
REMARK                         _______ _______ _______ _____ _____    ______ ____
ROOT
ATOM      1  C   UNL     1      -0.007  -1.639   4.022  0.00  0.00    +0.076 C 
ENDROOT
BRANCH   1   2
ATOM      2  C   UNL     1       0.286  -2.183   5.396  0.00  0.00    +0.003 A 
ATOM      3  C   UNL     1       1.304  -1.875   6.237  0.00  0.00    +0.027 A 
ATOM      4  C   UNL     1       1.375  -2.508   7.464  0.00  0.00    +0.025 A 
ATOM      5  C   UNL     1       0.424  -3.418   7.790  0.00  0.00    +0.060 A 
ATOM      6  S   UNL     1      -0.621  -3.396   6.343  0.00  0.00    -0.099 S 
ATOM      7 BR   UNL     1       2.777  -2.111   8.669  0.00  0.00    -0.050 Br
ENDBRANCH   1   2
BRANCH   1   8
ATOM      8  C   UNL     1      -1.380  -0.963   4.024  0.00  0.00    -0.060 C 
ATOM      9  C   UNL     1      -1.656  -0.365   2.643  0.00  0.00    -0.013 C 
BRANCH   8  10
ATOM     10  N   UNL     1      -1.400   0.104   5.033  0.00  0.00    +0.381 N 
ATOM     11  H   UNL     1      -0.689   0.787   4.814  0.00  0.00    -0.090 HD
ATOM     12  H   UNL     1      -2.305   0.549   5.034  0.00  0.00    -0.090 HD
ATOM     13  H   UNL     1      -1.218  -0.290   5.944  0.00  0.00    -0.090 HD
ENDBRANCH   8  10
ENDBRANCH   1   8
BRANCH   1  14
ATOM     14  S   UNL     1      -0.003  -2.997   2.820  0.00  0.00    -0.079 S 
BRANCH  14  20
ATOM     15  C   UNL     1       4.892  -2.390   4.185  0.00  0.00    +0.066 C 
ATOM     16  C   UNL     1       3.865  -3.177   3.412  0.00  0.00    +0.043 A 
ATOM     17  C   UNL     1       4.243  -4.282   2.666  0.00  0.00    +0.046 A 
ATOM     18  C   UNL     1       3.267  -4.978   1.969  0.00  0.00    +0.043 A 
ATOM     19  N   UNL     1       2.011  -4.568   2.036  0.00  0.00    -0.227 NA
ATOM     20  C   UNL     1       1.682  -3.507   2.759  0.00  0.00    +0.189 A 
ATOM     21  N   UNL     1       2.590  -2.824   3.441  0.00  0.00    -0.227 NA
ATOM     22  C   UNL     1       3.633  -6.185   1.145  0.00  0.00    +0.066 C 
ENDBRANCH  14  20
ENDBRANCH   1  14
TORSDOF 5
