REMARK  Name = ZINC09385609
REMARK  10 active torsions:
REMARK  status: ('A' for Active; 'I' for Inactive)
REMARK    1  A    between atoms: C_1  and  C_2
REMARK    2  A    between atoms: C_2  and  S_3
REMARK    3  A    between atoms: S_3  and  C_6
REMARK    4  A    between atoms: C_11  and  C_12
REMARK    5  A    between atoms: N_14  and  C_15
REMARK    6  A    between atoms: C_15  and  C_16
REMARK    7  A    between atoms: C_16  and  N_53
REMARK    8  A    between atoms: C_17  and  N_53
REMARK    9  A    between atoms: C_18  and  N_53
REMARK   10  A    between atoms: C_24  and  N_28
REMARK                            x       y       z     vdW  Elec       q    Type
REMARK                         _______ _______ _______ _____ _____    ______ ____
ROOT
ATOM      1  C   UNL     1       7.035   0.894  -0.058  0.00  0.00    +0.254 C 
ATOM      2  O   UNL     1       6.804  -0.297   0.015  0.00  0.00    -0.270 OA
ATOM      3  N   UNL     1       6.020   1.781  -0.029  0.00  0.00    -0.248 N 
ATOM      4  C   UNL     1       4.710   1.333  -0.031  0.00  0.00    +0.168 A 
ATOM      5  N   UNL     1       3.600   2.034  -0.005  0.00  0.00    -0.224 NA
ATOM      6  C   UNL     1       2.378   1.459  -0.010  0.00  0.00    +0.080 A 
ATOM      7  C   UNL     1       1.114   2.093   0.015  0.00  0.00    +0.031 A 
ATOM      8  C   UNL     1      -0.040   1.355   0.005  0.00  0.00    +0.035 A 
ATOM      9  C   UNL     1      -0.013  -0.032  -0.030  0.00  0.00    +0.127 A 
ATOM     10  C   UNL     1       1.205  -0.686  -0.056  0.00  0.00    +0.050 A 
ATOM     11  C   UNL     1       2.366   0.046  -0.046  0.00  0.00    +0.043 A 
ATOM     12  S   UNL     1       4.099  -0.346  -0.069  0.00  0.00    -0.052 S 
ENDROOT
BRANCH   1  18
ATOM     13  C   UNL     1       9.382   0.998   0.770  0.00  0.00    +0.100 A 
ATOM     14  C   UNL     1      10.681   1.446   0.651  0.00  0.00    +0.028 A 
ATOM     15  C   UNL     1      11.040   2.264  -0.406  0.00  0.00    +0.002 A 
ATOM     16  C   UNL     1      10.100   2.638  -1.350  0.00  0.00    +0.001 A 
ATOM     17  C   UNL     1       8.799   2.192  -1.246  0.00  0.00    +0.015 A 
ATOM     18  C   UNL     1       8.428   1.371  -0.179  0.00  0.00    +0.062 A 
BRANCH  13  19
ATOM     19  S   UNL     1       8.927  -0.044   2.116  0.00  0.00    -0.003 S 
ATOM     20  O   UNL     1       8.266  -1.148   1.513  0.00  0.00    -0.169 OA
ATOM     21  O   UNL     1      10.128  -0.232   2.851  0.00  0.00    -0.169 OA
BRANCH  19  23
ATOM     22  C   UNL     1       7.280   0.121   4.294  0.00  0.00    +0.028 C 
ATOM     23  C   UNL     1       7.748   0.936   3.086  0.00  0.00    +0.168 C 
ENDBRANCH  19  23
ENDBRANCH  13  19
ENDBRANCH   1  18
BRANCH   9  24
ATOM     24  N   UNL     1      -1.276  -0.804  -0.040  0.00  0.00    +0.056 N 
ATOM     25  O   UNL     1      -2.346  -0.222  -0.016  0.00  0.00    -0.126 OA
ATOM     26  O   UNL     1      -1.246  -2.021  -0.070  0.00  0.00    -0.126 OA
ENDBRANCH   9  24
BRANCH   3  27
ATOM     27  C   UNL     1       6.303   3.218   0.005  0.00  0.00    +0.097 C 
BRANCH  27  28
ATOM     28  C   UNL     1       6.537   3.657   1.452  0.00  0.00    -0.060 C 
BRANCH  28  31
ATOM     29  C   UNL     1       5.646   5.876   1.070  0.00  0.00    -0.097 C 
ATOM     30  C   UNL     1       7.282   5.513   2.817  0.00  0.00    -0.097 C 
ATOM     31  N   UNL     1       6.842   5.104   1.467  0.00  0.00    +0.377 N 
ATOM     32  H   UNL     1       7.598   5.292   0.798  0.00  0.00    -0.083 HD
ENDBRANCH  28  31
ENDBRANCH  27  28
ENDBRANCH   3  27
TORSDOF 7
