REMARK  Name = ZINC20181502
REMARK  6 active torsions:
REMARK  status: ('A' for Active; 'I' for Inactive)
REMARK    1  A    between atoms: C_1  and  C_2
REMARK    2  A    between atoms: C_5  and  N_8
REMARK    3  A    between atoms: C_9  and  C_11
REMARK    4  A    between atoms: C_11  and  N_12
REMARK    5  A    between atoms: C_21  and  C_22
REMARK    6  A    between atoms: C_25  and  C_28
REMARK                            x       y       z     vdW  Elec       q    Type
REMARK                         _______ _______ _______ _____ _____    ______ ____
ROOT
ATOM      1  N   UNL     1      -0.564   6.230   3.522  0.00  0.00    -0.257 N 
ATOM      2  C   UNL     1      -1.906   6.343   3.859  0.00  0.00    +0.051 A 
ATOM      3  C   UNL     1      -2.857   5.809   2.987  0.00  0.00    +0.024 A 
ATOM      4  C   UNL     1      -4.201   5.892   3.283  0.00  0.00    +0.002 A 
ATOM      5  C   UNL     1      -4.627   6.499   4.451  0.00  0.00    +0.001 A 
ATOM      6  C   UNL     1      -3.699   7.029   5.328  0.00  0.00    +0.017 A 
ATOM      7  C   UNL     1      -2.347   6.949   5.035  0.00  0.00    +0.034 A 
ATOM      8  S   UNL     1      -1.160   7.628   6.156  0.00  0.00    -0.082 S 
ATOM      9  C   UNL     1       0.273   6.653   5.781  0.00  0.00    +0.076 C 
ATOM     10  C   UNL     1       1.131   6.240   6.745  0.00  0.00    +0.028 C 
ATOM     11  C   UNL     1       0.477   6.316   4.354  0.00  0.00    +0.258 C 
ATOM     12  O   UNL     1       1.602   6.116   3.937  0.00  0.00    -0.269 OA
ENDROOT
BRANCH  10  13
ATOM     13  C   UNL     1       2.194   5.277   6.420  0.00  0.00    -0.024 A 
ATOM     14  C   UNL     1       1.959   4.257   5.492  0.00  0.00    +0.008 A 
ATOM     15  C   UNL     1       2.962   3.361   5.189  0.00  0.00    +0.013 A 
ATOM     16  C   UNL     1       4.196   3.462   5.809  0.00  0.00    +0.055 A 
ATOM     17  C   UNL     1       4.434   4.465   6.733  0.00  0.00    +0.013 A 
ATOM     18  C   UNL     1       3.443   5.372   7.043  0.00  0.00    +0.008 A 
BRANCH  16  19
ATOM     19  C   UNL     1       5.285   2.475   5.476  0.00  0.00    +0.417 C 
ATOM     20  F   UNL     1       5.201   1.379   6.340  0.00  0.00    -0.166 F 
ATOM     21  F   UNL     1       5.132   2.041   4.155  0.00  0.00    -0.166 F 
ATOM     22  F   UNL     1       6.533   3.091   5.623  0.00  0.00    -0.166 F 
ENDBRANCH  16  19
ENDBRANCH  10  13
BRANCH   1  23
ATOM     23  C   UNL     1      -0.258   6.000   2.108  0.00  0.00    +0.209 C 
BRANCH  23  25
ATOM     24  N   UNL     1       0.057   4.066   0.598  0.00  0.00    -0.311 N 
ATOM     25  C   UNL     1      -0.210   4.518   1.839  0.00  0.00    +0.231 C 
ATOM     26  O   UNL     1      -0.412   3.731   2.740  0.00  0.00    -0.274 OA
ATOM     27  H   UNL     1       0.239   4.780  -0.220  0.00  0.00    +0.149 HD
BRANCH  24  32
ATOM     28  C   UNL     1      -1.577   3.285  -3.597  0.00  0.00    +0.007 C 
ATOM     29  C   UNL     1      -1.001   2.564  -2.377  0.00  0.00    -0.014 C 
ATOM     30  C   UNL     1       0.413   3.078  -2.101  0.00  0.00    +0.005 C 
ATOM     31  C   UNL     1       0.990   2.356  -0.881  0.00  0.00    +0.022 C 
ATOM     32  C   UNL     1       0.103   2.626   0.336  0.00  0.00    +0.073 C 
ATOM     33  C   UNL     1      -1.312   2.111   0.061  0.00  0.00    +0.022 C 
ATOM     34  C   UNL     1      -1.888   2.833  -1.159  0.00  0.00    +0.005 C 
ENDBRANCH  24  32
ENDBRANCH  23  25
ENDBRANCH   1  23
TORSDOF 5
