REMARK  Name = ZINC20086251
REMARK  4 active torsions:
REMARK  status: ('A' for Active; 'I' for Inactive)
REMARK    1  A    between atoms: C_1  and  N_2
REMARK    2  A    between atoms: C_13  and  C_21
REMARK    3  A    between atoms: C_15  and  C_19
REMARK    4  A    between atoms: C_16  and  N_18
REMARK                            x       y       z     vdW  Elec       q    Type
REMARK                         _______ _______ _______ _____ _____    ______ ____
ROOT
ATOM      1  C   UNL     1      -2.420  -0.389   0.021  0.00  0.00    +0.152 C 
ATOM      2  N   UNL     1      -2.424   1.076   0.029  0.00  0.00    -0.311 N 
ATOM      3  C   UNL     1      -1.225   1.758   0.017  0.00  0.00    +0.055 A 
ATOM      4  C   UNL     1      -0.013   1.076   0.008  0.00  0.00    +0.026 A 
ATOM      5  C   UNL     1       1.170   1.784   0.001  0.00  0.00    +0.002 A 
ATOM      6  C   UNL     1       1.164   3.172   0.008  0.00  0.00    +0.001 A 
ATOM      7  C   UNL     1      -0.016   3.862   0.023  0.00  0.00    +0.013 A 
ATOM      8  C   UNL     1      -1.226   3.163   0.031  0.00  0.00    +0.041 A 
ATOM      9  C   UNL     1      -2.514   3.873   0.048  0.00  0.00    +0.148 A 
ATOM     10  C   UNL     1      -3.661   3.138   0.054  0.00  0.00    +0.072 A 
ATOM     11  C   UNL     1      -3.596   1.733   0.044  0.00  0.00    +0.259 A 
ATOM     12  O   UNL     1      -4.634   1.092   0.048  0.00  0.00    -0.267 OA
ATOM     13  C   UNL     1      -5.005   3.817   0.072  0.00  0.00    +0.105 C 
ATOM     14  C   UNL     1      -4.864   5.260  -0.326  0.00  0.00    +0.098 C 
ATOM     15  C   UNL     1      -3.656   5.874  -0.311  0.00  0.00    +0.199 C 
ATOM     16  O   UNL     1      -2.540   5.220   0.057  0.00  0.00    -0.440 OA
ENDROOT
BRANCH  13  17
ATOM     17  C   UNL     1      -5.586   3.736   1.460  0.00  0.00    -0.010 A 
ATOM     18  C   UNL     1      -5.050   4.243   2.581  0.00  0.00    +0.088 A 
ATOM     19  N   UNL     1      -5.863   3.976   3.649  0.00  0.00    -0.360 N 
ATOM     20  H   UNL     1      -5.582   4.324   4.654  0.00  0.00    +0.165 HD
ATOM     21  C   UNL     1      -6.966   3.266   3.232  0.00  0.00    +0.047 A 
ATOM     22  C   UNL     1      -6.842   3.085   1.842  0.00  0.00    +0.004 A 
ATOM     23  C   UNL     1      -7.828   2.392   1.139  0.00  0.00    +0.010 A 
ATOM     24  C   UNL     1      -8.911   1.891   1.805  0.00  0.00    +0.001 A 
ATOM     25  C   UNL     1      -9.039   2.067   3.176  0.00  0.00    +0.002 A 
ATOM     26  C   UNL     1      -8.077   2.749   3.889  0.00  0.00    +0.026 A 
ENDBRANCH  13  17
BRANCH  15  27
ATOM     27  N   UNL     1      -3.569   7.193  -0.680  0.00  0.00    -0.328 N 
ATOM     28  H   UNL     1      -2.595   7.703  -0.673  0.00  0.00    +0.145 HD
ATOM     29  H   UNL     1      -4.474   7.739  -0.983  0.00  0.00    +0.145 HD
ENDBRANCH  15  27
BRANCH  14  30
ATOM     30  C   UNL     1      -6.024   5.997  -0.727  0.00  0.00    +0.101 C 
ATOM     31  N   UNL     1      -6.944   6.582  -1.045  0.00  0.00    -0.191 NA
ENDBRANCH  14  30
TORSDOF 3
