REMARK  Name = ZINC39576812
REMARK  7 active torsions:
REMARK  status: ('A' for Active; 'I' for Inactive)
REMARK    1  A    between atoms: C_1  and  C_2
REMARK    2  A    between atoms: C_4  and  S_9
REMARK    3  A    between atoms: C_5  and  C_8
REMARK    4  A    between atoms: S_9  and  N_12
REMARK    5  A    between atoms: N_12  and  C_13
REMARK    6  A    between atoms: C_13  and  C_18
REMARK    7  A    between atoms: C_18  and  N_19
REMARK                            x       y       z     vdW  Elec       q    Type
REMARK                         _______ _______ _______ _____ _____    ______ ____
ROOT
ATOM      1  N   UNL     1       0.783   1.369  -4.530  0.00  0.00    -0.186 NA
ATOM      2  H   UNL     1       0.371   0.706  -3.955  0.00  0.00    +0.149 HD
ENDROOT
BRANCH   1   3
ATOM      3  C   UNL     1       2.165   1.793  -4.288  0.00  0.00    +0.025 C 
ATOM      4  C   UNL     1       2.605   1.411  -2.853  0.00  0.00    +0.022 C 
ATOM      5  C   UNL     1       1.992   2.546  -1.994  0.00  0.00    +0.002 C 
ATOM      6  C   UNL     1       2.162   3.810  -2.861  0.00  0.00    +0.002 C 
ATOM      7  C   UNL     1       2.272   3.331  -4.320  0.00  0.00    +0.022 C 
BRANCH   3   8
ATOM      8  C   UNL     1       3.104   1.169  -5.322  0.00  0.00    -0.062 C 
BRANCH   8   9
ATOM      9  N   UNL     1       3.045  -0.295  -5.218  0.00  0.00    +0.379 N 
ATOM     10  H   UNL     1       3.369  -0.580  -4.306  0.00  0.00    -0.090 HD
ATOM     11  H   UNL     1       2.093  -0.603  -5.348  0.00  0.00    -0.090 HD
ATOM     12  H   UNL     1       3.632  -0.707  -5.927  0.00  0.00    -0.090 HD
ENDBRANCH   8   9
ENDBRANCH   3   8
ENDBRANCH   1   3
BRANCH   1  13
ATOM     13  S   UNL     1      -0.075   2.023  -5.787  0.00  0.00    +0.059 S 
ATOM     14  O   UNL     1      -0.099   3.428  -5.574  0.00  0.00    -0.153 OA
ATOM     15  O   UNL     1      -1.261   1.252  -5.913  0.00  0.00    -0.153 OA
BRANCH  13  18
ATOM     16  C   UNL     1       1.332  -0.708  -7.380  0.00  0.00    +0.041 C 
ATOM     17  C   UNL     1       0.862   0.527  -8.151  0.00  0.00    +0.176 C 
ATOM     18  C   UNL     1       0.862   1.752  -7.254  0.00  0.00    +0.131 C 
ATOM     19  C   UNL     1       1.736   2.576  -7.836  0.00  0.00    +0.084 C 
ATOM     20  N   UNL     1       2.256   2.015  -8.950  0.00  0.00    -0.157 NA
ATOM     21  N   UNL     1       1.828   0.882  -9.204  0.00  0.00    -0.178 NA
ATOM     22  C   UNL     1       2.095   3.945  -7.320  0.00  0.00    +0.069 C 
ENDBRANCH  13  18
ENDBRANCH   1  13
TORSDOF 5
