REMARK  Name = ZINC36734482
REMARK  9 active torsions:
REMARK  status: ('A' for Active; 'I' for Inactive)
REMARK    1  A    between atoms: C_1  and  C_2
REMARK    2  A    between atoms: C_5  and  S_9
REMARK    3  A    between atoms: C_7  and  C_8
REMARK    4  A    between atoms: S_9  and  N_12
REMARK    5  A    between atoms: C_14  and  O_30
REMARK    6  A    between atoms: C_17  and  C_19
REMARK    7  A    between atoms: C_19  and  O_21
REMARK    8  A    between atoms: O_21  and  C_22
REMARK    9  A    between atoms: C_22  and  C_23
REMARK                            x       y       z     vdW  Elec       q    Type
REMARK                         _______ _______ _______ _____ _____    ______ ____
ROOT
ATOM      1  N   UNL     1       1.127  -5.299   0.553  0.00  0.00    -0.160 NA
ATOM      2  C   UNL     1       1.496  -5.258  -0.874  0.00  0.00    +0.141 C 
ATOM      3  C   UNL     1       2.930  -5.841  -0.930  0.00  0.00    +0.132 C 
ATOM      4  C   UNL     1       3.547  -5.274   0.376  0.00  0.00    +0.064 C 
ATOM      5  C   UNL     1       2.357  -5.287   1.358  0.00  0.00    +0.191 C 
ENDROOT
BRANCH   1   6
ATOM      6  S   UNL     1      -0.417  -5.342   1.150  0.00  0.00    +0.062 S 
ATOM      7  O   UNL     1      -1.238  -4.673   0.202  0.00  0.00    -0.153 OA
ATOM      8  O   UNL     1      -0.338  -4.938   2.510  0.00  0.00    -0.153 OA
BRANCH   6  13
ATOM      9  C   UNL     1      -2.164 -11.117   1.166  0.00  0.00    +0.044 C 
ATOM     10  C   UNL     1      -1.728  -9.675   1.162  0.00  0.00    -0.047 A 
ATOM     11  C   UNL     1      -1.004  -9.168   2.226  0.00  0.00    +0.005 A 
ATOM     12  C   UNL     1      -0.604  -7.846   2.222  0.00  0.00    +0.029 A 
ATOM     13  C   UNL     1      -0.927  -7.029   1.154  0.00  0.00    +0.106 A 
ATOM     14  C   UNL     1      -1.649  -7.535   0.090  0.00  0.00    +0.032 A 
ATOM     15  C   UNL     1      -2.046  -8.860   0.092  0.00  0.00    -0.046 A 
ATOM     16  C   UNL     1      -2.829  -9.414  -1.070  0.00  0.00    +0.044 C 
ENDBRANCH   6  13
ENDBRANCH   1   6
BRANCH   5  17
ATOM     17  C   UNL     1       2.390  -4.055   2.225  0.00  0.00    +0.327 C 
ATOM     18  O   UNL     1       1.798  -3.059   1.882  0.00  0.00    -0.249 OA
BRANCH  17  19
ATOM     19  O   UNL     1       3.078  -4.064   3.377  0.00  0.00    -0.459 OA
BRANCH  19  20
ATOM     20  C   UNL     1       3.066  -2.861   4.149  0.00  0.00    +0.269 C 
BRANCH  20  21
ATOM     21  C   UNL     1       3.885  -3.058   5.399  0.00  0.00    +0.008 A 
ATOM     22  C   UNL     1       3.293  -3.536   6.558  0.00  0.00    +0.011 A 
ATOM     23  C   UNL     1       4.084  -3.702   7.684  0.00  0.00    +0.040 A 
ATOM     24  C   UNL     1       5.430  -3.387   7.614  0.00  0.00    +0.129 A 
ATOM     25  N   UNL     1       5.959  -2.934   6.493  0.00  0.00    -0.243 NA
ATOM     26  C   UNL     1       5.236  -2.770   5.402  0.00  0.00    +0.119 A 
ATOM     27 CL   UNL     1       6.433  -3.589   9.016  0.00  0.00    -0.062 Cl
ENDBRANCH  20  21
ENDBRANCH  19  20
ENDBRANCH  17  19
ENDBRANCH   5  17
BRANCH   3  28
ATOM     28  O   UNL     1       3.632  -5.364  -2.079  0.00  0.00    -0.390 OA
ATOM     29  H   UNL     1       3.225  -5.613  -2.920  0.00  0.00    +0.210 HD
ENDBRANCH   3  28
TORSDOF 7
