REMARK  Name = ZINC01515431
REMARK  4 active torsions:
REMARK  status: ('A' for Active; 'I' for Inactive)
REMARK    1  A    between atoms: C_1  and  C_2
REMARK    2  A    between atoms: C_7  and  N_8
REMARK    3  A    between atoms: N_19  and  S_20
REMARK    4  A    between atoms: S_20  and  C_23
REMARK                            x       y       z     vdW  Elec       q    Type
REMARK                         _______ _______ _______ _____ _____    ______ ____
ROOT
ATOM      1  N   UNL     1       1.200  -3.739  -4.278  0.00  0.00    -0.296 N 
ATOM      2  C   UNL     1       2.338  -3.139  -3.760  0.00  0.00    +0.165 A 
ATOM      3  C   UNL     1       2.453  -2.938  -2.363  0.00  0.00    +0.179 A 
ATOM      4  N   UNL     1       3.525  -2.364  -1.858  0.00  0.00    -0.226 NA
ATOM      5  C   UNL     1       4.520  -1.978  -2.672  0.00  0.00    +0.091 A 
ATOM      6  C   UNL     1       5.676  -1.370  -2.157  0.00  0.00    +0.030 A 
ATOM      7  C   UNL     1       6.669  -0.981  -3.004  0.00  0.00    +0.002 A 
ATOM      8  C   UNL     1       6.556  -1.178  -4.377  0.00  0.00    +0.002 A 
ATOM      9  C   UNL     1       5.449  -1.766  -4.911  0.00  0.00    +0.030 A 
ATOM     10  C   UNL     1       4.405  -2.179  -4.068  0.00  0.00    +0.091 A 
ATOM     11  N   UNL     1       3.305  -2.760  -4.569  0.00  0.00    -0.227 NA
ATOM     12  N   UNL     1       1.427  -3.342  -1.522  0.00  0.00    -0.197 N 
ATOM     13  H   UNL     1       0.448  -3.937  -3.698  0.00  0.00    +0.154 HD
ATOM     14  H   UNL     1       0.634  -3.761  -1.891  0.00  0.00    +0.175 HD
ENDROOT
BRANCH   1  21
ATOM     15  C   UNL     1      -1.349  -3.721  -5.543  0.00  0.00    +0.045 C 
ATOM     16  C   UNL     1      -0.088  -4.062  -6.295  0.00  0.00    -0.029 A 
ATOM     17  C   UNL     1      -0.147  -4.378  -7.638  0.00  0.00    +0.005 A 
ATOM     18  C   UNL     1       1.009  -4.690  -8.328  0.00  0.00    +0.000 A 
ATOM     19  C   UNL     1       2.229  -4.687  -7.677  0.00  0.00    +0.002 A 
ATOM     20  C   UNL     1       2.297  -4.368  -6.335  0.00  0.00    +0.023 A 
ATOM     21  C   UNL     1       1.136  -4.059  -5.637  0.00  0.00    +0.035 A 
ENDBRANCH   1  21
BRANCH  12  22
ATOM     22  S   UNL     1       1.556  -3.109   0.113  0.00  0.00    +0.074 S 
ATOM     23  O   UNL     1       2.835  -3.598   0.493  0.00  0.00    -0.150 OA
ATOM     24  O   UNL     1       0.352  -3.596   0.689  0.00  0.00    -0.150 OA
BRANCH  22  25
ATOM     25  C   UNL     1       1.579  -1.369   0.391  0.00  0.00    +0.109 A 
ATOM     26  C   UNL     1       0.395  -0.686   0.594  0.00  0.00    +0.030 A 
ATOM     27  C   UNL     1       0.413   0.679   0.812  0.00  0.00    +0.017 A 
ATOM     28  C   UNL     1       1.616   1.361   0.827  0.00  0.00    +0.018 A 
ATOM     29  C   UNL     1       2.801   0.677   0.624  0.00  0.00    +0.017 A 
ATOM     30  C   UNL     1       2.782  -0.688   0.406  0.00  0.00    +0.030 A 
ATOM     31 BR   UNL     1       1.641   3.228   1.126  0.00  0.00    -0.050 Br
ENDBRANCH  22  25
ENDBRANCH  12  22
TORSDOF 3
