REMARK  Name = ZINC39710833
REMARK  9 active torsions:
REMARK  status: ('A' for Active; 'I' for Inactive)
REMARK    1  A    between atoms: C_1  and  C_2
REMARK    2  A    between atoms: C_8  and  C_14
REMARK    3  A    between atoms: C_14  and  C_16
REMARK    4  A    between atoms: C_14  and  N_25
REMARK    5  A    between atoms: N_20  and  C_21
REMARK    6  A    between atoms: C_21  and  C_22
REMARK    7  A    between atoms: C_22  and  O_23
REMARK    8  A    between atoms: O_23  and  C_24
REMARK    9  A    between atoms: N_28  and  C_31
REMARK                            x       y       z     vdW  Elec       q    Type
REMARK                         _______ _______ _______ _____ _____    ______ ____
ROOT
ATOM      1  C   UNL     1       1.370  -2.466   4.500  0.00  0.00    +0.142 C 
ENDROOT
BRANCH   1   9
ATOM      2  C   UNL     1      -3.521  -4.022   1.134  0.00  0.00    +0.045 C 
ATOM      3  C   UNL     1      -3.379  -3.708   2.601  0.00  0.00    -0.029 A 
ATOM      4  C   UNL     1      -4.373  -4.048   3.462  0.00  0.00    +0.005 A 
ATOM      5  C   UNL     1      -4.305  -3.786   4.831  0.00  0.00    +0.001 A 
ATOM      6  C   UNL     1      -3.227  -3.168   5.380  0.00  0.00    +0.009 A 
ATOM      7  C   UNL     1      -2.120  -2.775   4.509  0.00  0.00    -0.007 A 
ATOM      8  C   UNL     1      -1.018  -2.153   5.016  0.00  0.00    -0.003 C 
ATOM      9  C   UNL     1       0.082  -1.781   4.040  0.00  0.00    +0.123 C 
ATOM     10  C   UNL     1      -0.134  -2.129   2.585  0.00  0.00    +0.226 C 
ATOM     11  O   UNL     1       0.715  -1.854   1.759  0.00  0.00    -0.275 OA
ATOM     12  N   UNL     1      -1.250  -2.735   2.213  0.00  0.00    -0.284 N 
ATOM     13  C   UNL     1      -2.216  -3.069   3.069  0.00  0.00    +0.043 A 
ATOM     14  H   UNL     1      -1.368  -2.949   1.275  0.00  0.00    +0.155 HD
ENDBRANCH   1   9
BRANCH   1  15
ATOM     15  N   UNL     1       1.644  -2.106   5.898  0.00  0.00    -0.289 NA
ATOM     16  C   UNL     1       1.851  -0.658   6.038  0.00  0.00    +0.104 C 
ATOM     17  C   UNL     1       1.953  -0.302   7.525  0.00  0.00    +0.120 C 
ATOM     18  N   UNL     1       2.994  -1.141   8.137  0.00  0.00    -0.325 N 
ATOM     19  C   UNL     1       2.929  -2.595   7.924  0.00  0.00    +0.120 C 
ATOM     20  C   UNL     1       2.789  -2.862   6.422  0.00  0.00    +0.104 C 
BRANCH  18  21
ATOM     21  C   UNL     1       4.018  -0.573   8.901  0.00  0.00    +0.065 A 
ATOM     22  C   UNL     1       3.856  -0.410  10.270  0.00  0.00    +0.026 A 
ATOM     23  C   UNL     1       4.869   0.152  11.023  0.00  0.00    +0.002 A 
ATOM     24  C   UNL     1       6.044   0.553  10.414  0.00  0.00    +0.003 A 
ATOM     25  C   UNL     1       6.210   0.393   9.050  0.00  0.00    +0.040 A 
ATOM     26  C   UNL     1       5.203  -0.174   8.292  0.00  0.00    +0.144 A 
ATOM     27  F   UNL     1       5.367  -0.336   6.961  0.00  0.00    -0.204 F 
ENDBRANCH  18  21
ENDBRANCH   1  15
BRANCH   1  28
ATOM     28  C   UNL     1       2.516  -2.015   3.632  0.00  0.00    +0.170 A 
ATOM     29  N   UNL     1       2.987  -0.797   3.527  0.00  0.00    -0.112 NA
ATOM     30  N   UNL     1       3.964  -0.818   2.688  0.00  0.00    -0.023 NA
ATOM     31  N   UNL     1       4.129  -2.019   2.255  0.00  0.00    -0.044 NA
ATOM     32  N   UNL     1       3.259  -2.788   2.817  0.00  0.00    -0.225 N 
BRANCH  32  33
ATOM     33  C   UNL     1       3.105  -4.229   2.606  0.00  0.00    +0.175 C 
BRANCH  33  34
ATOM     34  C   UNL     1       2.118  -4.475   1.464  0.00  0.00    +0.183 C 
BRANCH  34  35
ATOM     35  O   UNL     1       1.933  -5.881   1.288  0.00  0.00    -0.381 OA
ATOM     36  C   UNL     1       1.025  -6.222   0.239  0.00  0.00    +0.194 C 
ENDBRANCH  34  35
ENDBRANCH  33  34
ENDBRANCH  32  33
ENDBRANCH   1  28
TORSDOF 7
