REMARK  Name = ZINC50138337
REMARK  8 active torsions:
REMARK  status: ('A' for Active; 'I' for Inactive)
REMARK    1  A    between atoms: C_1  and  C_2
REMARK    2  A    between atoms: C_2  and  O_3
REMARK    3  A    between atoms: O_3  and  C_4
REMARK    4  A    between atoms: C_4  and  C_6
REMARK    5  A    between atoms: N_14  and  C_15
REMARK    6  A    between atoms: C_15  and  C_17
REMARK    7  A    between atoms: C_15  and  C_18
REMARK    8  A    between atoms: C_20  and  C_23
REMARK                            x       y       z     vdW  Elec       q    Type
REMARK                         _______ _______ _______ _____ _____    ______ ____
ROOT
ATOM      1  C   UNL     1       3.406  -2.280  -3.475  0.00  0.00    +0.101 C 
ATOM      2  C   UNL     1       3.560  -3.802  -3.496  0.00  0.00    +0.034 C 
ATOM      3  C   UNL     1       2.187  -4.447  -3.709  0.00  0.00    +0.110 C 
ATOM      4  N   UNL     1       1.584  -3.885  -4.926  0.00  0.00    -0.286 N 
ATOM      5  C   UNL     1       1.471  -2.425  -5.048  0.00  0.00    +0.110 C 
ATOM      6  C   UNL     1       2.852  -1.803  -4.820  0.00  0.00    +0.034 C 
ATOM      7  C   UNL     1       1.144  -4.693  -5.910  0.00  0.00    +0.303 C 
ATOM      8  O   UNL     1       0.565  -4.222  -6.870  0.00  0.00    -0.253 OA
ATOM      9  N   UNL     1       1.345  -6.024  -5.831  0.00  0.00    -0.288 N 
ATOM     10  H   UNL     1       1.741  -6.407  -5.033  0.00  0.00    +0.151 HD
ENDROOT
BRANCH   1  11
ATOM     11  C   UNL     1       4.750  -1.643  -3.231  0.00  0.00    +0.310 C 
ATOM     12  O   UNL     1       5.216  -0.885  -4.048  0.00  0.00    -0.251 OA
BRANCH  11  13
ATOM     13  O   UNL     1       5.428  -1.917  -2.106  0.00  0.00    -0.465 OA
BRANCH  13  15
ATOM     14  C   UNL     1       7.314  -1.708  -0.609  0.00  0.00    +0.048 C 
ATOM     15  C   UNL     1       6.695  -1.277  -1.940  0.00  0.00    +0.229 C 
ENDBRANCH  13  15
ENDBRANCH  11  13
ENDBRANCH   1  11
BRANCH   9  16
ATOM     16  C   UNL     1       0.967  -6.890  -6.951  0.00  0.00    +0.160 C 
ATOM     17  C   UNL     1       2.104  -6.926  -7.974  0.00  0.00    +0.038 C 
BRANCH  16  18
ATOM     18  C   UNL     1       0.705  -8.283  -6.441  0.00  0.00    +0.248 A 
ATOM     19  N   UNL     1      -0.302  -9.039  -6.775  0.00  0.00    -0.190 NA
ATOM     20  C   UNL     1      -0.226 -10.219  -6.133  0.00  0.00    +0.202 A 
ATOM     21  N   UNL     1       0.845 -10.216  -5.379  0.00  0.00    -0.056 NA
ATOM     22  O   UNL     1       1.471  -8.956  -5.573  0.00  0.00    -0.336 OA
BRANCH  20  23
ATOM     23  C   UNL     1      -1.194 -11.336  -6.259  0.00  0.00    +0.023 A 
ATOM     24  C   UNL     1      -2.295 -11.216  -7.104  0.00  0.00    +0.014 A 
ATOM     25  C   UNL     1      -3.192 -12.257  -7.218  0.00  0.00    +0.039 A 
ATOM     26  C   UNL     1      -2.999 -13.423  -6.494  0.00  0.00    +0.123 A 
ATOM     27  C   UNL     1      -1.905 -13.547  -5.652  0.00  0.00    +0.039 A 
ATOM     28  C   UNL     1      -1.000 -12.512  -5.537  0.00  0.00    +0.014 A 
ATOM     29  F   UNL     1      -3.880 -14.441  -6.609  0.00  0.00    -0.205 F 
ENDBRANCH  20  23
ENDBRANCH  16  18
ENDBRANCH   9  16
TORSDOF 6
