REMARK  Name = ZINC12180144
REMARK  9 active torsions:
REMARK  status: ('A' for Active; 'I' for Inactive)
REMARK    1  A    between atoms: C_1  and  C_2
REMARK    2  A    between atoms: C_5  and  N_9
REMARK    3  A    between atoms: C_7  and  C_8
REMARK    4  A    between atoms: C_11  and  N_16
REMARK    5  A    between atoms: C_24  and  O_33
REMARK    6  A    between atoms: C_25  and  O_31
REMARK    7  A    between atoms: C_28  and  C_30
REMARK    8  A    between atoms: O_31  and  C_32
REMARK    9  A    between atoms: O_33  and  C_34
REMARK                            x       y       z     vdW  Elec       q    Type
REMARK                         _______ _______ _______ _____ _____    ______ ____
ROOT
ATOM      1  N   UNL     1      -1.028  -2.414  -1.802  0.00  0.00    -0.294 N 
ATOM      2  C   UNL     1      -1.073  -3.649  -2.340  0.00  0.00    +0.303 C 
ATOM      3  O   UNL     1      -0.985  -4.628  -1.624  0.00  0.00    -0.253 OA
ATOM      4  N   UNL     1      -1.217  -3.800  -3.672  0.00  0.00    -0.279 N 
ATOM      5  C   UNL     1      -1.381  -5.131  -4.279  0.00  0.00    +0.114 C 
ATOM      6  C   UNL     1      -0.176  -5.397  -5.171  0.00  0.00    +0.054 C 
ATOM      7  C   UNL     1       0.108  -4.212  -6.057  0.00  0.00    -0.037 A 
ATOM      8  C   UNL     1       0.881  -4.429  -7.191  0.00  0.00    +0.053 A 
ATOM      9  C   UNL     1       1.201  -3.383  -8.036  0.00  0.00    +0.162 A 
ATOM     10  C   UNL     1       0.743  -2.101  -7.748  0.00  0.00    +0.162 A 
ATOM     11  C   UNL     1      -0.031  -1.889  -6.622  0.00  0.00    +0.055 A 
ATOM     12  C   UNL     1      -0.353  -2.945  -5.779  0.00  0.00    -0.020 A 
ATOM     13  C   UNL     1      -1.210  -2.644  -4.575  0.00  0.00    +0.105 C 
ATOM     14  C   UNL     1      -2.640  -2.346  -5.031  0.00  0.00    +0.033 C 
ATOM     15  H   UNL     1      -1.173  -1.636  -2.362  0.00  0.00    +0.151 HD
ENDROOT
BRANCH   1  18
ATOM     16  N   UNL     1      -0.016   0.002   0.001  0.00  0.00    -0.270 N 
ATOM     17  C   UNL     1      -1.204  -0.852   0.123  0.00  0.00    +0.136 C 
ATOM     18  C   UNL     1      -0.758  -2.248  -0.372  0.00  0.00    +0.101 C 
ATOM     19  C   UNL     1       0.763  -2.206  -0.097  0.00  0.00    +0.120 C 
ATOM     20  C   UNL     1       1.103  -0.733  -0.115  0.00  0.00    +0.222 C 
ATOM     21  O   UNL     1       2.224  -0.279  -0.218  0.00  0.00    -0.275 OA
BRANCH  16  26
ATOM     22  C   UNL     1      -0.135   5.674   0.036  0.00  0.00    +0.044 C 
ATOM     23  C   UNL     1      -0.103   4.167   0.027  0.00  0.00    -0.047 A 
ATOM     24  C   UNL     1      -1.287   3.452   0.028  0.00  0.00    +0.005 A 
ATOM     25  C   UNL     1      -1.262   2.071   0.014  0.00  0.00    +0.024 A 
ATOM     26  C   UNL     1      -0.046   1.401   0.010  0.00  0.00    +0.037 A 
ATOM     27  C   UNL     1       1.141   2.122   0.009  0.00  0.00    +0.027 A 
ATOM     28  C   UNL     1       1.109   3.503   0.017  0.00  0.00    -0.046 A 
ATOM     29  C   UNL     1       2.397   4.286   0.016  0.00  0.00    +0.044 C 
ENDBRANCH  16  26
ENDBRANCH   1  18
BRANCH  10  30
ATOM     30  O   UNL     1       1.055  -1.062  -8.569  0.00  0.00    -0.491 OA
ATOM     31  C   UNL     1       0.549   0.225  -8.209  0.00  0.00    +0.277 C 
ENDBRANCH  10  30
BRANCH   9  32
ATOM     32  O   UNL     1       1.958  -3.606  -9.143  0.00  0.00    -0.491 OA
ATOM     33  C   UNL     1       2.392  -4.948  -9.374  0.00  0.00    +0.277 C 
ENDBRANCH   9  32
TORSDOF 4
