REMARK  Name = ZINC64044010
REMARK  5 active torsions:
REMARK  status: ('A' for Active; 'I' for Inactive)
REMARK    1  A    between atoms: C_1  and  C_2
REMARK    2  A    between atoms: C_2  and  C_3
REMARK    3  A    between atoms: C_6  and  C_9
REMARK    4  A    between atoms: C_24  and  C_26
REMARK    5  A    between atoms: C_26  and  N_27
REMARK                            x       y       z     vdW  Elec       q    Type
REMARK                         _______ _______ _______ _____ _____    ______ ____
ROOT
ATOM      1  C   UNL     1       2.707  -1.868  -4.752  0.00  0.00    +0.133 C 
ATOM      2  C   UNL     1       3.298  -0.677  -5.514  0.00  0.00    +0.131 C 
ATOM      3  C   UNL     1       4.463  -0.162  -4.679  0.00  0.00    -0.035 C 
ATOM      4  C   UNL     1       4.220   1.123  -4.449  0.00  0.00    -0.001 A 
ATOM      5  C   UNL     1       5.007   2.161  -3.765  0.00  0.00    +0.010 A 
ATOM      6  C   UNL     1       4.441   3.396  -3.698  0.00  0.00    +0.001 A 
ATOM      7  C   UNL     1       3.187   3.697  -4.236  0.00  0.00    +0.002 A 
ATOM      8  C   UNL     1       2.396   2.805  -4.885  0.00  0.00    +0.026 A 
ATOM      9  C   UNL     1       2.885   1.474  -5.024  0.00  0.00    +0.043 A 
ATOM     10  N   UNL     1       2.344   0.428  -5.622  0.00  0.00    -0.375 N 
ATOM     11  C   UNL     1       5.577  -1.060  -4.201  0.00  0.00    +0.052 C 
ATOM     12  C   UNL     1       4.910  -2.274  -3.529  0.00  0.00    +0.113 C 
ATOM     13  N   UNL     1       3.815  -2.760  -4.377  0.00  0.00    -0.290 N 
ATOM     14  C   UNL     1       3.825  -4.034  -4.816  0.00  0.00    +0.234 C 
ATOM     15  O   UNL     1       2.923  -4.440  -5.518  0.00  0.00    -0.274 OA
ATOM     16  H   UNL     1       1.475   0.387  -6.052  0.00  0.00    +0.160 HD
ENDROOT
BRANCH   1  20
ATOM     17  C   UNL     1       0.707  -0.486  -1.240  0.00  0.00    -0.048 A 
ATOM     18  C   UNL     1       2.062  -0.259  -1.398  0.00  0.00    +0.004 A 
ATOM     19  C   UNL     1       2.709  -0.707  -2.535  0.00  0.00    +0.006 A 
ATOM     20  C   UNL     1       2.002  -1.381  -3.513  0.00  0.00    -0.025 A 
ATOM     21  C   UNL     1       0.647  -1.609  -3.353  0.00  0.00    +0.006 A 
ATOM     22  C   UNL     1       0.001  -1.165  -2.215  0.00  0.00    +0.004 A 
BRANCH  17  24
ATOM     23  C   UNL     1       0.056  -1.083   1.077  0.00  0.00    +0.009 C 
ATOM     24  C   UNL     1       0.002   0.002  -0.000  0.00  0.00    +0.032 C 
ENDBRANCH  17  24
ENDBRANCH   1  20
BRANCH  14  25
ATOM     25  C   UNL     1       4.956  -4.954  -4.436  0.00  0.00    +0.213 C 
BRANCH  25  26
ATOM     26  N   UNL     1       4.736  -6.273  -5.034  0.00  0.00    -0.223 N 
ATOM     27  C   UNL     1       4.049  -7.167  -4.343  0.00  0.00    +0.233 C 
ATOM     28  O   UNL     1       3.601  -6.930  -3.241  0.00  0.00    -0.274 OA
ATOM     29  C   UNL     1       3.858  -8.514  -5.027  0.00  0.00    +0.175 C 
ATOM     30  S   UNL     1       4.755  -8.195  -6.603  0.00  0.00    -0.058 S 
ATOM     31  C   UNL     1       5.238  -6.509  -6.260  0.00  0.00    +0.282 C 
ATOM     32  O   UNL     1       5.874  -5.753  -6.968  0.00  0.00    -0.262 OA
ENDBRANCH  25  26
ENDBRANCH  14  25
TORSDOF 4
