REMARK  Name = ZINC35231783
REMARK  11 active torsions:
REMARK  status: ('A' for Active; 'I' for Inactive)
REMARK    1  A    between atoms: C_1  and  C_2
REMARK    2  A    between atoms: C_2  and  C_3
REMARK    3  A    between atoms: C_3  and  C_4
REMARK    4  A    between atoms: C_4  and  N_5
REMARK    5  A    between atoms: N_5  and  C_6
REMARK    6  A    between atoms: C_6  and  C_7
REMARK    7  A    between atoms: C_21  and  C_23
REMARK    8  A    between atoms: C_26  and  C_29
REMARK    9  A    between atoms: N_32  and  C_33
REMARK   10  A    between atoms: C_36  and  C_39
REMARK   11  A    between atoms: C_39  and  C_40
REMARK                            x       y       z     vdW  Elec       q    Type
REMARK                         _______ _______ _______ _____ _____    ______ ____
ROOT
ATOM      1  C   UNL     1       3.400  -3.726  -2.098  0.00  0.00    +0.238 C 
ATOM      2  O   UNL     1       2.611  -4.601  -1.809  0.00  0.00    -0.273 OA
ATOM      3  N   UNL     1       4.720  -3.993  -2.130  0.00  0.00    -0.255 N 
ATOM      4  C   UNL     1       5.173  -5.306  -1.944  0.00  0.00    +0.061 A 
ATOM      5  C   UNL     1       4.385  -6.383  -2.319  0.00  0.00    +0.025 A 
ATOM      6  C   UNL     1       4.840  -7.673  -2.120  0.00  0.00    +0.002 A 
ATOM      7  C   UNL     1       6.079  -7.899  -1.549  0.00  0.00    +0.002 A 
ATOM      8  C   UNL     1       6.876  -6.831  -1.175  0.00  0.00    +0.028 A 
ATOM      9  C   UNL     1       6.430  -5.540  -1.376  0.00  0.00    +0.068 A 
ATOM     10  N   UNL     1       7.213  -4.426  -1.038  0.00  0.00    -0.316 N 
ATOM     11  C   UNL     1       8.335  -4.343  -0.285  0.00  0.00    +0.092 A 
ATOM     12  C   UNL     1       8.720  -3.047  -0.244  0.00  0.00    +0.020 A 
ATOM     13  C   UNL     1       7.793  -2.303  -1.006  0.00  0.00    +0.025 A 
ATOM     14  C   UNL     1       6.886  -3.163  -1.482  0.00  0.00    +0.049 A 
ATOM     15  C   UNL     1       5.684  -2.906  -2.366  0.00  0.00    +0.159 C 
ENDROOT
BRANCH  15  16
ATOM     16  C   UNL     1       6.102  -2.898  -3.814  0.00  0.00    -0.021 A 
ATOM     17  C   UNL     1       6.321  -4.091  -4.476  0.00  0.00    +0.006 A 
ATOM     18  C   UNL     1       6.703  -4.084  -5.805  0.00  0.00    +0.004 A 
ATOM     19  C   UNL     1       6.867  -2.884  -6.471  0.00  0.00    -0.050 A 
ATOM     20  C   UNL     1       6.647  -1.691  -5.808  0.00  0.00    +0.004 A 
ATOM     21  C   UNL     1       6.260  -1.698  -4.481  0.00  0.00    +0.006 A 
ATOM     22  C   UNL     1       7.285  -2.876  -7.918  0.00  0.00    +0.044 C 
ENDBRANCH  15  16
BRANCH   1  23
ATOM     23  C   UNL     1       2.903  -2.341  -2.423  0.00  0.00    +0.205 C 
BRANCH  23  24
ATOM     24  N   UNL     1       1.438  -2.340  -2.442  0.00  0.00    -0.277 N 
ATOM     25  C   UNL     1       0.778  -2.600  -3.587  0.00  0.00    +0.307 C 
ATOM     26  O   UNL     1       1.399  -2.837  -4.606  0.00  0.00    -0.252 OA
ATOM     27  N   UNL     1      -0.570  -2.599  -3.605  0.00  0.00    -0.269 N 
ATOM     28  H   UNL     1      -1.064  -2.337  -2.813  0.00  0.00    +0.156 HD
BRANCH  27  29
ATOM     29  C   UNL     1      -1.255  -2.976  -4.765  0.00  0.00    +0.035 A 
ATOM     30  C   UNL     1      -2.466  -2.376  -5.083  0.00  0.00    +0.023 A 
ATOM     31  C   UNL     1      -3.140  -2.750  -6.230  0.00  0.00    +0.005 A 
ATOM     32  C   UNL     1      -2.610  -3.720  -7.060  0.00  0.00    -0.048 A 
ATOM     33  C   UNL     1      -1.404  -4.319  -6.745  0.00  0.00    +0.005 A 
ATOM     34  C   UNL     1      -0.722  -3.946  -5.604  0.00  0.00    +0.023 A 
BRANCH  32  35
ATOM     35  C   UNL     1      -3.348  -4.125  -8.310  0.00  0.00    +0.032 C 
ATOM     36  C   UNL     1      -2.897  -3.244  -9.476  0.00  0.00    +0.009 C 
ENDBRANCH  32  35
ENDBRANCH  27  29
BRANCH  24  37
ATOM     37  C   UNL     1       0.690  -2.055  -1.214  0.00  0.00    +0.110 C 
BRANCH  37  38
ATOM     38  C   UNL     1       0.435  -0.550  -1.110  0.00  0.00    +0.019 C 
BRANCH  38  40
ATOM     39  C   UNL     1      -0.601   1.253   0.276  0.00  0.00    +0.004 C 
ATOM     40  C   UNL     1      -0.346  -0.252   0.171  0.00  0.00    -0.002 C 
ENDBRANCH  38  40
ENDBRANCH  37  38
ENDBRANCH  24  37
ENDBRANCH  23  24
ENDBRANCH   1  23
TORSDOF 8
