REMARK  Name = ZINC00959797
REMARK  9 active torsions:
REMARK  status: ('A' for Active; 'I' for Inactive)
REMARK    1  A    between atoms: C_1  and  C_2
REMARK    2  A    between atoms: C_2  and  C_38
REMARK    3  A    between atoms: C_6  and  C_26
REMARK    4  A    between atoms: C_13  and  S_17
REMARK    5  A    between atoms: S_17  and  C_18
REMARK    6  A    between atoms: C_18  and  C_19
REMARK    7  A    between atoms: C_29  and  O_34
REMARK    8  A    between atoms: C_30  and  O_32
REMARK    9  A    between atoms: O_32  and  C_33
REMARK                            x       y       z     vdW  Elec       q    Type
REMARK                         _______ _______ _______ _____ _____    ______ ____
ROOT
ATOM      1  C   UNL     1       5.888  -0.241   2.330  0.00  0.00    +0.011 C 
ATOM      2  C   UNL     1       7.301   0.242   1.999  0.00  0.00    -0.023 C 
ATOM      3  C   UNL     1       7.504   1.657   2.546  0.00  0.00    +0.058 C 
ATOM      4  C   UNL     1       6.519   2.598   1.895  0.00  0.00    +0.017 C 
ATOM      5  C   UNL     1       6.086   2.386   0.634  0.00  0.00    +0.024 C 
ATOM      6  C   UNL     1       5.106   3.325  -0.024  0.00  0.00    +0.093 C 
ATOM      7  C   UNL     1       5.043   4.640   0.693  0.00  0.00    +0.069 A 
ATOM      8  C   UNL     1       4.491   5.763   0.066  0.00  0.00    +0.258 A 
ATOM      9  O   UNL     1       4.057   5.688  -1.073  0.00  0.00    -0.267 OA
ATOM     10  N   UNL     1       4.444   6.929   0.744  0.00  0.00    -0.302 N 
ATOM     11  H   UNL     1       4.066   7.718   0.325  0.00  0.00    +0.171 HD
ATOM     12  C   UNL     1       4.929   7.001   2.014  0.00  0.00    +0.171 A 
ATOM     13  N   UNL     1       5.452   5.948   2.609  0.00  0.00    -0.208 NA
ATOM     14  C   UNL     1       5.525   4.768   1.984  0.00  0.00    +0.135 A 
ATOM     15  N   UNL     1       6.079   3.673   2.618  0.00  0.00    -0.302 N 
ATOM     16  C   UNL     1       6.533   1.279  -0.109  0.00  0.00    +0.162 C 
ATOM     17  O   UNL     1       6.139   1.127  -1.248  0.00  0.00    -0.292 OA
ATOM     18  C   UNL     1       7.491   0.279   0.479  0.00  0.00    +0.086 C 
ATOM     19  C   UNL     1       8.329  -0.704   2.623  0.00  0.00    +0.011 C 
ATOM     20  H   UNL     1       6.158   3.666   3.585  0.00  0.00    +0.153 HD
ENDROOT
BRANCH   6  21
ATOM     21  C   UNL     1       3.738   2.693  -0.018  0.00  0.00    -0.032 A 
ATOM     22  C   UNL     1       3.120   2.397   1.183  0.00  0.00    +0.008 A 
ATOM     23  C   UNL     1       1.863   1.823   1.193  0.00  0.00    +0.049 A 
ATOM     24  C   UNL     1       1.224   1.533  -0.001  0.00  0.00    +0.158 A 
ATOM     25  C   UNL     1       1.845   1.831  -1.210  0.00  0.00    +0.162 A 
ATOM     26  C   UNL     1       3.103   2.412  -1.214  0.00  0.00    +0.054 A 
BRANCH  25  27
ATOM     27  O   UNL     1       1.219   1.555  -2.385  0.00  0.00    -0.491 OA
ATOM     28  C   UNL     1       1.917   1.889  -3.587  0.00  0.00    +0.277 C 
ENDBRANCH  25  27
BRANCH  24  29
ATOM     29  O   UNL     1      -0.011   0.963   0.007  0.00  0.00    -0.503 OA
ATOM     30  H   UNL     1       0.002  -0.004   0.002  0.00  0.00    +0.292 HD
ENDBRANCH  24  29
ENDBRANCH   6  21
BRANCH  12  31
ATOM     31  S   UNL     1       4.856   8.533   2.881  0.00  0.00    -0.083 S 
BRANCH  31  32
ATOM     32  C   UNL     1       5.612   8.043   4.451  0.00  0.00    +0.114 C 
BRANCH  32  33
ATOM     33  C   UNL     1       5.657   9.230   5.378  0.00  0.00    -0.019 A 
ATOM     34  C   UNL     1       6.759  10.065   5.380  0.00  0.00    +0.006 A 
ATOM     35  C   UNL     1       6.799  11.156   6.228  0.00  0.00    +0.000 A 
ATOM     36  C   UNL     1       5.740  11.407   7.082  0.00  0.00    +0.001 A 
ATOM     37  C   UNL     1       4.641  10.570   7.085  0.00  0.00    +0.020 A 
ATOM     38  C   UNL     1       4.598   9.481   6.233  0.00  0.00    +0.045 A 
ATOM     39 CL   UNL     1       3.217   8.429   6.236  0.00  0.00    -0.083 Cl
ENDBRANCH  32  33
ENDBRANCH  31  32
ENDBRANCH  12  31
TORSDOF 6
