REMARK  Name = ZINC40687354
REMARK  3 active torsions:
REMARK  status: ('A' for Active; 'I' for Inactive)
REMARK    1  A    between atoms: C_11  and  N_25
REMARK    2  A    between atoms: C_12  and  N_16
REMARK    3  A    between atoms: N_16  and  C_17
REMARK                            x       y       z     vdW  Elec       q    Type
REMARK                         _______ _______ _______ _____ _____    ______ ____
ROOT
ATOM      1  C   UNL     1       0.947  -1.736  -3.156  0.00  0.00    +0.000 A 
ATOM      2  C   UNL     1       2.241  -1.366  -3.473  0.00  0.00    +0.002 A 
ATOM      3  C   UNL     1       3.138  -1.056  -2.473  0.00  0.00    +0.024 A 
ATOM      4  C   UNL     1       2.748  -1.113  -1.133  0.00  0.00    +0.038 A 
ATOM      5  C   UNL     1       1.448  -1.486  -0.827  0.00  0.00    -0.025 A 
ATOM      6  C   UNL     1       0.552  -1.795  -1.832  0.00  0.00    +0.005 A 
ATOM      7  C   UNL     1       1.285  -1.468   0.676  0.00  0.00    +0.056 C 
ATOM      8  C   UNL     1       2.661  -1.037   1.209  0.00  0.00    +0.117 C 
ATOM      9  N   UNL     1       3.491  -0.843   0.017  0.00  0.00    -0.283 N 
ATOM     10  C   UNL     1       4.824  -0.447   0.030  0.00  0.00    +0.151 A 
ATOM     11  C   UNL     1       5.165   0.900  -0.115  0.00  0.00    +0.104 A 
ATOM     12  C   UNL     1       6.518   1.243  -0.095  0.00  0.00    +0.126 A 
ATOM     13  N   UNL     1       7.425   0.281   0.061  0.00  0.00    -0.333 N 
ATOM     14  C   UNL     1       7.060  -0.978   0.194  0.00  0.00    +0.200 A 
ATOM     15  N   UNL     1       5.794  -1.344   0.186  0.00  0.00    -0.220 NA
ATOM     16  H   UNL     1       8.367   0.510   0.076  0.00  0.00    +0.168 HD
ENDROOT
BRANCH  11  17
ATOM     17  N   UNL     1       4.174   1.881  -0.277  0.00  0.00    -0.353 N 
ATOM     18  H   UNL     1       3.237   1.639  -0.215  0.00  0.00    +0.143 HD
ATOM     19  H   UNL     1       4.427   2.801  -0.450  0.00  0.00    +0.143 HD
ENDBRANCH  11  17
BRANCH  12  20
ATOM     20  N   UNL     1       6.912   2.569  -0.235  0.00  0.00    -0.298 N 
ATOM     21  H   UNL     1       6.246   3.273  -0.258  0.00  0.00    +0.154 HD
BRANCH  20  22
ATOM     22  C   UNL     1       8.270   2.886  -0.343  0.00  0.00    +0.052 A 
ATOM     23  C   UNL     1       8.902   3.590   0.673  0.00  0.00    +0.044 A 
ATOM     24  C   UNL     1      10.244   3.903   0.564  0.00  0.00    +0.043 A 
ATOM     25  C   UNL     1      10.957   3.516  -0.558  0.00  0.00    +0.021 A 
ATOM     26  C   UNL     1      10.330   2.815  -1.572  0.00  0.00    +0.023 A 
ATOM     27  C   UNL     1       8.990   2.494  -1.465  0.00  0.00    +0.062 A 
ATOM     28 CL   UNL     1       8.205   1.607  -2.735  0.00  0.00    -0.082 Cl
ATOM     29 CL   UNL     1      11.036   4.783   1.833  0.00  0.00    -0.083 Cl
ENDBRANCH  20  22
ENDBRANCH  12  20
TORSDOF 3
