REMARK  Name = ZINC32909191
REMARK  8 active torsions:
REMARK  status: ('A' for Active; 'I' for Inactive)
REMARK    1  A    between atoms: C_1  and  C_2
REMARK    2  A    between atoms: C_2  and  C_3
REMARK    3  A    between atoms: C_2  and  C_4
REMARK    4  A    between atoms: C_5  and  N_17
REMARK    5  A    between atoms: N_8  and  C_11
REMARK    6  A    between atoms: N_9  and  C_10
REMARK    7  A    between atoms: N_17  and  S_18
REMARK    8  A    between atoms: S_18  and  C_21
REMARK                            x       y       z     vdW  Elec       q    Type
REMARK                         _______ _______ _______ _____ _____    ______ ____
ROOT
ATOM      1  C   UNL     1       1.263   3.469   0.409  0.00  0.00    +0.066 A 
ATOM      2  C   UNL     1      -0.068   3.689   0.432  0.00  0.00    +0.135 A 
ATOM      3  C   UNL     1      -0.723   2.450   0.214  0.00  0.00    +0.295 A 
ATOM      4  O   UNL     1      -1.927   2.271   0.166  0.00  0.00    -0.264 OA
ATOM      5  N   UNL     1       0.228   1.504   0.071  0.00  0.00    -0.216 N 
ATOM      6  N   UNL     1       1.476   2.130   0.189  0.00  0.00    -0.282 N 
ATOM      7  C   UNL     1       2.780   1.471   0.092  0.00  0.00    +0.171 C 
ENDROOT
BRANCH   5   8
ATOM      8  C   UNL     1       0.007   0.142  -0.158  0.00  0.00    +0.067 A 
ATOM      9  C   UNL     1       0.658  -0.502  -1.202  0.00  0.00    +0.028 A 
ATOM     10  C   UNL     1       0.443  -1.849  -1.422  0.00  0.00    +0.002 A 
ATOM     11  C   UNL     1      -0.429  -2.553  -0.612  0.00  0.00    +0.000 A 
ATOM     12  C   UNL     1      -1.084  -1.913   0.425  0.00  0.00    +0.002 A 
ATOM     13  C   UNL     1      -0.868  -0.568   0.654  0.00  0.00    +0.028 A 
ENDBRANCH   5   8
BRANCH   1  15
ATOM     14  C   UNL     1       3.261   4.096   1.738  0.00  0.00    +0.014 C 
ATOM     15  C   UNL     1       2.334   4.514   0.594  0.00  0.00    +0.033 C 
ATOM     16  C   UNL     1       3.144   4.648  -0.697  0.00  0.00    +0.014 C 
ENDBRANCH   1  15
BRANCH   2  17
ATOM     17  N   UNL     1      -0.699   4.935   0.632  0.00  0.00    -0.209 N 
ATOM     18  H   UNL     1      -0.098   5.855   0.680  0.00  0.00    +0.174 HD
BRANCH  17  19
ATOM     19  S   UNL     1      -2.345   5.013   0.796  0.00  0.00    +0.079 S 
ATOM     20  O   UNL     1      -2.667   6.380   1.015  0.00  0.00    -0.149 OA
ATOM     21  O   UNL     1      -2.896   4.264  -0.278  0.00  0.00    -0.149 OA
BRANCH  19  22
ATOM     22  C   UNL     1      -2.763   4.154   2.276  0.00  0.00    +0.147 A 
ATOM     23  C   UNL     1      -2.854   4.629   3.542  0.00  0.00    +0.038 A 
ATOM     24  C   UNL     1      -3.202   3.761   4.561  0.00  0.00    +0.025 A 
ATOM     25  C   UNL     1      -3.442   2.460   4.263  0.00  0.00    +0.057 A 
ATOM     26  S   UNL     1      -3.183   2.433   2.496  0.00  0.00    -0.061 S 
ATOM     27 BR   UNL     1      -3.931   1.044   5.417  0.00  0.00    -0.043 Br
ENDBRANCH  19  22
ENDBRANCH  17  19
ENDBRANCH   2  17
TORSDOF 5
