REMARK  Name = ZINC07649992
REMARK  9 active torsions:
REMARK  status: ('A' for Active; 'I' for Inactive)
REMARK    1  A    between atoms: C_1  and  C_2
REMARK    2  A    between atoms: C_2  and  C_4
REMARK    3  A    between atoms: C_2  and  O_21
REMARK    4  A    between atoms: N_6  and  N_7
REMARK    5  A    between atoms: N_7  and  C_8
REMARK    6  A    between atoms: C_8  and  N_10
REMARK    7  A    between atoms: C_11  and  C_13
REMARK    8  A    between atoms: C_14  and  C_15
REMARK    9  A    between atoms: O_21  and  C_22
REMARK                            x       y       z     vdW  Elec       q    Type
REMARK                         _______ _______ _______ _____ _____    ______ ____
ROOT
ATOM      1  C   UNL     1       3.517   2.216  -0.168  0.00  0.00    +0.270 C 
ATOM      2  O   UNL     1       3.579   3.410   0.035  0.00  0.00    -0.270 OA
ATOM      3  N   UNL     1       2.317   1.622  -0.328  0.00  0.00    -0.232 N 
ATOM      4  H   UNL     1       2.267   0.667  -0.490  0.00  0.00    +0.173 HD
ENDROOT
BRANCH   1   6
ATOM      5  C   UNL     1       4.753   0.320   0.845  0.00  0.00    +0.062 C 
ATOM      6  C   UNL     1       4.779   1.397  -0.241  0.00  0.00    +0.257 C 
BRANCH   6   7
ATOM      7  O   UNL     1       5.911   2.247  -0.042  0.00  0.00    -0.480 OA
BRANCH   7   8
ATOM      8  C   UNL     1       7.094   1.832  -0.568  0.00  0.00    +0.122 A 
ATOM      9  C   UNL     1       7.180   0.570  -1.164  0.00  0.00    +0.046 A 
ATOM     10  C   UNL     1       8.349   0.128  -1.698  0.00  0.00    +0.012 A 
ATOM     11  C   UNL     1       9.491   0.947  -1.653  0.00  0.00    -0.018 A 
ATOM     12  C   UNL     1      10.715   0.522  -2.196  0.00  0.00    +0.008 A 
ATOM     13  C   UNL     1      11.800   1.341  -2.135  0.00  0.00    +0.001 A 
ATOM     14  C   UNL     1      11.717   2.600  -1.541  0.00  0.00    +0.001 A 
ATOM     15  C   UNL     1      10.548   3.045  -1.005  0.00  0.00    +0.008 A 
ATOM     16  C   UNL     1       9.406   2.227  -1.049  0.00  0.00    -0.014 A 
ATOM     17  C   UNL     1       8.181   2.656  -0.511  0.00  0.00    +0.054 A 
ENDBRANCH   7   8
ENDBRANCH   6   7
ENDBRANCH   1   6
BRANCH   3  18
ATOM     18  N   UNL     1       1.144   2.384  -0.260  0.00  0.00    -0.245 N 
ATOM     19  H   UNL     1       1.194   3.338  -0.097  0.00  0.00    +0.172 HD
BRANCH  18  20
ATOM     20  C   UNL     1      -0.056   1.789  -0.419  0.00  0.00    +0.153 C 
ATOM     21  S   UNL     1      -1.490   2.721  -0.343  0.00  0.00    -0.017 S 
BRANCH  20  22
ATOM     22  N   UNL     1      -0.125   0.462  -0.645  0.00  0.00    -0.263 N 
ATOM     23  C   UNL     1      -1.324  -0.132  -0.805  0.00  0.00    +0.242 C 
ATOM     24  O   UNL     1      -2.344   0.529  -0.746  0.00  0.00    -0.270 OA
ATOM     25  H   UNL     1       0.688  -0.065  -0.692  0.00  0.00    +0.157 HD
BRANCH  23  26
ATOM     26  C   UNL     1      -1.400  -1.572  -1.050  0.00  0.00    +0.068 C 
ATOM     27  C   UNL     1      -2.600  -2.167  -1.210  0.00  0.00    +0.013 C 
BRANCH  27  28
ATOM     28  C   UNL     1      -2.676  -3.616  -1.456  0.00  0.00    -0.025 A 
ATOM     29  C   UNL     1      -1.506  -4.379  -1.530  0.00  0.00    +0.008 A 
ATOM     30  C   UNL     1      -1.586  -5.737  -1.756  0.00  0.00    +0.001 A 
ATOM     31  C   UNL     1      -2.820  -6.343  -1.920  0.00  0.00    +0.000 A 
ATOM     32  C   UNL     1      -3.982  -5.595  -1.853  0.00  0.00    +0.001 A 
ATOM     33  C   UNL     1      -3.919  -4.237  -1.622  0.00  0.00    +0.008 A 
ENDBRANCH  27  28
ENDBRANCH  23  26
ENDBRANCH  20  22
ENDBRANCH  18  20
ENDBRANCH   3  18
TORSDOF 8
