REMARK  Name = ZINC40969453
REMARK  5 active torsions:
REMARK  status: ('A' for Active; 'I' for Inactive)
REMARK    1  A    between atoms: C_4  and  S_10
REMARK    2  A    between atoms: C_5  and  N_7
REMARK    3  A    between atoms: S_10  and  C_12
REMARK    4  A    between atoms: C_12  and  C_13
REMARK    5  A    between atoms: C_14  and  N_20
REMARK                            x       y       z     vdW  Elec       q    Type
REMARK                         _______ _______ _______ _____ _____    ______ ____
ROOT
ATOM      1  S   UNL     1       3.875  -0.710   0.822  0.00  0.00    +0.060 S 
ATOM      2  O   UNL     1       3.814  -1.971   0.170  0.00  0.00    -0.252 OA
ENDROOT
BRANCH   1   6
ATOM      3  C   UNL     1       0.010   1.324  -0.370  0.00  0.00    +0.002 A 
ATOM      4  C   UNL     1       1.134   2.081  -0.097  0.00  0.00    +0.001 A 
ATOM      5  C   UNL     1       2.314   1.460   0.267  0.00  0.00    +0.019 A 
ATOM      6  C   UNL     1       2.370   0.082   0.359  0.00  0.00    +0.069 A 
ATOM      7  C   UNL     1       1.246  -0.675   0.087  0.00  0.00    +0.142 A 
ATOM      8  C   UNL     1       0.066  -0.054  -0.278  0.00  0.00    +0.034 A 
BRANCH   7   9
ATOM      9  N   UNL     1       1.306  -2.151   0.185  0.00  0.00    +0.058 N 
ATOM     10  O   UNL     1       0.840  -2.834  -0.696  0.00  0.00    -0.126 OA
ATOM     11  O   UNL     1       1.823  -2.672   1.146  0.00  0.00    -0.126 OA
ENDBRANCH   7   9
ENDBRANCH   1   6
BRANCH   1  12
ATOM     12  C   UNL     1       3.713  -0.946   2.613  0.00  0.00    +0.147 C 
BRANCH  12  13
ATOM     13  C   UNL     1       4.950  -1.623   3.144  0.00  0.00    -0.000 A 
ATOM     14  C   UNL     1       5.016  -3.010   3.196  0.00  0.00    +0.030 A 
ATOM     15  C   UNL     1       6.159  -3.630   3.686  0.00  0.00    +0.023 A 
ATOM     16  C   UNL     1       7.225  -2.867   4.120  0.00  0.00    +0.003 A 
ATOM     17  C   UNL     1       7.157  -1.487   4.067  0.00  0.00    +0.016 A 
ATOM     18  C   UNL     1       6.023  -0.866   3.575  0.00  0.00    +0.024 A 
ATOM     19 BR   UNL     1       5.938   1.022   3.497  0.00  0.00    -0.050 Br
BRANCH  14  20
ATOM     20  N   UNL     1       3.936  -3.779   2.758  0.00  0.00    -0.358 N 
ATOM     21  H   UNL     1       3.138  -3.344   2.416  0.00  0.00    +0.142 HD
ATOM     22  H   UNL     1       3.983  -4.747   2.795  0.00  0.00    +0.142 HD
ENDBRANCH  14  20
ENDBRANCH  12  13
ENDBRANCH   1  12
TORSDOF 5
