REMARK  Name = ZINC44714150
REMARK  9 active torsions:
REMARK  status: ('A' for Active; 'I' for Inactive)
REMARK    1  A    between atoms: C_1  and  C_2
REMARK    2  A    between atoms: C_3  and  C_9
REMARK    3  A    between atoms: C_4  and  C_8
REMARK    4  A    between atoms: C_9  and  C_11
REMARK    5  A    between atoms: C_9  and  N_12
REMARK    6  A    between atoms: C_13  and  C_15
REMARK    7  A    between atoms: C_26  and  C_28
REMARK    8  A    between atoms: C_31  and  O_34
REMARK    9  A    between atoms: O_34  and  C_35
REMARK                            x       y       z     vdW  Elec       q    Type
REMARK                         _______ _______ _______ _____ _____    ______ ____
ROOT
ATOM      1  C   UNL     1      -2.880  -2.139  -5.589  0.00  0.00    +0.100 C 
ATOM      2  C   UNL     1      -4.072  -2.212  -4.609  0.00  0.00    +0.121 C 
ATOM      3  N   UNL     1      -4.932  -1.063  -4.979  0.00  0.00    -0.296 N 
ATOM      4  C   UNL     1      -4.878  -1.023  -6.460  0.00  0.00    +0.115 C 
ATOM      5  C   UNL     1      -3.414  -1.361  -6.804  0.00  0.00    -0.004 C 
ATOM      6  C   UNL     1      -2.611  -0.079  -7.004  0.00  0.00    -0.010 C 
ATOM      7  C   UNL     1      -3.124   0.649  -8.251  0.00  0.00    -0.082 C 
ATOM      8  N   UNL     1      -2.987  -0.226  -9.421  0.00  0.00    +0.379 N 
ATOM      9  C   UNL     1      -3.835  -1.414  -9.260  0.00  0.00    -0.082 C 
ATOM     10  C   UNL     1      -3.352  -2.229  -8.057  0.00  0.00    -0.010 C 
ATOM     11  C   UNL     1      -5.609  -0.239  -4.154  0.00  0.00    +0.248 C 
ATOM     12  O   UNL     1      -5.472  -0.338  -2.950  0.00  0.00    -0.270 OA
ATOM     13  H   UNL     1      -3.269   0.276 -10.250  0.00  0.00    -0.086 HD
ATOM     14  H   UNL     1      -2.024  -0.512  -9.515  0.00  0.00    -0.086 HD
ENDROOT
BRANCH  11  15
ATOM     15  C   UNL     1      -6.517   0.782  -4.713  0.00  0.00    +0.055 A 
ATOM     16  C   UNL     1      -7.025   0.647  -6.014  0.00  0.00    +0.020 A 
ATOM     17  C   UNL     1      -7.869   1.627  -6.492  0.00  0.00    +0.068 A 
ATOM     18  C   UNL     1      -8.188   2.709  -5.676  0.00  0.00    +0.220 A 
ATOM     19  N   UNL     1      -7.692   2.807  -4.452  0.00  0.00    -0.220 NA
ATOM     20  C   UNL     1      -6.887   1.892  -3.954  0.00  0.00    +0.127 A 
BRANCH  18  21
ATOM     21  O   UNL     1      -9.017   3.675  -6.140  0.00  0.00    -0.438 OA
BRANCH  21  22
ATOM     22  C   UNL     1      -9.243   4.756  -5.348  0.00  0.00    +0.130 A 
ATOM     23  C   UNL     1      -8.293   5.763  -5.260  0.00  0.00    +0.046 A 
ATOM     24  C   UNL     1      -8.525   6.861  -4.455  0.00  0.00    +0.004 A 
ATOM     25  C   UNL     1      -9.703   6.957  -3.737  0.00  0.00    +0.000 A 
ATOM     26  C   UNL     1     -10.652   5.955  -3.823  0.00  0.00    +0.004 A 
ATOM     27  C   UNL     1     -10.427   4.857  -4.631  0.00  0.00    +0.046 A 
ENDBRANCH  21  22
ENDBRANCH  18  21
ENDBRANCH  11  15
BRANCH   1  29
ATOM     28  N   UNL     1      -0.463  -1.674  -5.338  0.00  0.00    -0.308 N 
ATOM     29  C   UNL     1      -1.727  -1.400  -4.959  0.00  0.00    +0.219 C 
ATOM     30  O   UNL     1      -1.937  -0.560  -4.110  0.00  0.00    -0.275 OA
ATOM     31  H   UNL     1      -0.295  -2.346  -6.017  0.00  0.00    +0.149 HD
BRANCH  28  32
ATOM     32  C   UNL     1       0.657  -0.956  -4.725  0.00  0.00    +0.104 C 
ATOM     33  C   UNL     1       0.866   0.376  -5.447  0.00  0.00    +0.033 C 
BRANCH  32  36
ATOM     34  C   UNL     1       1.703  -2.373  -7.310  0.00  0.00    +0.065 C 
ATOM     35  C   UNL     1       2.360  -2.401  -5.955  0.00  0.00    +0.038 A 
ATOM     36  C   UNL     1       1.908  -1.789  -4.836  0.00  0.00    +0.015 A 
ATOM     37  C   UNL     1       2.808  -2.065  -3.801  0.00  0.00    +0.065 A 
ATOM     38  N   UNL     1       3.765  -2.816  -4.281  0.00  0.00    -0.179 NA
ATOM     39  N   UNL     1       3.502  -3.047  -5.638  0.00  0.00    -0.281 N 
ATOM     40  H   UNL     1       4.046  -3.575  -6.242  0.00  0.00    +0.189 HD
ATOM     41  C   UNL     1       2.694  -1.580  -2.379  0.00  0.00    +0.068 C 
ENDBRANCH  32  36
ENDBRANCH  28  32
ENDBRANCH   1  29
TORSDOF 6
