REMARK  Name = ZINC39969628
REMARK  12 active torsions:
REMARK  status: ('A' for Active; 'I' for Inactive)
REMARK    1  A    between atoms: C_1  and  C_2
REMARK    2  A    between atoms: C_2  and  N_3
REMARK    3  A    between atoms: C_4  and  C_24
REMARK    4  A    between atoms: C_8  and  S_10
REMARK    5  A    between atoms: S_10  and  C_11
REMARK    6  A    between atoms: C_11  and  C_12
REMARK    7  A    between atoms: C_24  and  C_26
REMARK    8  A    between atoms: C_24  and  N_27
REMARK    9  A    between atoms: C_28  and  C_30
REMARK   10  A    between atoms: C_30  and  C_31
REMARK   11  A    between atoms: C_34  and  O_37
REMARK   12  A    between atoms: O_37  and  C_38
REMARK                            x       y       z     vdW  Elec       q    Type
REMARK                         _______ _______ _______ _____ _____    ______ ____
ROOT
ATOM      1  N   UNL     1       0.693  -0.479  -1.208  0.00  0.00    -0.260 NA
ATOM      2  C   UNL     1       1.244  -1.846  -1.063  0.00  0.00    +0.160 C 
ATOM      3  N   UNL     1       0.480  -2.654  -2.049  0.00  0.00    -0.236 NA
ATOM      4  N   UNL     1       0.328  -1.733  -3.187  0.00  0.00    -0.229 NA
ATOM      5  C   UNL     1       0.107  -0.409  -2.563  0.00  0.00    +0.200 C 
ATOM      6  H   UNL     1       0.996  -3.479  -2.318  0.00  0.00    +0.142 HD
ATOM      7  H   UNL     1      -0.457  -1.997  -3.763  0.00  0.00    +0.143 HD
ENDROOT
BRANCH   1   9
ATOM      8  C   UNL     1      -0.817   1.232  -0.320  0.00  0.00    +0.020 C 
ATOM      9  C   UNL     1      -0.323  -0.209  -0.182  0.00  0.00    +0.085 C 
ENDBRANCH   1   9
BRANCH   2  10
ATOM     10  C   UNL     1       1.012  -2.369   0.356  0.00  0.00    +0.103 C 
ATOM     11  C   UNL     1       1.459  -3.829   0.441  0.00  0.00    +0.031 C 
BRANCH  10  12
ATOM     12  N   UNL     1       1.786  -1.565   1.305  0.00  0.00    -0.310 N 
ATOM     13  C   UNL     1       1.392  -1.476   2.591  0.00  0.00    +0.218 C 
ATOM     14  O   UNL     1       0.397  -2.061   2.963  0.00  0.00    -0.275 OA
ATOM     15  H   UNL     1       2.582  -1.097   1.008  0.00  0.00    +0.149 HD
BRANCH  13  16
ATOM     16  C   UNL     1       2.189  -0.649   3.568  0.00  0.00    +0.130 C 
BRANCH  16  17
ATOM     17  C   UNL     1       1.541  -0.715   4.927  0.00  0.00    -0.038 A 
ATOM     18  C   UNL     1       0.576   0.210   5.277  0.00  0.00    +0.007 A 
ATOM     19  C   UNL     1      -0.019   0.152   6.523  0.00  0.00    +0.046 A 
ATOM     20  C   UNL     1       0.353  -0.836   7.422  0.00  0.00    +0.120 A 
ATOM     21  C   UNL     1       1.322  -1.764   7.068  0.00  0.00    +0.046 A 
ATOM     22  C   UNL     1       1.910  -1.705   5.819  0.00  0.00    +0.007 A 
BRANCH  20  23
ATOM     23  O   UNL     1      -0.230  -0.895   8.648  0.00  0.00    -0.495 OA
ATOM     24  C   UNL     1       0.203  -1.940   9.523  0.00  0.00    +0.277 C 
ENDBRANCH  20  23
ENDBRANCH  16  17
ENDBRANCH  13  16
ENDBRANCH  10  12
ENDBRANCH   2  10
BRANCH   5  25
ATOM     25  S   UNL     1       0.937   0.881  -3.533  0.00  0.00    -0.117 S 
BRANCH  25  26
ATOM     26  C   UNL     1       2.672   0.353  -3.572  0.00  0.00    +0.146 C 
BRANCH  26  27
ATOM     27  C   UNL     1       3.483   1.350  -4.358  0.00  0.00    +0.120 A 
ATOM     28  N   UNL     1       4.815   1.125  -4.505  0.00  0.00    -0.310 N 
ATOM     29  H   UNL     1       5.215   0.336  -4.108  0.00  0.00    +0.170 HD
ATOM     30  C   UNL     1       5.587   1.991  -5.202  0.00  0.00    +0.259 A 
ATOM     31  O   UNL     1       6.781   1.801  -5.343  0.00  0.00    -0.267 OA
ATOM     32  C   UNL     1       4.927   3.169  -5.784  0.00  0.00    +0.065 A 
ATOM     33  C   UNL     1       5.632   4.121  -6.518  0.00  0.00    +0.015 A 
ATOM     34  C   UNL     1       4.964   5.207  -7.040  0.00  0.00    +0.001 A 
ATOM     35  C   UNL     1       3.598   5.359  -6.839  0.00  0.00    +0.002 A 
ATOM     36  C   UNL     1       2.884   4.430  -6.116  0.00  0.00    +0.028 A 
ATOM     37  C   UNL     1       3.538   3.321  -5.578  0.00  0.00    +0.078 A 
ATOM     38  N   UNL     1       2.873   2.379  -4.864  0.00  0.00    -0.233 NA
ENDBRANCH  26  27
ENDBRANCH  25  26
ENDBRANCH   5  25
TORSDOF 9
