REMARK  Name = ZINC34734600
REMARK  8 active torsions:
REMARK  status: ('A' for Active; 'I' for Inactive)
REMARK    1  A    between atoms: C_1  and  C_2
REMARK    2  A    between atoms: C_2  and  C_3
REMARK    3  A    between atoms: C_3  and  N_4
REMARK    4  A    between atoms: N_17  and  C_20
REMARK    5  A    between atoms: C_20  and  C_21
REMARK    6  A    between atoms: C_21  and  C_22
REMARK    7  A    between atoms: C_25  and  C_27
REMARK    8  A    between atoms: C_25  and  C_28
REMARK                            x       y       z     vdW  Elec       q    Type
REMARK                         _______ _______ _______ _____ _____    ______ ____
ROOT
ATOM      1  N   UNL     1       0.785  -1.966  -1.375  0.00  0.00    -0.280 N 
ATOM      2  C   UNL     1       1.861  -2.614  -0.892  0.00  0.00    +0.264 A 
ATOM      3  O   UNL     1       2.852  -1.993  -0.547  0.00  0.00    -0.267 OA
ATOM      4  C   UNL     1       1.826  -4.041  -0.788  0.00  0.00    +0.076 A 
ATOM      5  C   UNL     1       2.867  -4.942  -0.299  0.00  0.00    -0.018 A 
ATOM      6  C   UNL     1       2.587  -6.264  -0.302  0.00  0.00    +0.021 A 
ATOM      7  S   UNL     1       0.943  -6.384  -0.946  0.00  0.00    -0.071 S 
ATOM      8  C   UNL     1       0.635  -4.655  -1.213  0.00  0.00    +0.118 A 
ATOM      9  N   UNL     1      -0.392  -3.956  -1.681  0.00  0.00    -0.208 NA
ATOM     10  C   UNL     1      -0.335  -2.643  -1.761  0.00  0.00    +0.202 A 
ATOM     11  N   UNL     1      -1.414  -1.946  -2.243  0.00  0.00    -0.304 N 
ATOM     12  C   UNL     1      -1.540  -1.643  -3.677  0.00  0.00    +0.089 C 
ATOM     13  C   UNL     1      -2.935  -2.072  -4.144  0.00  0.00    -0.060 C 
ATOM     14  N   UNL     1      -3.951  -1.433  -3.299  0.00  0.00    +0.382 N 
ATOM     15  C   UNL     1      -3.830  -1.918  -1.918  0.00  0.00    -0.060 C 
ATOM     16  C   UNL     1      -2.482  -1.486  -1.342  0.00  0.00    +0.089 C 
ATOM     17  C   UNL     1       3.498  -7.363   0.149  0.00  0.00    +0.203 C 
ATOM     18  O   UNL     1       4.819  -6.816   0.282  0.00  0.00    -0.368 OA
ATOM     19  C   UNL     1       4.857  -5.592   1.022  0.00  0.00    +0.068 C 
ATOM     20  C   UNL     1       4.226  -4.462   0.204  0.00  0.00    +0.071 C 
ATOM     21  C   UNL     1       4.081  -5.765   2.329  0.00  0.00    +0.041 C 
ATOM     22  C   UNL     1       6.310  -5.237   1.341  0.00  0.00    +0.041 C 
ATOM     23  H   UNL     1      -3.819  -0.432  -3.315  0.00  0.00    -0.082 HD
ENDROOT
BRANCH   1  24
ATOM     24  C   UNL     1       0.815  -0.506  -1.484  0.00  0.00    +0.128 C 
BRANCH  24  26
ATOM     25  C   UNL     1       0.453   1.639  -0.255  0.00  0.00    +0.005 C 
ATOM     26  C   UNL     1       0.422   0.114  -0.141  0.00  0.00    +0.018 C 
ENDBRANCH  24  26
ENDBRANCH   1  24
BRANCH  14  27
ATOM     27  C   UNL     1      -5.288  -1.756  -3.814  0.00  0.00    -0.079 C 
BRANCH  27  28
ATOM     28  C   UNL     1      -6.342  -0.991  -3.011  0.00  0.00    -0.022 C 
ATOM     29  C   UNL     1      -7.735  -1.328  -3.548  0.00  0.00    +0.002 C 
ENDBRANCH  27  28
ENDBRANCH  14  27
TORSDOF 4
