REMARK  Name = ZINC00985560
REMARK  5 active torsions:
REMARK  status: ('A' for Active; 'I' for Inactive)
REMARK    1  A    between atoms: C_4  and  C_29
REMARK    2  A    between atoms: C_5  and  C_7
REMARK    3  A    between atoms: C_10  and  C_21
REMARK    4  A    between atoms: C_16  and  N_20
REMARK    5  A    between atoms: C_17  and  C_18
REMARK                            x       y       z     vdW  Elec       q    Type
REMARK                         _______ _______ _______ _____ _____    ______ ____
ROOT
ATOM      1  C   UNL     1       1.637  -3.032  -0.015  0.00  0.00    +0.102 C 
ATOM      2  C   UNL     1       0.802  -3.127  -1.266  0.00  0.00    +0.054 A 
ATOM      3  C   UNL     1       1.126  -2.763  -2.576  0.00  0.00    +0.100 A 
ATOM      4  N   UNL     1       0.083  -3.026  -3.340  0.00  0.00    -0.171 NA
ATOM      5  N   UNL     1      -0.932  -3.564  -2.533  0.00  0.00    -0.246 N 
ATOM      6  H   UNL     1      -1.809  -3.848  -2.834  0.00  0.00    +0.192 HD
ATOM      7  C   UNL     1      -0.471  -3.619  -1.266  0.00  0.00    +0.223 A 
ATOM      8  O   UNL     1      -1.085  -4.064  -0.141  0.00  0.00    -0.423 OA
ATOM      9  C   UNL     1      -0.318  -4.269   0.949  0.00  0.00    +0.200 C 
ATOM     10  C   UNL     1       0.952  -3.821   1.072  0.00  0.00    +0.098 C 
ENDROOT
BRANCH   3  11
ATOM     11  C   UNL     1       2.416  -2.184  -3.028  0.00  0.00    +0.004 A 
ATOM     12  C   UNL     1       3.073  -2.720  -4.134  0.00  0.00    +0.011 A 
ATOM     13  C   UNL     1       4.272  -2.179  -4.551  0.00  0.00    +0.022 A 
ATOM     14  C   UNL     1       4.822  -1.105  -3.873  0.00  0.00    +0.059 A 
ATOM     15  C   UNL     1       4.173  -0.569  -2.773  0.00  0.00    +0.060 A 
ATOM     16  C   UNL     1       2.970  -1.100  -2.352  0.00  0.00    +0.031 A 
ATOM     17 CL   UNL     1       4.870   0.778  -1.927  0.00  0.00    -0.082 Cl
ATOM     18 CL   UNL     1       6.331  -0.429  -4.402  0.00  0.00    -0.082 Cl
ENDBRANCH   3  11
BRANCH   1  23
ATOM     19  C   UNL     1       0.752   0.537   0.840  0.00  0.00    +0.000 A 
ATOM     20  C   UNL     1       1.989   1.056   1.173  0.00  0.00    +0.001 A 
ATOM     21  C   UNL     1       3.112   0.252   1.121  0.00  0.00    +0.012 A 
ATOM     22  C   UNL     1       2.999  -1.071   0.737  0.00  0.00    +0.059 A 
ATOM     23  C   UNL     1       1.762  -1.590   0.405  0.00  0.00    -0.023 A 
ATOM     24  C   UNL     1       0.638  -0.786   0.455  0.00  0.00    +0.005 A 
BRANCH  22  25
ATOM     25  C   UNL     1       4.223  -1.947   0.679  0.00  0.00    +0.418 C 
ATOM     26  F   UNL     1       5.359  -1.180   0.962  0.00  0.00    -0.166 F 
ATOM     27  F   UNL     1       4.107  -2.974   1.622  0.00  0.00    -0.166 F 
ATOM     28  F   UNL     1       4.342  -2.500  -0.601  0.00  0.00    -0.166 F 
ENDBRANCH  22  25
ENDBRANCH   1  23
BRANCH   9  29
ATOM     29  N   UNL     1      -0.858  -4.975   1.995  0.00  0.00    -0.328 N 
ATOM     30  H   UNL     1      -1.767  -5.310   1.937  0.00  0.00    +0.145 HD
ATOM     31  H   UNL     1      -0.331  -5.139   2.793  0.00  0.00    +0.145 HD
ENDBRANCH   9  29
BRANCH  10  32
ATOM     32  C   UNL     1       1.672  -4.106   2.276  0.00  0.00    +0.101 C 
ATOM     33  N   UNL     1       2.243  -4.331   3.232  0.00  0.00    -0.191 NA
ENDBRANCH  10  32
TORSDOF 5
