REMARK  Name = ZINC39936869
REMARK  3 active torsions:
REMARK  status: ('A' for Active; 'I' for Inactive)
REMARK    1  A    between atoms: C_9  and  C_12
REMARK    2  A    between atoms: N_14  and  C_15
REMARK    3  A    between atoms: C_17  and  C_26
REMARK                            x       y       z     vdW  Elec       q    Type
REMARK                         _______ _______ _______ _____ _____    ______ ____
ROOT
ATOM      1  C   UNL     1       0.151  -2.905  -0.021  0.00  0.00    +0.242 C 
ATOM      2  O   UNL     1      -0.942  -2.383   0.086  0.00  0.00    -0.270 OA
ATOM      3  N   UNL     1       0.250  -4.244  -0.131  0.00  0.00    -0.298 N 
ATOM      4  H   UNL     1       1.122  -4.660  -0.216  0.00  0.00    +0.150 HD
ENDROOT
BRANCH   1  13
ATOM      5  C   UNL     1      -0.009   1.352  -0.051  0.00  0.00    +0.001 A 
ATOM      6  C   UNL     1       1.175   2.098  -0.060  0.00  0.00    +0.002 A 
ATOM      7  C   UNL     1       2.403   1.524  -0.059  0.00  0.00    +0.024 A 
ATOM      8  C   UNL     1       2.535   0.119  -0.050  0.00  0.00    +0.041 A 
ATOM      9  N   UNL     1       3.739  -0.436  -0.049  0.00  0.00    -0.285 N 
ATOM     10  C   UNL     1       3.937  -1.748  -0.040  0.00  0.00    +0.222 C 
ATOM     11  O   UNL     1       5.068  -2.193  -0.039  0.00  0.00    -0.275 OA
ATOM     12  C   UNL     1       2.754  -2.690  -0.030  0.00  0.00    +0.137 C 
ATOM     13  C   UNL     1       1.370  -2.070  -0.030  0.00  0.00    +0.032 C 
ATOM     14  C   UNL     1       1.299  -0.693  -0.040  0.00  0.00    +0.005 A 
ATOM     15  C   UNL     1       0.008  -0.004  -0.041  0.00  0.00    +0.010 A 
ATOM     16  H   UNL     1       4.514   0.147  -0.055  0.00  0.00    +0.155 HD
ENDBRANCH   1  13
BRANCH   3  17
ATOM     17  C   UNL     1      -0.959  -5.072  -0.121  0.00  0.00    +0.152 C 
ATOM     18  C   UNL     1      -0.969  -6.075  -1.300  0.00  0.00    +0.132 C 
ATOM     19  C   UNL     1      -2.353  -6.243  -1.874  0.00  0.00    -0.046 C 
ATOM     20  C   UNL     1      -3.249  -5.301  -1.606  0.00  0.00    -0.013 C 
ATOM     21  S   UNL     1      -2.452  -4.093  -0.572  0.00  0.00    -0.106 S 
ATOM     22  C   UNL     1      -4.676  -5.249  -2.078  0.00  0.00    +0.042 C 
ATOM     23  C   UNL     1      -4.856  -6.258  -3.218  0.00  0.00    +0.005 C 
ATOM     24  C   UNL     1      -4.236  -7.591  -2.788  0.00  0.00    +0.005 C 
ATOM     25  C   UNL     1      -2.716  -7.452  -2.735  0.00  0.00    +0.032 C 
BRANCH  18  26
ATOM     26  C   UNL     1      -0.476  -7.413  -0.812  0.00  0.00    +0.220 C 
ATOM     27  O   UNL     1      -0.740  -7.783   0.312  0.00  0.00    -0.275 OA
ATOM     28  N   UNL     1       0.259  -8.197  -1.625  0.00  0.00    -0.329 N 
ATOM     29  H   UNL     1       0.470  -7.901  -2.524  0.00  0.00    +0.145 HD
ATOM     30  H   UNL     1       0.577  -9.058  -1.311  0.00  0.00    +0.145 HD
ENDBRANCH  18  26
ENDBRANCH   3  17
TORSDOF 3
