REMARK  Name = ZINC36812954
REMARK  3 active torsions:
REMARK  status: ('A' for Active; 'I' for Inactive)
REMARK    1  A    between atoms: C_8  and  N_13
REMARK    2  A    between atoms: C_9  and  N_12
REMARK    3  A    between atoms: C_17  and  C_19
REMARK                            x       y       z     vdW  Elec       q    Type
REMARK                         _______ _______ _______ _____ _____    ______ ____
ROOT
ATOM      1  C   UNL     1      -0.764   0.628  -2.429  0.00  0.00    +0.017 A 
ATOM      2  C   UNL     1       0.104   1.637  -2.143  0.00  0.00    +0.027 A 
ATOM      3  C   UNL     1       1.410   1.336  -1.720  0.00  0.00    +0.048 A 
ATOM      4  C   UNL     1       1.798  -0.021  -1.599  0.00  0.00    +0.022 A 
ATOM      5  C   UNL     1       0.879  -1.036  -1.901  0.00  0.00    +0.027 A 
ATOM      6  C   UNL     1      -0.379  -0.706  -2.309  0.00  0.00    +0.019 A 
ATOM      7 BR   UNL     1      -1.618  -2.075  -2.716  0.00  0.00    -0.050 Br
ATOM      8  C   UNL     1       3.111  -0.323  -1.173  0.00  0.00    +0.062 A 
ATOM      9  C   UNL     1       3.964   0.739  -0.892  0.00  0.00    +0.063 A 
ATOM     10  C   UNL     1       3.505   2.046  -1.037  0.00  0.00    +0.107 A 
ATOM     11  N   UNL     1       2.281   2.309  -1.433  0.00  0.00    -0.359 N 
ATOM     12  H   UNL     1       2.002   3.234  -1.521  0.00  0.00    +0.165 HD
ENDROOT
BRANCH   8  13
ATOM     13  N   UNL     1       3.538  -1.641  -1.039  0.00  0.00    -0.316 N 
ATOM     14  C   UNL     1       3.623  -2.392   0.227  0.00  0.00    +0.106 C 
ATOM     15  C   UNL     1       3.527  -3.881  -0.189  0.00  0.00    +0.021 C 
ATOM     16  C   UNL     1       4.327  -3.885  -1.519  0.00  0.00    +0.033 C 
ATOM     17  C   UNL     1       3.972  -2.517  -2.137  0.00  0.00    +0.159 C 
BRANCH  17  18
ATOM     18  C   UNL     1       5.186  -1.931  -2.811  0.00  0.00    +0.231 C 
ATOM     19  O   UNL     1       5.953  -1.236  -2.180  0.00  0.00    -0.274 OA
ATOM     20  N   UNL     1       5.420  -2.181  -4.114  0.00  0.00    -0.328 N 
ATOM     21  H   UNL     1       4.806  -2.738  -4.619  0.00  0.00    +0.145 HD
ATOM     22  H   UNL     1       6.201  -1.804  -4.548  0.00  0.00    +0.145 HD
ENDBRANCH  17  18
ENDBRANCH   8  13
BRANCH   9  23
ATOM     23  N   UNL     1       5.278   0.495  -0.466  0.00  0.00    -0.355 N 
ATOM     24  H   UNL     1       5.543  -0.399  -0.198  0.00  0.00    +0.142 HD
ATOM     25  H   UNL     1       5.921   1.220  -0.439  0.00  0.00    +0.142 HD
ENDBRANCH   9  23
TORSDOF 3
