REMARK  Name = ZINC23453387
REMARK  10 active torsions:
REMARK  status: ('A' for Active; 'I' for Inactive)
REMARK    1  A    between atoms: C_1  and  C_2
REMARK    2  A    between atoms: C_3  and  S_8
REMARK    3  A    between atoms: C_4  and  C_7
REMARK    4  A    between atoms: S_8  and  N_11
REMARK    5  A    between atoms: N_14  and  C_17
REMARK    6  A    between atoms: C_17  and  C_18
REMARK    7  A    between atoms: C_18  and  C_20
REMARK    8  A    between atoms: C_18  and  O_27
REMARK    9  A    between atoms: O_27  and  C_28
REMARK   10  A    between atoms: C_28  and  C_29
REMARK                            x       y       z     vdW  Elec       q    Type
REMARK                         _______ _______ _______ _____ _____    ______ ____
ROOT
ATOM      1  C   UNL     1       2.158   7.147   1.259  0.00  0.00    -0.042 C 
ENDROOT
BRANCH   1   5
ATOM      2  N   UNL     1       2.278   3.183   2.634  0.00  0.00    -0.180 NA
ATOM      3  C   UNL     1       2.889   3.452   1.323  0.00  0.00    +0.091 C 
ATOM      4  C   UNL     1       2.323   4.778   0.790  0.00  0.00    -0.061 C 
ATOM      5  N   UNL     1       2.524   5.830   1.795  0.00  0.00    +0.383 N 
ATOM      6  C   UNL     1       1.781   5.537   3.028  0.00  0.00    -0.061 C 
ATOM      7  C   UNL     1       2.319   4.245   3.651  0.00  0.00    +0.091 C 
ATOM      8  H   UNL     1       3.595   5.851   2.047  0.00  0.00    -0.082 HD
BRANCH   2   9
ATOM      9  S   UNL     1       1.568   1.723   2.958  0.00  0.00    +0.066 S 
ATOM     10  O   UNL     1       1.598   1.561   4.369  0.00  0.00    -0.153 OA
ATOM     11  O   UNL     1       2.155   0.780   2.070  0.00  0.00    -0.153 OA
BRANCH   9  14
ATOM     12  C   UNL     1      -0.013   1.086   0.008  0.00  0.00    +0.071 C 
ATOM     13  C   UNL     1      -0.718   1.572   1.248  0.00  0.00    +0.107 A 
ATOM     14  C   UNL     1      -0.129   1.855   2.501  0.00  0.00    +0.170 A 
ATOM     15  C   UNL     1      -1.171   2.253   3.270  0.00  0.00    +0.161 A 
ATOM     16  O   UNL     1      -2.261   2.193   2.493  0.00  0.00    -0.358 OA
ATOM     17  N   UNL     1      -1.990   1.819   1.375  0.00  0.00    -0.081 NA
ATOM     18  C   UNL     1      -1.115   2.679   4.715  0.00  0.00    +0.091 C 
ENDBRANCH   9  14
ENDBRANCH   2   9
ENDBRANCH   1   5
BRANCH   1  19
ATOM     19  C   UNL     1       2.754   7.312  -0.140  0.00  0.00    +0.132 C 
BRANCH  19  20
ATOM     20  C   UNL     1       2.378   8.664  -0.690  0.00  0.00    -0.021 A 
ATOM     21  C   UNL     1       3.139   9.775  -0.373  0.00  0.00    +0.007 A 
ATOM     22  C   UNL     1       2.798  11.014  -0.881  0.00  0.00    +0.020 A 
ATOM     23  C   UNL     1       1.689  11.145  -1.698  0.00  0.00    +0.041 A 
ATOM     24  C   UNL     1       0.925  10.034  -2.011  0.00  0.00    +0.020 A 
ATOM     25  C   UNL     1       1.270   8.794  -1.506  0.00  0.00    +0.007 A 
ATOM     26 CL   UNL     1       1.256  12.702  -2.332  0.00  0.00    -0.084 Cl
ENDBRANCH  19  20
BRANCH  19  27
ATOM     27  O   UNL     1       4.178   7.207  -0.067  0.00  0.00    -0.369 OA
BRANCH  27  28
ATOM     28  C   UNL     1       4.783   6.679  -1.248  0.00  0.00    +0.201 C 
BRANCH  28  29
ATOM     29  C   UNL     1       6.277   6.612  -1.061  0.00  0.00    +0.048 A 
ATOM     30  C   UNL     1       7.069   7.688  -1.422  0.00  0.00    +0.131 A 
ATOM     31  C   UNL     1       8.441   7.628  -1.244  0.00  0.00    +0.039 A 
ATOM     32  C   UNL     1       9.020   6.489  -0.717  0.00  0.00    +0.006 A 
ATOM     33  C   UNL     1       8.231   5.412  -0.361  0.00  0.00    +0.039 A 
ATOM     34  C   UNL     1       6.858   5.472  -0.532  0.00  0.00    +0.131 A 
ATOM     35  F   UNL     1       6.087   4.419  -0.185  0.00  0.00    -0.205 F 
ATOM     36  F   UNL     1       6.503   8.799  -1.943  0.00  0.00    -0.205 F 
ENDBRANCH  28  29
ENDBRANCH  27  28
ENDBRANCH  19  27
ENDBRANCH   1  19
TORSDOF 8
