REMARK  Name = ZINC38651834
REMARK  7 active torsions:
REMARK  status: ('A' for Active; 'I' for Inactive)
REMARK    1  A    between atoms: C_3  and  C_10
REMARK    2  A    between atoms: C_5  and  N_7
REMARK    3  A    between atoms: C_10  and  O_12
REMARK    4  A    between atoms: O_12  and  C_13
REMARK    5  A    between atoms: C_20  and  N_33
REMARK    6  A    between atoms: C_21  and  C_31
REMARK    7  A    between atoms: C_22  and  C_24
REMARK                            x       y       z     vdW  Elec       q    Type
REMARK                         _______ _______ _______ _____ _____    ______ ____
ROOT
ATOM      1  C   UNL     1       4.784   4.242   0.011  0.00  0.00    +0.135 A 
ATOM      2  C   UNL     1       6.019   3.611  -0.047  0.00  0.00    +0.047 A 
ATOM      3  C   UNL     1       7.178   4.361  -0.020  0.00  0.00    +0.012 A 
ATOM      4  C   UNL     1       7.115   5.740   0.065  0.00  0.00    +0.008 A 
ATOM      5  C   UNL     1       5.885   6.376   0.123  0.00  0.00    +0.138 A 
ATOM      6  C   UNL     1       4.717   5.624   0.091  0.00  0.00    +0.093 A 
ATOM      7  O   UNL     1       5.803   7.726   0.206  0.00  0.00    -0.441 OA
ATOM      8  C   UNL     1       6.866   8.439   0.615  0.00  0.00    +0.199 C 
ATOM      9  C   UNL     1       8.121   7.933   0.587  0.00  0.00    +0.098 C 
ATOM     10  C   UNL     1       8.391   6.539   0.092  0.00  0.00    +0.098 C 
ENDROOT
BRANCH  10  11
ATOM     11  C   UNL     1       8.968   6.606  -1.298  0.00  0.00    -0.035 A 
ATOM     12  C   UNL     1       8.239   7.182  -2.322  0.00  0.00    +0.005 A 
ATOM     13  C   UNL     1       8.768   7.244  -3.597  0.00  0.00    +0.015 A 
ATOM     14  C   UNL     1      10.027   6.730  -3.849  0.00  0.00    +0.018 A 
ATOM     15  C   UNL     1      10.757   6.154  -2.825  0.00  0.00    +0.015 A 
ATOM     16  C   UNL     1      10.229   6.097  -1.548  0.00  0.00    +0.005 A 
ATOM     17 BR   UNL     1      10.752   6.814  -5.594  0.00  0.00    -0.050 Br
ENDBRANCH  10  11
BRANCH   8  18
ATOM     18  N   UNL     1       6.674   9.717   1.075  0.00  0.00    -0.328 N 
ATOM     19  H   UNL     1       5.780  10.094   1.102  0.00  0.00    +0.145 HD
ATOM     20  H   UNL     1       7.431  10.244   1.374  0.00  0.00    +0.145 HD
ENDBRANCH   8  18
BRANCH   9  21
ATOM     21  C   UNL     1       9.214   8.742   1.036  0.00  0.00    +0.101 C 
ATOM     22  N   UNL     1      10.081   9.383   1.393  0.00  0.00    -0.191 NA
ENDBRANCH   9  21
BRANCH   1  23
ATOM     23  O   UNL     1       3.641   3.506  -0.015  0.00  0.00    -0.422 OA
BRANCH  23  24
ATOM     24  C   UNL     1       3.271   2.872   1.115  0.00  0.00    +0.345 C 
ATOM     25  O   UNL     1       3.997   2.894   2.089  0.00  0.00    -0.245 OA
BRANCH  24  28
ATOM     26  C   UNL     1      -0.053   1.447   0.108  0.00  0.00    +0.003 A 
ATOM     27  C   UNL     1       1.148   2.123   0.051  0.00  0.00    +0.015 A 
ATOM     28  C   UNL     1       1.984   2.150   1.169  0.00  0.00    +0.062 A 
ATOM     29  C   UNL     1       1.597   1.492   2.338  0.00  0.00    +0.047 A 
ATOM     30  C   UNL     1       0.394   0.819   2.381  0.00  0.00    +0.127 A 
ATOM     31  C   UNL     1      -0.430   0.796   1.269  0.00  0.00    +0.033 A 
BRANCH  30  32
ATOM     32  N   UNL     1      -0.017   0.120   3.619  0.00  0.00    +0.056 N 
ATOM     33  O   UNL     1       0.702   0.139   4.591  0.00  0.00    -0.126 OA
ATOM     34  O   UNL     1      -1.072  -0.470   3.659  0.00  0.00    -0.126 OA
ENDBRANCH  30  32
ENDBRANCH  24  28
ENDBRANCH  23  24
ENDBRANCH   1  23
TORSDOF 7
