REMARK  Name = ZINC01445077
REMARK  7 active torsions:
REMARK  status: ('A' for Active; 'I' for Inactive)
REMARK    1  A    between atoms: C_6  and  O_7
REMARK    2  A    between atoms: O_7  and  C_8
REMARK    3  A    between atoms: C_8  and  C_9
REMARK    4  A    between atoms: N_11  and  N_12
REMARK    5  A    between atoms: C_13  and  C_14
REMARK    6  A    between atoms: C_17  and  O_22
REMARK    7  A    between atoms: C_19  and  O_20
REMARK                            x       y       z     vdW  Elec       q    Type
REMARK                         _______ _______ _______ _____ _____    ______ ____
ROOT
ATOM      1  N   UNL     1       3.067   7.821   0.013  0.00  0.00    -0.188 NA
ATOM      2  C   UNL     1       4.088   8.625   0.008  0.00  0.00    +0.142 C 
ENDROOT
BRANCH   2   3
ATOM      3  C   UNL     1       3.877  10.083   0.017  0.00  0.00    +0.038 A 
ATOM      4  C   UNL     1       4.973  10.950   0.011  0.00  0.00    +0.032 A 
ATOM      5  C   UNL     1       4.772  12.313   0.019  0.00  0.00    +0.061 A 
ATOM      6  C   UNL     1       3.481  12.830   0.033  0.00  0.00    +0.148 A 
ATOM      7  C   UNL     1       2.386  11.977   0.039  0.00  0.00    +0.102 A 
ATOM      8  C   UNL     1       2.576  10.606   0.026  0.00  0.00    +0.143 A 
ATOM      9 BR   UNL     1       0.634  12.688   0.057  0.00  0.00    -0.043 Br
ATOM     10 BR   UNL     1       6.256  13.485   0.011  0.00  0.00    -0.046 Br
BRANCH   8  11
ATOM     11  O   UNL     1       1.506   9.770   0.026  0.00  0.00    -0.505 OA
ATOM     12  H   UNL     1       1.200   9.523   0.910  0.00  0.00    +0.292 HD
ENDBRANCH   8  11
BRANCH   6  13
ATOM     13  O   UNL     1       3.291  14.175   0.041  0.00  0.00    -0.504 OA
ATOM     14  H   UNL     1       3.228  14.569  -0.840  0.00  0.00    +0.292 HD
ENDBRANCH   6  13
ENDBRANCH   2   3
BRANCH   1  17
ATOM     15  C   UNL     1       2.209   5.601   0.010  0.00  0.00    +0.270 C 
ATOM     16  O   UNL     1       1.083   6.051   0.023  0.00  0.00    -0.270 OA
ATOM     17  N   UNL     1       3.268   6.435   0.004  0.00  0.00    -0.204 N 
ATOM     18  H   UNL     1       4.169   6.075  -0.006  0.00  0.00    +0.177 HD
BRANCH  15  19
ATOM     19  C   UNL     1       2.425   4.109   0.001  0.00  0.00    +0.326 C 
BRANCH  19  20
ATOM     20  O   UNL     1       1.159   3.445   0.009  0.00  0.00    -0.483 OA
BRANCH  20  26
ATOM     21  C   UNL     1      -0.017   1.377   0.010  0.00  0.00    +0.047 A 
ATOM     22  C   UNL     1       0.002  -0.004   0.002  0.00  0.00    +0.023 A 
ATOM     23  C   UNL     1       1.209  -0.680  -0.013  0.00  0.00    +0.041 A 
ATOM     24  C   UNL     1       2.399   0.025  -0.020  0.00  0.00    +0.023 A 
ATOM     25  C   UNL     1       2.385   1.406  -0.013  0.00  0.00    +0.047 A 
ATOM     26  C   UNL     1       1.176   2.086   0.002  0.00  0.00    +0.121 A 
ATOM     27 CL   UNL     1       1.230  -2.416  -0.023  0.00  0.00    -0.084 Cl
ENDBRANCH  20  26
ENDBRANCH  19  20
ENDBRANCH  15  19
ENDBRANCH   1  17
TORSDOF 7
