REMARK  Name = ZINC21695256
REMARK  9 active torsions:
REMARK  status: ('A' for Active; 'I' for Inactive)
REMARK    1  A    between atoms: C_1  and  C_2
REMARK    2  A    between atoms: C_12  and  C_14
REMARK    3  A    between atoms: C_14  and  C_16
REMARK    4  A    between atoms: C_14  and  S_17
REMARK    5  A    between atoms: S_17  and  C_18
REMARK    6  A    between atoms: C_21  and  C_24
REMARK    7  A    between atoms: N_22  and  N_23
REMARK    8  A    between atoms: C_27  and  O_30
REMARK    9  A    between atoms: O_30  and  C_31
REMARK                            x       y       z     vdW  Elec       q    Type
REMARK                         _______ _______ _______ _____ _____    ______ ____
ROOT
ATOM      1  C   UNL     1      -4.928   6.297   0.451  0.00  0.00    +0.209 A 
ATOM      2  N   UNL     1      -5.114   5.090  -0.034  0.00  0.00    -0.121 NA
ATOM      3  N   UNL     1      -6.367   4.805  -0.041  0.00  0.00    -0.127 NA
ATOM      4  C   UNL     1      -7.059   5.816   0.430  0.00  0.00    +0.182 A 
ATOM      5  N   UNL     1      -6.159   6.803   0.760  0.00  0.00    -0.224 N 
ENDROOT
BRANCH   4   6
ATOM      6  C   UNL     1      -8.528   5.882   0.579  0.00  0.00    +0.021 A 
ATOM      7  C   UNL     1      -9.289   4.712   0.536  0.00  0.00    +0.015 A 
ATOM      8  C   UNL     1     -10.658   4.777   0.681  0.00  0.00    +0.046 A 
ATOM      9  C   UNL     1     -11.282   6.005   0.859  0.00  0.00    +0.127 A 
ATOM     10  C   UNL     1     -10.530   7.171   0.896  0.00  0.00    +0.046 A 
ATOM     11  C   UNL     1      -9.159   7.115   0.757  0.00  0.00    +0.015 A 
BRANCH   9  12
ATOM     12  O   UNL     1     -12.633   6.065   0.996  0.00  0.00    -0.434 OA
BRANCH  12  13
ATOM     13  C   UNL     1     -13.345   4.828   0.948  0.00  0.00    +0.541 C 
ATOM     14  F   UNL     1     -13.120   4.207  -0.286  0.00  0.00    -0.166 F 
ATOM     15  F   UNL     1     -12.900   3.993   1.978  0.00  0.00    -0.166 F 
ENDBRANCH  12  13
ENDBRANCH   9  12
ENDBRANCH   4   6
BRANCH   5  16
ATOM     16  N   UNL     1      -6.437   8.033   1.286  0.00  0.00    -0.295 N 
ATOM     17  H   UNL     1      -7.479   8.320   1.490  0.00  0.00    +0.163 HD
ATOM     18  H   UNL     1      -5.620   8.735   1.507  0.00  0.00    +0.163 HD
ENDBRANCH   5  16
BRANCH   1  19
ATOM     19  S   UNL     1      -3.380   7.114   0.657  0.00  0.00    -0.072 S 
BRANCH  19  20
ATOM     20  C   UNL     1      -2.263   5.831   0.040  0.00  0.00    +0.137 C 
ATOM     21  C   UNL     1      -2.525   5.600  -1.450  0.00  0.00    +0.029 C 
BRANCH  20  32
ATOM     22  C   UNL     1       1.983   6.721  -0.889  0.00  0.00    +0.029 C 
ATOM     23  C   UNL     1       1.595   5.706   0.189  0.00  0.00    +0.083 C 
ATOM     24  C   UNL     1       2.327   4.374  -0.045  0.00  0.00    +0.059 C 
ATOM     25  C   UNL     1       1.221   3.366  -0.261  0.00  0.00    -0.024 A 
ATOM     26  C   UNL     1       1.270   2.008  -0.516  0.00  0.00    +0.005 A 
ATOM     27  C   UNL     1       0.100   1.290  -0.680  0.00  0.00    +0.000 A 
ATOM     28  C   UNL     1      -1.121   1.935  -0.593  0.00  0.00    +0.002 A 
ATOM     29  C   UNL     1      -1.174   3.287  -0.334  0.00  0.00    +0.024 A 
ATOM     30  C   UNL     1       0.003   4.020  -0.167  0.00  0.00    +0.040 A 
ATOM     31  N   UNL     1       0.169   5.383   0.094  0.00  0.00    -0.267 N 
ATOM     32  C   UNL     1      -0.835   6.271   0.236  0.00  0.00    +0.233 C 
ATOM     33  O   UNL     1      -0.590   7.423   0.522  0.00  0.00    -0.274 OA
ENDBRANCH  20  32
ENDBRANCH  19  20
ENDBRANCH   1  19
TORSDOF 7
