REMARK  Name = ZINC36497775
REMARK  11 active torsions:
REMARK  status: ('A' for Active; 'I' for Inactive)
REMARK    1  A    between atoms: C_1  and  C_2
REMARK    2  A    between atoms: C_2  and  C_3
REMARK    3  A    between atoms: C_2  and  C_4
REMARK    4  A    between atoms: C_2  and  N_5
REMARK    5  A    between atoms: C_6  and  C_8
REMARK    6  A    between atoms: C_8  and  C_10
REMARK    7  A    between atoms: C_8  and  N_17
REMARK    8  A    between atoms: N_17  and  C_18
REMARK    9  A    between atoms: C_18  and  C_19
REMARK   10  A    between atoms: C_24  and  C_26
REMARK   11  A    between atoms: C_26  and  C_27
REMARK                            x       y       z     vdW  Elec       q    Type
REMARK                         _______ _______ _______ _____ _____    ______ ____
ROOT
ATOM      1  N   UNL     1       4.082   0.006  -2.719  0.00  0.00    -0.278 N 
ATOM      2  C   UNL     1       4.928  -0.602  -3.573  0.00  0.00    +0.221 C 
ATOM      3  O   UNL     1       4.500  -1.373  -4.405  0.00  0.00    -0.275 OA
ENDROOT
BRANCH   1   4
ATOM      4  C   UNL     1       2.644  -0.264  -2.797  0.00  0.00    +0.193 C 
BRANCH   4   5
ATOM      5  C   UNL     1       2.053   0.489  -3.961  0.00  0.00    -0.018 A 
ATOM      6  C   UNL     1       2.506   1.760  -4.263  0.00  0.00    +0.007 A 
ATOM      7  C   UNL     1       1.965   2.451  -5.331  0.00  0.00    +0.020 A 
ATOM      8  C   UNL     1       0.970   1.871  -6.097  0.00  0.00    +0.041 A 
ATOM      9  C   UNL     1       0.517   0.599  -5.794  0.00  0.00    +0.020 A 
ATOM     10  C   UNL     1       1.063  -0.093  -4.729  0.00  0.00    +0.007 A 
ATOM     11 CL   UNL     1       0.289   2.739  -7.438  0.00  0.00    -0.084 Cl
ENDBRANCH   4   5
BRANCH   4  13
ATOM     12  N   UNL     1       0.635   0.249  -1.448  0.00  0.00    -0.309 N 
ATOM     13  C   UNL     1       1.979   0.183  -1.520  0.00  0.00    +0.238 C 
ATOM     14  O   UNL     1       2.654   0.482  -0.558  0.00  0.00    -0.273 OA
ATOM     15  H   UNL     1       0.095   0.010  -2.217  0.00  0.00    +0.149 HD
BRANCH  12  17
ATOM     16  C   UNL     1       0.448   2.102   0.138  0.00  0.00    +0.031 C 
ATOM     17  C   UNL     1      -0.011   0.684  -0.207  0.00  0.00    +0.026 C 
ATOM     18  C   UNL     1       0.373  -0.267   0.928  0.00  0.00    +0.031 C 
ATOM     19  C   UNL     1      -1.530   0.671  -0.391  0.00  0.00    +0.031 C 
ENDBRANCH  12  17
ENDBRANCH   4  13
ENDBRANCH   1   4
BRANCH   1  20
ATOM     20  C   UNL     1       4.599   0.937  -1.713  0.00  0.00    +0.183 C 
BRANCH  20  21
ATOM     21  C   UNL     1       5.131   0.161  -0.537  0.00  0.00    +0.122 A 
ATOM     22  C   UNL     1       6.418  -0.174  -0.333  0.00  0.00    +0.046 A 
ATOM     23  C   UNL     1       6.466  -0.892   0.884  0.00  0.00    +0.041 A 
ATOM     24  C   UNL     1       5.206  -0.953   1.351  0.00  0.00    +0.195 A 
ATOM     25  O   UNL     1       4.402  -0.308   0.489  0.00  0.00    -0.466 OA
ENDBRANCH  20  21
ENDBRANCH   1  20
BRANCH   2  26
ATOM     26  C   UNL     1       6.407  -0.325  -3.493  0.00  0.00    +0.131 C 
BRANCH  26  27
ATOM     27  C   UNL     1       7.126  -1.124  -4.549  0.00  0.00    -0.039 A 
ATOM     28  C   UNL     1       7.580  -2.398  -4.263  0.00  0.00    +0.005 A 
ATOM     29  C   UNL     1       8.239  -3.131  -5.231  0.00  0.00    +0.015 A 
ATOM     30  C   UNL     1       8.445  -2.590  -6.487  0.00  0.00    +0.018 A 
ATOM     31  C   UNL     1       7.991  -1.315  -6.774  0.00  0.00    +0.015 A 
ATOM     32  C   UNL     1       7.328  -0.584  -5.806  0.00  0.00    +0.005 A 
ATOM     33 BR   UNL     1       9.347  -3.593  -7.813  0.00  0.00    -0.050 Br
ENDBRANCH  26  27
ENDBRANCH   2  26
TORSDOF 8
