REMARK  Name = ZINC65382059
REMARK  5 active torsions:
REMARK  status: ('A' for Active; 'I' for Inactive)
REMARK    1  A    between atoms: C_3  and  C_6
REMARK    2  A    between atoms: C_7  and  C_8
REMARK    3  A    between atoms: C_8  and  N_9
REMARK    4  A    between atoms: C_12  and  C_15
REMARK    5  A    between atoms: C_19  and  C_21
REMARK                            x       y       z     vdW  Elec       q    Type
REMARK                         _______ _______ _______ _____ _____    ______ ____
ROOT
ATOM      1  C   UNL     1       8.862  -2.629   2.927  0.00  0.00    -0.043 A 
ATOM      2  C   UNL     1       8.229  -2.085   4.036  0.00  0.00    +0.023 A 
ATOM      3  C   UNL     1       8.912  -2.002   5.235  0.00  0.00    +0.111 A 
ATOM      4  N   UNL     1      10.153  -2.432   5.337  0.00  0.00    -0.255 NA
ATOM      5  C   UNL     1      10.795  -2.958   4.302  0.00  0.00    +0.071 A 
ATOM      6  C   UNL     1      10.164  -3.078   3.064  0.00  0.00    +0.032 A 
ENDROOT
BRANCH   5   7
ATOM      7  C   UNL     1      12.192  -3.428   4.464  0.00  0.00    +0.004 A 
ATOM      8  C   UNL     1      12.874  -3.977   3.379  0.00  0.00    +0.014 A 
ATOM      9  C   UNL     1      14.174  -4.414   3.530  0.00  0.00    +0.050 A 
ATOM     10  C   UNL     1      14.806  -4.309   4.761  0.00  0.00    +0.166 A 
ATOM     11  C   UNL     1      14.128  -3.760   5.849  0.00  0.00    +0.167 A 
ATOM     12  C   UNL     1      12.827  -3.316   5.699  0.00  0.00    +0.059 A 
ATOM     13  O   UNL     1      14.961  -3.770   6.931  0.00  0.00    -0.453 OA
ATOM     14  C   UNL     1      16.009  -4.700   6.601  0.00  0.00    +0.466 C 
ATOM     15  O   UNL     1      16.062  -4.660   5.162  0.00  0.00    -0.453 OA
ENDBRANCH   5   7
BRANCH   1  19
ATOM     16  N   UNL     1       6.192  -1.398   1.070  0.00  0.00    +0.382 N 
ATOM     17  C   UNL     1       5.846  -2.827   0.855  0.00  0.00    -0.078 C 
ATOM     18  C   UNL     1       6.858  -3.575   1.759  0.00  0.00    -0.012 C 
ATOM     19  C   UNL     1       8.147  -2.735   1.605  0.00  0.00    +0.001 C 
ATOM     20  C   UNL     1       7.668  -1.347   1.142  0.00  0.00    -0.070 C 
ATOM     21  H   UNL     1       5.790  -1.068   1.935  0.00  0.00    -0.081 HD
BRANCH  16  22
ATOM     22  C   UNL     1       5.711  -0.586  -0.056  0.00  0.00    -0.051 C 
BRANCH  22  24
ATOM     23  C   UNL     1       3.567   0.618  -0.029  0.00  0.00    +0.040 C 
ATOM     24  C   UNL     1       4.204  -0.549  -0.041  0.00  0.00    -0.042 C 
BRANCH  23  27
ATOM     25  C   UNL     1      -0.016   1.344   0.009  0.00  0.00    +0.042 A 
ATOM     26  C   UNL     1       1.324   1.775  -0.001  0.00  0.00    +0.049 A 
ATOM     27  C   UNL     1       2.097   0.654  -0.015  0.00  0.00    +0.127 A 
ATOM     28  O   UNL     1       1.280  -0.418  -0.012  0.00  0.00    -0.464 OA
ATOM     29  C   UNL     1       0.002  -0.004   0.002  0.00  0.00    +0.195 A 
ENDBRANCH  23  27
ENDBRANCH  22  24
ENDBRANCH  16  22
ENDBRANCH   1  19
TORSDOF 5
