REMARK  Name = ZINC60360980
REMARK  5 active torsions:
REMARK  status: ('A' for Active; 'I' for Inactive)
REMARK    1  A    between atoms: C_2  and  C_26
REMARK    2  A    between atoms: C_5  and  N_10
REMARK    3  A    between atoms: C_6  and  N_7
REMARK    4  A    between atoms: C_13  and  C_16
REMARK    5  A    between atoms: C_18  and  C_22
REMARK                            x       y       z     vdW  Elec       q    Type
REMARK                         _______ _______ _______ _____ _____    ______ ____
ROOT
ATOM      1  N   UNL     1       1.237  -2.078  -0.022  0.00  0.00    -0.328 N 
ATOM      2  C   UNL     1       1.242  -2.818  -1.291  0.00  0.00    +0.106 C 
ATOM      3  C   UNL     1       2.425  -3.792  -1.289  0.00  0.00    +0.030 C 
ATOM      4  C   UNL     1       2.349  -4.679  -0.044  0.00  0.00    +0.062 C 
ATOM      5  C   UNL     1       2.438  -3.807   1.211  0.00  0.00    +0.030 C 
ATOM      6  C   UNL     1       1.261  -2.834   1.237  0.00  0.00    +0.106 C 
ENDROOT
BRANCH   1  11
ATOM      7  C   UNL     1      -0.017   1.377   0.010  0.00  0.00    +0.048 A 
ATOM      8  C   UNL     1       1.170   2.086   0.002  0.00  0.00    +0.075 A 
ATOM      9  C   UNL     1       2.381   1.415  -0.013  0.00  0.00    +0.054 A 
ATOM     10  C   UNL     1       2.406   0.033  -0.021  0.00  0.00    +0.046 A 
ATOM     11  C   UNL     1       1.215  -0.681  -0.014  0.00  0.00    +0.062 A 
ATOM     12  C   UNL     1       0.002  -0.004   0.002  0.00  0.00    +0.148 A 
ATOM     13 CL   UNL     1       3.868   2.310  -0.022  0.00  0.00    -0.083 Cl
BRANCH   8  14
ATOM     14  C   UNL     1       1.146   3.593   0.010  0.00  0.00    +0.419 C 
ATOM     15  F   UNL     1      -0.181   4.038   0.025  0.00  0.00    -0.166 F 
ATOM     16  F   UNL     1       1.808   4.064   1.149  0.00  0.00    -0.166 F 
ATOM     17  F   UNL     1       1.787   4.076  -1.136  0.00  0.00    -0.166 F 
ENDBRANCH   8  14
BRANCH  12  18
ATOM     18  N   UNL     1      -1.269  -0.762   0.010  0.00  0.00    +0.058 N 
ATOM     19  O   UNL     1      -2.325  -0.172   0.023  0.00  0.00    -0.126 OA
ATOM     20  O   UNL     1      -1.252  -1.971   0.004  0.00  0.00    -0.126 OA
ENDBRANCH  12  18
ENDBRANCH   1  11
BRANCH   4  21
ATOM     21  C   UNL     1       3.492  -5.660  -0.056  0.00  0.00    +0.154 A 
ATOM     22  N   UNL     1       3.373  -6.987  -0.068  0.00  0.00    -0.216 NA
ATOM     23  C   UNL     1       4.559  -7.539  -0.076  0.00  0.00    +0.128 A 
ATOM     24  N   UNL     1       5.476  -6.557  -0.069  0.00  0.00    -0.262 N 
ATOM     25  H   UNL     1       6.441  -6.662  -0.072  0.00  0.00    +0.190 HD
ATOM     26  N   UNL     1       4.761  -5.348  -0.061  0.00  0.00    -0.157 NA
BRANCH  23  27
ATOM     27  C   UNL     1       4.846  -9.019  -0.090  0.00  0.00    +0.056 C 
ATOM     28  C   UNL     1       6.093  -9.503   0.654  0.00  0.00    +0.012 C 
ATOM     29  C   UNL     1       6.071  -9.493  -0.876  0.00  0.00    +0.012 C 
ENDBRANCH  23  27
ENDBRANCH   4  21
TORSDOF 5
