REMARK  Name = ZINC35059996
REMARK  4 active torsions:
REMARK  status: ('A' for Active; 'I' for Inactive)
REMARK    1  A    between atoms: C_1  and  C_2
REMARK    2  A    between atoms: C_5  and  S_7
REMARK    3  A    between atoms: S_7  and  C_8
REMARK    4  A    between atoms: C_11  and  N_18
REMARK                            x       y       z     vdW  Elec       q    Type
REMARK                         _______ _______ _______ _____ _____    ______ ____
ROOT
ATOM      1  C   UNL     1       0.115  -4.747   1.936  0.00  0.00    +0.024 A 
ATOM      2  C   UNL     1       0.213  -4.992   0.582  0.00  0.00    +0.017 A 
ATOM      3  C   UNL     1       0.259  -6.294   0.097  0.00  0.00    +0.026 A 
ATOM      4  C   UNL     1       0.209  -7.372   0.954  0.00  0.00    +0.051 A 
ATOM      5  C   UNL     1       0.109  -7.157   2.345  0.00  0.00    +0.093 A 
ATOM      6  C   UNL     1       0.068  -5.830   2.838  0.00  0.00    +0.016 A 
ATOM      7  C   UNL     1      -0.026  -5.621   4.225  0.00  0.00    +0.012 A 
ATOM      8  C   UNL     1      -0.068  -6.716   5.042  0.00  0.00    +0.020 A 
ATOM      9  C   UNL     1      -0.017  -7.995   4.492  0.00  0.00    +0.111 A 
ATOM     10  N   UNL     1       0.059  -8.186   3.197  0.00  0.00    -0.253 NA
ENDROOT
BRANCH   4  11
ATOM     11  N   UNL     1       0.256  -8.674   0.447  0.00  0.00    -0.356 N 
ATOM     12  H   UNL     1       0.325  -8.820  -0.510  0.00  0.00    +0.142 HD
ATOM     13  H   UNL     1       0.221  -9.432   1.052  0.00  0.00    +0.142 HD
ENDBRANCH   4  11
BRANCH   1  14
ATOM     14  S   UNL     1       0.056  -3.092   2.536  0.00  0.00    -0.062 S 
BRANCH  14  19
ATOM     15  C   UNL     1      -4.152  -0.612   4.443  0.00  0.00    +0.066 C 
ATOM     16  C   UNL     1      -3.517  -1.803   3.773  0.00  0.00    +0.047 A 
ATOM     17  C   UNL     1      -4.278  -2.864   3.412  0.00  0.00    +0.070 A 
ATOM     18  S   UNL     1      -3.037  -3.932   2.692  0.00  0.00    -0.069 S 
ATOM     19  C   UNL     1      -1.639  -2.848   2.950  0.00  0.00    +0.139 A 
ATOM     20  N   UNL     1      -2.221  -1.812   3.532  0.00  0.00    -0.238 NA
ENDBRANCH  14  19
ENDBRANCH   1  14
TORSDOF 3
