REMARK  Name = ZINC38663719
REMARK  8 active torsions:
REMARK  status: ('A' for Active; 'I' for Inactive)
REMARK    1  A    between atoms: C_1  and  C_2
REMARK    2  A    between atoms: C_4  and  C_30
REMARK    3  A    between atoms: C_8  and  C_12
REMARK    4  A    between atoms: C_12  and  C_14
REMARK    5  A    between atoms: C_12  and  S_15
REMARK    6  A    between atoms: S_15  and  C_16
REMARK    7  A    between atoms: C_19  and  C_23
REMARK    8  A    between atoms: N_21  and  N_22
REMARK                            x       y       z     vdW  Elec       q    Type
REMARK                         _______ _______ _______ _____ _____    ______ ____
ROOT
ATOM      1  S   UNL     1      -3.997  -4.170   4.796  0.00  0.00    -0.107 S 
ENDROOT
BRANCH   1   2
ATOM      2  C   UNL     1      -4.032  -5.264   6.243  0.00  0.00    +0.249 C 
ATOM      3  N   UNL     1      -3.543  -4.551   7.428  0.00  0.00    -0.255 NA
ATOM      4  C   UNL     1      -2.733  -5.295   8.104  0.00  0.00    +0.061 C 
ATOM      5  C   UNL     1      -2.588  -6.634   7.415  0.00  0.00    +0.160 C 
ATOM      6  N   UNL     1      -3.108  -6.405   6.043  0.00  0.00    -0.207 NA
BRANCH   4   7
ATOM      7  C   UNL     1      -2.054  -4.902   9.355  0.00  0.00    -0.003 A 
ATOM      8  C   UNL     1      -1.193  -5.794   9.996  0.00  0.00    +0.010 A 
ATOM      9  C   UNL     1      -0.562  -5.420  11.164  0.00  0.00    +0.001 A 
ATOM     10  C   UNL     1      -0.782  -4.163  11.701  0.00  0.00    +0.000 A 
ATOM     11  C   UNL     1      -1.634  -3.274  11.071  0.00  0.00    +0.001 A 
ATOM     12  C   UNL     1      -2.267  -3.634   9.899  0.00  0.00    +0.010 A 
ENDBRANCH   4   7
BRANCH   6  13
ATOM     13  N   UNL     1      -3.821  -7.573   5.552  0.00  0.00    -0.265 NA
ATOM     14  H   UNL     1      -3.192  -8.350   5.417  0.00  0.00    +0.137 HD
ATOM     15  H   UNL     1      -4.576  -7.824   6.173  0.00  0.00    +0.137 HD
ENDBRANCH   6  13
ENDBRANCH   1   2
BRANCH   1  16
ATOM     16  C   UNL     1      -2.262  -3.654   4.678  0.00  0.00    +0.112 C 
ATOM     17  C   UNL     1      -1.894  -2.818   5.906  0.00  0.00    +0.027 C 
BRANCH  16  24
ATOM     18  C   UNL     1      -0.019   1.526   0.010  0.00  0.00    +0.024 C 
ATOM     19  C   UNL     1       0.002  -0.004   0.002  0.00  0.00    +0.076 C 
ATOM     20  C   UNL     1      -1.399  -0.565   0.089  0.00  0.00    -0.045 C 
ATOM     21  C   UNL     1      -1.704  -1.321   1.155  0.00  0.00    +0.071 C 
ATOM     22  C   UNL     1      -0.645  -1.546   2.162  0.00  0.00    +0.111 C 
ATOM     23  N   UNL     1      -0.881  -2.276   3.226  0.00  0.00    -0.226 NA
ATOM     24  C   UNL     1      -2.066  -2.829   3.432  0.00  0.00    +0.136 C 
ATOM     25  N   UNL     1      -3.079  -2.698   2.609  0.00  0.00    -0.160 NA
ATOM     26  C   UNL     1      -3.005  -1.988   1.478  0.00  0.00    +0.271 C 
ATOM     27  O   UNL     1      -3.966  -1.886   0.735  0.00  0.00    -0.268 OA
ATOM     28  S   UNL     1       0.764  -0.661   1.541  0.00  0.00    -0.098 S 
ATOM     29  C   UNL     1      -2.419  -0.284  -0.984  0.00  0.00    +0.041 C 
ENDBRANCH  16  24
ENDBRANCH   1  16
TORSDOF 5
