REMARK  Name = ZINC10039404
REMARK  15 active torsions:
REMARK  status: ('A' for Active; 'I' for Inactive)
REMARK    1  A    between atoms: C_1  and  C_2
REMARK    2  A    between atoms: C_2  and  O_3
REMARK    3  A    between atoms: O_3  and  C_4
REMARK    4  A    between atoms: C_6  and  C_16
REMARK    5  A    between atoms: C_8  and  O_13
REMARK    6  A    between atoms: C_9  and  O_10
REMARK    7  A    between atoms: O_10  and  C_11
REMARK    8  A    between atoms: C_11  and  C_12
REMARK    9  A    between atoms: O_13  and  C_14
REMARK   10  A    between atoms: C_14  and  C_15
REMARK   11  A    between atoms: N_18  and  C_19
REMARK   12  A    between atoms: C_19  and  N_21
REMARK   13  A    between atoms: N_21  and  C_22
REMARK   14  A    between atoms: C_23  and  C_33
REMARK   15  A    between atoms: C_28  and  C_32
REMARK                            x       y       z     vdW  Elec       q    Type
REMARK                         _______ _______ _______ _____ _____    ______ ____
ROOT
ATOM      1  C   UNL     1      -5.292  -7.755   0.123  0.00  0.00    +0.250 C 
ATOM      2  O   UNL     1      -6.022  -6.874  -0.287  0.00  0.00    -0.270 OA
ATOM      3  N   UNL     1      -4.027  -7.468   0.489  0.00  0.00    -0.264 N 
ATOM      4  H   UNL     1      -3.445  -8.171   0.816  0.00  0.00    +0.157 HD
ENDROOT
BRANCH   1   7
ATOM      5  C   UNL     1      -7.568 -10.738  -0.066  0.00  0.00    +0.166 A 
ATOM      6  C   UNL     1      -7.103  -9.440  -0.158  0.00  0.00    +0.062 A 
ATOM      7  C   UNL     1      -5.792  -9.140   0.221  0.00  0.00    +0.044 A 
ATOM      8  C   UNL     1      -4.952 -10.156   0.686  0.00  0.00    +0.062 A 
ATOM      9  C   UNL     1      -5.424 -11.451   0.781  0.00  0.00    +0.166 A 
ATOM     10  C   UNL     1      -6.731 -11.747   0.403  0.00  0.00    +0.204 A 
BRANCH   5  11
ATOM     11  O   UNL     1      -8.844 -11.030  -0.435  0.00  0.00    -0.488 OA
BRANCH  11  13
ATOM     12  C   UNL     1     -11.040 -10.465  -1.272  0.00  0.00    +0.048 C 
ATOM     13  C   UNL     1      -9.647  -9.947  -0.907  0.00  0.00    +0.226 C 
ENDBRANCH  11  13
ENDBRANCH   5  11
BRANCH  10  14
ATOM     14  O   UNL     1      -7.191 -13.023   0.492  0.00  0.00    -0.485 OA
BRANCH  14  15
ATOM     15  C   UNL     1      -7.016 -13.857  -0.655  0.00  0.00    +0.226 C 
ATOM     16  C   UNL     1      -7.591 -15.245  -0.368  0.00  0.00    +0.048 C 
ENDBRANCH  14  15
ENDBRANCH  10  14
BRANCH   9  17
ATOM     17  O   UNL     1      -4.609 -12.440   1.238  0.00  0.00    -0.488 OA
BRANCH  17  18
ATOM     18  C   UNL     1      -3.281 -12.066   1.608  0.00  0.00    +0.226 C 
ATOM     19  C   UNL     1      -2.520 -13.301   2.094  0.00  0.00    +0.048 C 
ENDBRANCH  17  18
ENDBRANCH   9  17
ENDBRANCH   1   7
BRANCH   3  20
ATOM     20  C   UNL     1      -3.571  -6.203   0.400  0.00  0.00    +0.141 C 
ATOM     21  S   UNL     1      -4.598  -4.961  -0.177  0.00  0.00    -0.018 S 
BRANCH  20  22
ATOM     22  N   UNL     1      -2.306  -5.915   0.766  0.00  0.00    -0.291 N 
ATOM     23  H   UNL     1      -1.724  -6.619   1.093  0.00  0.00    +0.154 HD
BRANCH  22  24
ATOM     24  C   UNL     1      -1.837  -4.615   0.674  0.00  0.00    +0.084 A 
ATOM     25  C   UNL     1      -0.579  -4.127   1.000  0.00  0.00    +0.068 A 
ATOM     26  C   UNL     1      -0.340  -2.706   0.809  0.00  0.00    -0.023 A 
ATOM     27  C   UNL     1      -1.390  -2.006   0.327  0.00  0.00    -0.004 A 
ATOM     28  S   UNL     1      -2.679  -3.203   0.126  0.00  0.00    -0.077 S 
ATOM     29  C   UNL     1      -1.437  -0.538   0.030  0.00  0.00    +0.046 C 
ATOM     30  C   UNL     1       0.002  -0.004   0.002  0.00  0.00    -0.009 C 
ATOM     31  C   UNL     1       0.742  -0.514   1.242  0.00  0.00    +0.008 C 
ATOM     32  C   UNL     1       0.984  -2.020   1.121  0.00  0.00    +0.037 C 
ATOM     33  C   UNL     1      -0.019   1.526   0.010  0.00  0.00    +0.008 C 
BRANCH  25  34
ATOM     34  C   UNL     1       0.469  -5.011   1.517  0.00  0.00    +0.244 C 
ATOM     35  O   UNL     1       0.577  -5.191   2.716  0.00  0.00    -0.270 OA
ATOM     36  N   UNL     1       1.314  -5.625   0.665  0.00  0.00    -0.325 N 
ATOM     37  H   UNL     1       1.228  -5.481  -0.290  0.00  0.00    +0.145 HD
ATOM     38  H   UNL     1       2.007  -6.210   1.007  0.00  0.00    +0.145 HD
ENDBRANCH  25  34
ENDBRANCH  22  24
ENDBRANCH  20  22
ENDBRANCH   3  20
TORSDOF 11
