REMARK  Name = ZINC35641955
REMARK  12 active torsions:
REMARK  status: ('A' for Active; 'I' for Inactive)
REMARK    1  A    between atoms: C_1  and  C_2
REMARK    2  A    between atoms: C_2  and  O_3
REMARK    3  A    between atoms: O_3  and  C_4
REMARK    4  A    between atoms: C_4  and  C_6
REMARK    5  A    between atoms: C_7  and  C_24
REMARK    6  A    between atoms: N_8  and  C_21
REMARK    7  A    between atoms: C_12  and  C_14
REMARK    8  A    between atoms: C_17  and  C_20
REMARK    9  A    between atoms: C_21  and  C_22
REMARK   10  A    between atoms: C_24  and  N_25
REMARK   11  A    between atoms: N_25  and  C_26
REMARK   12  A    between atoms: N_25  and  C_27
REMARK                            x       y       z     vdW  Elec       q    Type
REMARK                         _______ _______ _______ _____ _____    ______ ____
ROOT
ATOM      1  C   UNL     1      -1.250  -2.175  -0.839  0.00  0.00    +0.076 C 
ATOM      2  C   UNL     1      -1.862  -3.365  -0.661  0.00  0.00    +0.011 C 
ATOM      3  N   UNL     1      -3.216  -3.444  -0.497  0.00  0.00    -0.257 N 
ATOM      4  C   UNL     1      -4.027  -2.379  -0.499  0.00  0.00    +0.307 C 
ATOM      5  O   UNL     1      -5.221  -2.549  -0.345  0.00  0.00    -0.252 OA
ATOM      6  N   UNL     1      -3.564  -1.125  -0.665  0.00  0.00    -0.288 N 
ATOM      7  C   UNL     1      -2.115  -0.930  -0.845  0.00  0.00    +0.143 C 
ATOM      8  H   UNL     1      -4.170  -0.367  -0.664  0.00  0.00    +0.151 HD
ENDROOT
BRANCH   7   9
ATOM      9  C   UNL     1      -1.625  -0.018   0.250  0.00  0.00    -0.022 A 
ATOM     10  C   UNL     1      -1.990  -0.255   1.562  0.00  0.00    +0.006 A 
ATOM     11  C   UNL     1      -1.541   0.582   2.567  0.00  0.00    +0.004 A 
ATOM     12  C   UNL     1      -0.725   1.654   2.259  0.00  0.00    -0.050 A 
ATOM     13  C   UNL     1      -0.358   1.890   0.947  0.00  0.00    +0.004 A 
ATOM     14  C   UNL     1      -0.804   1.051  -0.057  0.00  0.00    +0.006 A 
ATOM     15  C   UNL     1      -0.235   2.567   3.354  0.00  0.00    +0.044 C 
ENDBRANCH   7   9
BRANCH   1  16
ATOM     16  C   UNL     1       0.152  -2.091  -1.009  0.00  0.00    +0.339 C 
ATOM     17  O   UNL     1       0.838  -3.091  -0.905  0.00  0.00    -0.245 OA
BRANCH  16  18
ATOM     18  O   UNL     1       0.729  -0.903  -1.285  0.00  0.00    -0.462 OA
BRANCH  18  20
ATOM     19  C   UNL     1       2.617   0.531  -1.750  0.00  0.00    +0.048 C 
ATOM     20  C   UNL     1       2.149  -0.892  -1.444  0.00  0.00    +0.229 C 
ENDBRANCH  18  20
ENDBRANCH  16  18
ENDBRANCH   1  16
BRANCH   3  21
ATOM     21  C   UNL     1      -3.813  -4.768  -0.308  0.00  0.00    +0.141 C 
BRANCH  21  22
ATOM     22  C   UNL     1      -3.893  -5.078   1.165  0.00  0.00    -0.015 C 
ATOM     23  C   UNL     1      -5.038  -5.422   1.700  0.00  0.00    +0.005 C 
ENDBRANCH  21  22
ENDBRANCH   3  21
BRANCH   2  24
ATOM     24  C   UNL     1      -1.038  -4.627  -0.643  0.00  0.00    -0.026 C 
BRANCH  24  25
ATOM     25  N   UNL     1      -0.741  -5.037  -2.022  0.00  0.00    +0.383 N 
ATOM     26  C   UNL     1      -1.996  -5.335  -2.726  0.00  0.00    -0.095 C 
ATOM     27  H   UNL     1      -0.258  -4.290  -2.498  0.00  0.00    -0.081 HD
BRANCH  25  28
ATOM     28  C   UNL     1       0.107  -6.236  -2.005  0.00  0.00    -0.068 C 
ATOM     29  C   UNL     1       1.414  -5.926  -1.272  0.00  0.00    -0.015 C 
ATOM     30  C   UNL     1       2.297  -7.175  -1.253  0.00  0.00    -0.002 C 
ATOM     31  C   UNL     1       2.607  -7.602  -2.690  0.00  0.00    -0.000 C 
ATOM     32  C   UNL     1       1.300  -7.912  -3.422  0.00  0.00    -0.002 C 
ATOM     33  C   UNL     1       0.416  -6.663  -3.441  0.00  0.00    -0.015 C 
ENDBRANCH  25  28
ENDBRANCH  24  25
ENDBRANCH   2  24
TORSDOF 9
