REMARK  Name = ZINC06729193
REMARK  7 active torsions:
REMARK  status: ('A' for Active; 'I' for Inactive)
REMARK    1  A    between atoms: C_4  and  C_7
REMARK    2  A    between atoms: C_9  and  S_19
REMARK    3  A    between atoms: C_10  and  C_12
REMARK    4  A    between atoms: S_19  and  C_20
REMARK    5  A    between atoms: C_20  and  C_21
REMARK    6  A    between atoms: N_23  and  C_24
REMARK    7  A    between atoms: C_24  and  C_25
REMARK                            x       y       z     vdW  Elec       q    Type
REMARK                         _______ _______ _______ _____ _____    ______ ____
ROOT
ATOM      1  C   UNL     1       3.695  -0.684  -0.038  0.00  0.00    +0.140 A 
ATOM      2  N   UNL     1       3.849  -2.046  -0.053  0.00  0.00    -0.333 N 
ATOM      3  C   UNL     1       5.194  -2.302  -0.066  0.00  0.00    +0.102 A 
ATOM      4  C   UNL     1       5.829  -1.076  -0.060  0.00  0.00    +0.103 A 
ATOM      5  N   UNL     1       4.880  -0.121  -0.048  0.00  0.00    -0.227 NA
ATOM      6  H   UNL     1       3.138  -2.706  -0.053  0.00  0.00    +0.168 HD
ENDROOT
BRANCH   4   7
ATOM      7  C   UNL     1       7.293  -0.851  -0.070  0.00  0.00    +0.003 A 
ATOM      8  C   UNL     1       8.140  -1.732   0.602  0.00  0.00    +0.013 A 
ATOM      9  C   UNL     1       9.503  -1.518   0.590  0.00  0.00    +0.039 A 
ATOM     10  C   UNL     1      10.030  -0.430  -0.088  0.00  0.00    +0.123 A 
ATOM     11  C   UNL     1       9.193   0.447  -0.757  0.00  0.00    +0.039 A 
ATOM     12  C   UNL     1       7.829   0.239  -0.756  0.00  0.00    +0.013 A 
ATOM     13  F   UNL     1      11.366  -0.226  -0.098  0.00  0.00    -0.205 F 
ENDBRANCH   4   7
BRANCH   1  17
ATOM     14  C   UNL     1      -0.017   1.379   0.010  0.00  0.00    +0.000 A 
ATOM     15  C   UNL     1       1.168   2.094   0.002  0.00  0.00    +0.001 A 
ATOM     16  C   UNL     1       2.377   1.430  -0.013  0.00  0.00    +0.011 A 
ATOM     17  C   UNL     1       2.404   0.034  -0.021  0.00  0.00    +0.017 A 
ATOM     18  C   UNL     1       1.204  -0.681  -0.013  0.00  0.00    +0.011 A 
ATOM     19  C   UNL     1       0.002  -0.004   0.002  0.00  0.00    +0.001 A 
ENDBRANCH   1  17
BRANCH   3  20
ATOM     20  S   UNL     1       5.964  -3.887  -0.088  0.00  0.00    -0.096 S 
BRANCH  20  21
ATOM     21  C   UNL     1       4.573  -5.051  -0.087  0.00  0.00    +0.171 C 
BRANCH  21  22
ATOM     22  C   UNL     1       5.100  -6.463  -0.105  0.00  0.00    +0.223 C 
ATOM     23  O   UNL     1       6.296  -6.664  -0.117  0.00  0.00    -0.275 OA
ATOM     24  N   UNL     1       4.242  -7.502  -0.108  0.00  0.00    -0.312 N 
ATOM     25  H   UNL     1       3.285  -7.342  -0.099  0.00  0.00    +0.149 HD
BRANCH  24  26
ATOM     26  C   UNL     1       4.754  -8.875  -0.125  0.00  0.00    +0.135 C 
BRANCH  26  27
ATOM     27  C   UNL     1       3.580  -9.857  -0.125  0.00  0.00    +0.135 C 
ATOM     28  C   UNL     1       4.101 -11.316  -0.108  0.00  0.00    +0.035 C 
ATOM     29  C   UNL     1       2.889 -12.054   0.525  0.00  0.00    +0.031 C 
ATOM     30  C   UNL     1       2.345 -11.000   1.514  0.00  0.00    +0.160 C 
ATOM     31  O   UNL     1       2.812  -9.716   1.081  0.00  0.00    -0.375 OA
ENDBRANCH  26  27
ENDBRANCH  24  26
ENDBRANCH  21  22
ENDBRANCH  20  21
ENDBRANCH   3  20
TORSDOF 7
