REMARK  Name = ZINC37354678
REMARK  5 active torsions:
REMARK  status: ('A' for Active; 'I' for Inactive)
REMARK    1  A    between atoms: C_1  and  N_2
REMARK    2  A    between atoms: N_2  and  C_3
REMARK    3  A    between atoms: N_2  and  C_4
REMARK    4  A    between atoms: C_4  and  C_6
REMARK    5  A    between atoms: C_4  and  C_8
REMARK                            x       y       z     vdW  Elec       q    Type
REMARK                         _______ _______ _______ _____ _____    ______ ____
ROOT
ATOM      1  C   UNL     1      -1.861  -0.388  -1.510  0.00  0.00    -0.011 A 
ATOM      2  C   UNL     1      -2.619  -1.357  -2.143  0.00  0.00    +0.055 A 
ATOM      3  C   UNL     1      -3.123  -1.115  -3.410  0.00  0.00    +0.164 A 
ATOM      4  C   UNL     1      -2.868   0.094  -4.041  0.00  0.00    +0.180 A 
ATOM      5  C   UNL     1      -2.109   1.062  -3.404  0.00  0.00    +0.087 A 
ATOM      6  C   UNL     1      -1.611   0.819  -2.135  0.00  0.00    +0.030 A 
ATOM      7 CL   UNL     1      -1.788   2.576  -4.191  0.00  0.00    -0.080 Cl
ATOM      8  O   UNL     1      -3.369   0.323  -5.290  0.00  0.00    -0.487 OA
ATOM      9  C   UNL     1      -2.808  -0.465  -6.342  0.00  0.00    +0.232 C 
ATOM     10  C   UNL     1      -3.501  -1.816  -6.432  0.00  0.00    +0.082 C 
ATOM     11  C   UNL     1      -3.273  -2.667  -5.193  0.00  0.00    +0.232 C 
ATOM     12  O   UNL     1      -3.873  -2.062  -4.045  0.00  0.00    -0.488 OA
ENDROOT
BRANCH   1  13
ATOM     13  C   UNL     1      -1.312  -0.647  -0.131  0.00  0.00    +0.190 C 
BRANCH  13  15
ATOM     14  C   UNL     1       0.628  -0.340   1.286  0.00  0.00    +0.106 C 
ATOM     15  N   UNL     1       0.099  -0.242  -0.082  0.00  0.00    -0.290 NA
ATOM     16  C   UNL     1       0.908  -1.037  -1.016  0.00  0.00    +0.106 C 
ENDBRANCH  13  15
BRANCH  13  17
ATOM     17  C   UNL     1      -2.080   0.129   0.857  0.00  0.00    +0.086 C 
ATOM     18  N   UNL     1      -2.672   0.728   1.619  0.00  0.00    -0.195 NA
ENDBRANCH  13  17
ENDBRANCH   1  13
TORSDOF 3
