REMARK  Name = ZINC03468410
REMARK  6 active torsions:
REMARK  status: ('A' for Active; 'I' for Inactive)
REMARK    1  A    between atoms: C_10  and  N_12
REMARK    2  A    between atoms: C_13  and  C_15
REMARK    3  A    between atoms: C_15  and  S_16
REMARK    4  A    between atoms: S_16  and  C_17
REMARK    5  A    between atoms: C_20  and  C_23
REMARK    6  A    between atoms: N_21  and  N_22
REMARK                            x       y       z     vdW  Elec       q    Type
REMARK                         _______ _______ _______ _____ _____    ______ ____
ROOT
ATOM      1  S   UNL     1       6.866   3.338  -0.688  0.00  0.00    -0.075 S 
ENDROOT
BRANCH   1   2
ATOM      2  C   UNL     1       7.989   4.004  -1.871  0.00  0.00    +0.209 A 
ATOM      3  N   UNL     1       8.251   3.512  -3.061  0.00  0.00    -0.121 NA
ATOM      4  N   UNL     1       9.117   4.247  -3.662  0.00  0.00    -0.127 NA
ATOM      5  C   UNL     1       9.461   5.254  -2.893  0.00  0.00    +0.183 A 
ATOM      6  N   UNL     1       8.745   5.133  -1.725  0.00  0.00    -0.224 N 
BRANCH   5   7
ATOM      7  C   UNL     1      10.431   6.320  -3.223  0.00  0.00    +0.039 A 
ATOM      8  C   UNL     1      11.415   6.681  -2.302  0.00  0.00    +0.014 A 
ATOM      9  C   UNL     1      12.318   7.676  -2.616  0.00  0.00    +0.021 A 
ATOM     10  C   UNL     1      12.248   8.317  -3.842  0.00  0.00    +0.042 A 
ATOM     11  C   UNL     1      11.274   7.964  -4.760  0.00  0.00    +0.040 A 
ATOM     12  C   UNL     1      10.368   6.966  -4.460  0.00  0.00    +0.053 A 
ATOM     13 CL   UNL     1       9.152   6.519  -5.615  0.00  0.00    -0.083 Cl
ATOM     14 CL   UNL     1      13.387   9.569  -4.228  0.00  0.00    -0.083 Cl
ENDBRANCH   5   7
BRANCH   6  15
ATOM     15  N   UNL     1       8.784   5.966  -0.643  0.00  0.00    -0.295 N 
ATOM     16  H   UNL     1       9.545   5.723  -0.027  0.00  0.00    +0.163 HD
ATOM     17  H   UNL     1       8.845   6.931  -0.932  0.00  0.00    +0.163 HD
ENDBRANCH   6  15
ENDBRANCH   1   2
BRANCH   1  18
ATOM     18  C   UNL     1       6.203   1.857  -1.498  0.00  0.00    +0.173 C 
BRANCH  18  20
ATOM     19  N   UNL     1       4.592   0.054  -0.975  0.00  0.00    -0.308 N 
ATOM     20  C   UNL     1       5.216   1.182  -0.581  0.00  0.00    +0.224 C 
ATOM     21  O   UNL     1       4.982   1.654   0.511  0.00  0.00    -0.275 OA
ATOM     22  H   UNL     1       4.779  -0.324  -1.849  0.00  0.00    +0.149 HD
BRANCH  19  32
ATOM     23  C   UNL     1      -0.153   1.331  -0.556  0.00  0.00    +0.000 A 
ATOM     24  C   UNL     1       1.017   2.067  -0.512  0.00  0.00    +0.000 A 
ATOM     25  C   UNL     1       2.226   1.421  -0.361  0.00  0.00    +0.006 A 
ATOM     26  C   UNL     1       2.279   0.037  -0.254  0.00  0.00    -0.024 A 
ATOM     27  C   UNL     1       1.115  -0.696  -0.303  0.00  0.00    -0.042 A 
ATOM     28  C   UNL     1      -0.103  -0.043  -0.451  0.00  0.00    +0.004 A 
ATOM     29  C   UNL     1       1.098  -2.199  -0.210  0.00  0.00    +0.035 C 
ATOM     30  C   UNL     1       2.413  -2.716   0.369  0.00  0.00    +0.007 C 
ATOM     31  C   UNL     1       3.569  -2.091  -0.420  0.00  0.00    +0.027 C 
ATOM     32  C   UNL     1       3.632  -0.602  -0.084  0.00  0.00    +0.103 C 
ENDBRANCH  19  32
ENDBRANCH  18  20
ENDBRANCH   1  18
TORSDOF 6
