REMARK  Name = ZINC65258886
REMARK  6 active torsions:
REMARK  status: ('A' for Active; 'I' for Inactive)
REMARK    1  A    between atoms: C_3  and  C_6
REMARK    2  A    between atoms: C_6  and  N_7
REMARK    3  A    between atoms: N_7  and  S_8
REMARK    4  A    between atoms: S_8  and  C_11
REMARK    5  A    between atoms: C_14  and  C_16
REMARK    6  A    between atoms: C_20  and  C_22
REMARK                            x       y       z     vdW  Elec       q    Type
REMARK                         _______ _______ _______ _____ _____    ______ ____
ROOT
ATOM      1  C   UNL     1       6.687   1.442   0.918  0.00  0.00    +0.258 A 
ATOM      2  C   UNL     1       7.111   2.568   1.532  0.00  0.00    +0.071 A 
ATOM      3  C   UNL     1       7.886   3.281   0.604  0.00  0.00    +0.053 A 
ATOM      4  C   UNL     1       7.894   2.535  -0.556  0.00  0.00    +0.154 A 
ATOM      5  O   UNL     1       7.164   1.422  -0.335  0.00  0.00    -0.435 OA
ENDROOT
BRANCH   4   6
ATOM      6  C   UNL     1       8.556   2.874  -1.762  0.00  0.00    +0.123 C 
ATOM      7  N   UNL     1       9.278   3.941  -1.994  0.00  0.00    -0.150 NA
ATOM      8  N   UNL     1       9.783   3.959  -3.290  0.00  0.00    -0.160 NA
ATOM      9  C   UNL     1       9.428   2.920  -3.975  0.00  0.00    +0.127 C 
ATOM     10  C   UNL     1       8.580   2.072  -3.048  0.00  0.00    +0.172 C 
BRANCH  10  11
ATOM     11  C   UNL     1       9.218   0.726  -2.823  0.00  0.00    +0.230 C 
ATOM     12  O   UNL     1       9.624   0.424  -1.721  0.00  0.00    -0.274 OA
ATOM     13  N   UNL     1       9.337  -0.143  -3.846  0.00  0.00    -0.301 N 
ATOM     14  C   UNL     1       8.855   0.211  -5.189  0.00  0.00    +0.108 C 
ATOM     15  C   UNL     1       9.996   0.009  -6.191  0.00  0.00    +0.019 C 
ATOM     16  C   UNL     1      10.529  -1.420  -6.071  0.00  0.00    +0.003 C 
ATOM     17  C   UNL     1      11.080  -1.645  -4.661  0.00  0.00    +0.019 C 
ATOM     18  C   UNL     1       9.956  -1.460  -3.643  0.00  0.00    +0.108 C 
ENDBRANCH  10  11
ENDBRANCH   4   6
BRANCH   1  19
ATOM     19  S   UNL     1       5.677   0.197   1.648  0.00  0.00    +0.092 S 
ATOM     20  O   UNL     1       5.861   0.297   3.054  0.00  0.00    -0.150 OA
ATOM     21  O   UNL     1       5.929  -1.003   0.930  0.00  0.00    -0.150 OA
BRANCH  19  22
ATOM     22  N   UNL     1       4.101   0.607   1.347  0.00  0.00    -0.180 NA
ATOM     23  H   UNL     1       3.510   0.834   2.082  0.00  0.00    +0.149 HD
BRANCH  22  24
ATOM     24  C   UNL     1       3.599   0.625  -0.029  0.00  0.00    +0.180 C 
BRANCH  24  27
ATOM     25  C   UNL     1      -0.016   1.341   0.009  0.00  0.00    +0.041 A 
ATOM     26  C   UNL     1       1.331   1.769  -0.001  0.00  0.00    +0.046 A 
ATOM     27  C   UNL     1       2.092   0.660  -0.014  0.00  0.00    +0.120 A 
ATOM     28  O   UNL     1       1.282  -0.411  -0.012  0.00  0.00    -0.466 OA
ATOM     29  C   UNL     1       0.002  -0.004   0.002  0.00  0.00    +0.195 A 
ENDBRANCH  24  27
ENDBRANCH  22  24
ENDBRANCH  19  22
ENDBRANCH   1  19
TORSDOF 6
