REMARK  Name = ZINC50092972
REMARK  9 active torsions:
REMARK  status: ('A' for Active; 'I' for Inactive)
REMARK    1  A    between atoms: C_1  and  C_2
REMARK    2  A    between atoms: C_2  and  N_3
REMARK    3  A    between atoms: N_3  and  C_4
REMARK    4  A    between atoms: N_3  and  S_14
REMARK    5  A    between atoms: C_4  and  C_12
REMARK    6  A    between atoms: C_8  and  C_11
REMARK    7  A    between atoms: C_12  and  N_13
REMARK    8  A    between atoms: S_14  and  C_17
REMARK    9  A    between atoms: C_22  and  C_23
REMARK                            x       y       z     vdW  Elec       q    Type
REMARK                         _______ _______ _______ _____ _____    ______ ____
ROOT
ATOM      1  N   UNL     1       1.627   0.646   0.071  0.00  0.00    -0.172 NA
ENDROOT
BRANCH   1   2
ATOM      2  C   UNL     1       0.499   0.015   0.760  0.00  0.00    +0.028 C 
ATOM      3  C   UNL     1      -0.659   1.010   0.858  0.00  0.00    +0.022 C 
ATOM      4  C   UNL     1      -1.091   1.431  -0.548  0.00  0.00    +0.002 C 
ATOM      5  C   UNL     1      -1.543   0.198  -1.333  0.00  0.00    +0.003 C 
ATOM      6  C   UNL     1      -0.385  -0.797  -1.432  0.00  0.00    -0.012 C 
ATOM      7  C   UNL     1       0.046  -1.218  -0.025  0.00  0.00    +0.025 C 
ATOM      8  C   UNL     1      -0.838  -2.030  -2.217  0.00  0.00    +0.007 C 
BRANCH   2   9
ATOM      9  C   UNL     1       0.930  -0.406   2.166  0.00  0.00    -0.062 C 
BRANCH   9  10
ATOM     10  N   UNL     1       1.519   0.746   2.863  0.00  0.00    +0.379 N 
ATOM     11  H   UNL     1       2.180   1.204   2.255  0.00  0.00    -0.090 HD
ATOM     12  H   UNL     1       0.788   1.394   3.116  0.00  0.00    -0.090 HD
ATOM     13  H   UNL     1       1.991   0.429   3.696  0.00  0.00    -0.090 HD
ENDBRANCH   9  10
ENDBRANCH   2   9
ENDBRANCH   1   2
BRANCH   1  14
ATOM     14  S   UNL     1       1.550   2.244  -0.354  0.00  0.00    +0.064 S 
ATOM     15  O   UNL     1       1.409   2.283  -1.767  0.00  0.00    -0.153 OA
ATOM     16  O   UNL     1       0.609   2.852   0.522  0.00  0.00    -0.153 OA
BRANCH  14  17
ATOM     17  C   UNL     1       3.117   2.959   0.017  0.00  0.00    +0.145 A 
ATOM     18  C   UNL     1       4.124   3.258  -0.907  0.00  0.00    +0.163 A 
ATOM     19  N   UNL     1       5.135   3.775  -0.256  0.00  0.00    -0.180 NA
ATOM     20  N   UNL     1       4.802   3.822   1.104  0.00  0.00    -0.280 N 
ATOM     21  H   UNL     1       5.365   4.159   1.818  0.00  0.00    +0.189 HD
ATOM     22  C   UNL     1       3.557   3.321   1.244  0.00  0.00    +0.059 A 
ATOM     23  C   UNL     1       2.795   3.184   2.537  0.00  0.00    +0.067 C 
ENDBRANCH  14  17
ENDBRANCH   1  14
BRANCH   1  25
ATOM     24  C   UNL     1       2.640  -0.834  -1.592  0.00  0.00    +0.022 C 
ATOM     25  C   UNL     1       2.825  -0.138  -0.242  0.00  0.00    +0.106 C 
ENDBRANCH   1  25
TORSDOF 6
