REMARK  Name = ZINC60220483
REMARK  8 active torsions:
REMARK  status: ('A' for Active; 'I' for Inactive)
REMARK    1  A    between atoms: C_1  and  C_2
REMARK    2  A    between atoms: C_7  and  C_9
REMARK    3  A    between atoms: C_7  and  C_10
REMARK    4  A    between atoms: N_13  and  C_17
REMARK    5  A    between atoms: C_17  and  C_18
REMARK    6  A    between atoms: N_20  and  C_21
REMARK    7  A    between atoms: C_26  and  C_27
REMARK    8  A    between atoms: C_27  and  N_28
REMARK                            x       y       z     vdW  Elec       q    Type
REMARK                         _______ _______ _______ _____ _____    ______ ____
ROOT
ATOM      1  C   UNL     1      -4.829  -3.596  -3.544  0.00  0.00    +0.235 C 
ATOM      2  O   UNL     1      -4.551  -2.453  -3.837  0.00  0.00    -0.274 OA
ATOM      3  N   UNL     1      -5.871  -4.210  -4.138  0.00  0.00    -0.284 N 
ATOM      4  H   UNL     1      -6.136  -5.100  -3.855  0.00  0.00    +0.155 HD
ENDROOT
BRANCH   3   5
ATOM      5  C   UNL     1      -6.571  -3.565  -5.164  0.00  0.00    +0.035 A 
ATOM      6  C   UNL     1      -5.903  -2.713  -6.034  0.00  0.00    +0.023 A 
ATOM      7  C   UNL     1      -6.596  -2.078  -7.045  0.00  0.00    +0.002 A 
ATOM      8  C   UNL     1      -7.955  -2.289  -7.192  0.00  0.00    +0.000 A 
ATOM      9  C   UNL     1      -8.624  -3.136  -6.327  0.00  0.00    +0.003 A 
ATOM     10  C   UNL     1      -7.934  -3.780  -5.318  0.00  0.00    -0.043 A 
BRANCH  10  11
ATOM     11  C   UNL     1      -8.662  -4.709  -4.381  0.00  0.00    -0.041 C 
BRANCH  11  12
ATOM     12  N   UNL     1      -8.843  -4.050  -3.080  0.00  0.00    +0.383 N 
ATOM     13  C   UNL     1      -9.392  -5.015  -2.126  0.00  0.00    -0.068 C 
ATOM     14  C   UNL     1      -9.241  -4.477  -0.697  0.00  0.00    +0.050 C 
ATOM     15  S   UNL     1     -10.204  -2.938  -0.563  0.00  0.00    -0.164 S 
ATOM     16  C   UNL     1      -9.645  -1.991  -2.014  0.00  0.00    +0.050 C 
ATOM     17  C   UNL     1      -9.735  -2.900  -3.245  0.00  0.00    -0.068 C 
ATOM     18  H   UNL     1      -7.947  -3.728  -2.746  0.00  0.00    -0.081 HD
ENDBRANCH  11  12
ENDBRANCH  10  11
ENDBRANCH   3   5
BRANCH   1  19
ATOM     19  C   UNL     1      -4.009  -4.331  -2.515  0.00  0.00    +0.214 C 
BRANCH  19  31
ATOM     20  C   UNL     1      -0.700   1.765  -1.053  0.00  0.00    +0.007 C 
ATOM     21  C   UNL     1      -0.531   0.252  -0.901  0.00  0.00    -0.011 C 
ATOM     22  C   UNL     1      -1.900  -0.427  -1.003  0.00  0.00    +0.038 C 
ATOM     23  C   UNL     1      -1.735  -1.933  -0.831  0.00  0.00    +0.113 C 
ATOM     24  C   UNL     1      -1.097  -2.256   0.516  0.00  0.00    +0.041 C 
ATOM     25  C   UNL     1       0.268  -1.570   0.612  0.00  0.00    -0.032 C 
ATOM     26  C   UNL     1       0.090  -0.058   0.462  0.00  0.00    +0.009 C 
ATOM     27  C   UNL     1       0.898  -1.877   1.972  0.00  0.00    +0.011 C 
ATOM     28  C   UNL     1       1.180  -2.089  -0.501  0.00  0.00    +0.011 C 
ATOM     29  C   UNL     1      -3.070  -2.629  -0.963  0.00  0.00    +0.247 C 
ATOM     30  O   UNL     1      -4.049  -2.477  -0.264  0.00  0.00    -0.273 OA
ATOM     31  N   UNL     1      -2.944  -3.454  -2.023  0.00  0.00    -0.215 N 
ATOM     32  C   UNL     1      -1.724  -3.372  -2.568  0.00  0.00    +0.310 C 
ATOM     33  O   UNL     1      -1.371  -4.019  -3.535  0.00  0.00    -0.252 OA
ATOM     34  N   UNL     1      -0.932  -2.491  -1.927  0.00  0.00    -0.285 N 
ATOM     35  H   UNL     1      -0.014  -2.270  -2.145  0.00  0.00    +0.151 HD
ENDBRANCH  19  31
ENDBRANCH   1  19
TORSDOF 5
