REMARK  Name = ZINC47963273
REMARK  6 active torsions:
REMARK  status: ('A' for Active; 'I' for Inactive)
REMARK    1  A    between atoms: C_1  and  C_2
REMARK    2  A    between atoms: C_7  and  N_12
REMARK    3  A    between atoms: C_9  and  C_11
REMARK    4  A    between atoms: C_13  and  C_15
REMARK    5  A    between atoms: C_24  and  S_26
REMARK    6  A    between atoms: S_26  and  N_29
REMARK                            x       y       z     vdW  Elec       q    Type
REMARK                         _______ _______ _______ _____ _____    ______ ____
ROOT
ATOM      1  C   UNL     1      -2.274  -4.293   1.743  0.00  0.00    +0.306 C 
ATOM      2  O   UNL     1      -3.177  -3.607   1.311  0.00  0.00    -0.265 OA
ATOM      3  N   UNL     1      -2.536  -5.521   2.232  0.00  0.00    -0.263 N 
ATOM      4  C   UNL     1      -1.533  -6.436   2.785  0.00  0.00    +0.119 C 
ATOM      5  C   UNL     1      -2.318  -7.690   3.204  0.00  0.00    +0.056 C 
ATOM      6  C   UNL     1      -3.753  -7.377   2.844  0.00  0.00    -0.023 A 
ATOM      7  C   UNL     1      -3.802  -6.106   2.292  0.00  0.00    +0.040 A 
ATOM      8  C   UNL     1      -5.035  -5.592   1.883  0.00  0.00    +0.026 A 
ATOM      9  C   UNL     1      -6.183  -6.340   2.031  0.00  0.00    +0.030 A 
ATOM     10  C   UNL     1      -6.124  -7.605   2.586  0.00  0.00    +0.105 A 
ATOM     11  C   UNL     1      -4.906  -8.124   2.986  0.00  0.00    +0.034 A 
ENDROOT
BRANCH   1  13
ATOM     12  N   UNL     1      -0.612  -2.548   1.244  0.00  0.00    -0.304 N 
ATOM     13  C   UNL     1      -0.873  -3.776   1.733  0.00  0.00    +0.300 C 
ATOM     14  O   UNL     1       0.030  -4.462   2.165  0.00  0.00    -0.265 OA
ATOM     15  H   UNL     1      -1.333  -2.000   0.898  0.00  0.00    +0.149 HD
BRANCH  12  21
ATOM     16  C   UNL     1      -0.019   1.526   0.010  0.00  0.00    +0.008 C 
ATOM     17  C   UNL     1       0.002  -0.004   0.002  0.00  0.00    -0.009 C 
ATOM     18  C   UNL     1       0.718  -0.497  -1.257  0.00  0.00    +0.003 C 
ATOM     19  C   UNL     1       0.739  -2.027  -1.265  0.00  0.00    +0.002 C 
ATOM     20  C   UNL     1       1.479  -2.534  -0.026  0.00  0.00    +0.022 C 
ATOM     21  C   UNL     1       0.763  -2.041   1.233  0.00  0.00    +0.076 C 
ATOM     22  C   UNL     1       0.742  -0.511   1.242  0.00  0.00    +0.009 C 
ATOM     23  C   UNL     1       0.026  -0.018   2.500  0.00  0.00    +0.009 C 
ENDBRANCH  12  21
ENDBRANCH   1  13
BRANCH  10  24
ATOM     24  S   UNL     1      -7.594  -8.557   2.772  0.00  0.00    +0.056 S 
ATOM     25  O   UNL     1      -7.346  -9.488   3.817  0.00  0.00    -0.153 OA
ATOM     26  O   UNL     1      -8.674  -7.634   2.816  0.00  0.00    -0.153 OA
BRANCH  24  27
ATOM     27  N   UNL     1      -7.784  -9.442   1.385  0.00  0.00    -0.204 NA
ATOM     28  H   UNL     1      -7.135  -9.365   0.668  0.00  0.00    +0.144 HD
ATOM     29  H   UNL     1      -8.544 -10.038   1.290  0.00  0.00    +0.144 HD
ENDBRANCH  24  27
ENDBRANCH  10  24
TORSDOF 4
