REMARK  Name = ZINC65298430
REMARK  9 active torsions:
REMARK  status: ('A' for Active; 'I' for Inactive)
REMARK    1  A    between atoms: C_1  and  C_2
REMARK    2  A    between atoms: C_2  and  O_3
REMARK    3  A    between atoms: O_3  and  C_4
REMARK    4  A    between atoms: C_8  and  C_11
REMARK    5  A    between atoms: C_9  and  O_10
REMARK    6  A    between atoms: C_14  and  C_26
REMARK    7  A    between atoms: N_20  and  C_23
REMARK    8  A    between atoms: C_23  and  C_24
REMARK    9  A    between atoms: C_23  and  C_25
REMARK                            x       y       z     vdW  Elec       q    Type
REMARK                         _______ _______ _______ _____ _____    ______ ____
ROOT
ATOM      1  C   UNL     1       2.274  -4.308   3.755  0.00  0.00    +0.095 C 
ATOM      2  C   UNL     1       1.295  -4.426   4.927  0.00  0.00    +0.079 C 
ATOM      3  C   UNL     1       1.903  -5.285   6.002  0.00  0.00    +0.047 C 
ATOM      4  N   UNL     1       2.917  -6.040   5.804  0.00  0.00    -0.266 NA
ATOM      5  C   UNL     1       3.614  -6.159   4.528  0.00  0.00    +0.109 C 
ATOM      6  N   UNL     1       2.773  -5.656   3.434  0.00  0.00    -0.286 NA
ATOM      7  C   UNL     1       3.956  -7.630   4.267  0.00  0.00    +0.027 C 
ATOM      8  C   UNL     1       4.905  -8.127   5.360  0.00  0.00    -0.075 C 
ATOM      9  N   UNL     1       6.137  -7.329   5.344  0.00  0.00    +0.381 N 
ATOM     10  C   UNL     1       5.828  -5.929   5.659  0.00  0.00    -0.075 C 
ATOM     11  C   UNL     1       4.914  -5.349   4.578  0.00  0.00    +0.027 C 
ATOM     12  H   UNL     1       2.011  -6.289   3.244  0.00  0.00    +0.125 HD
ATOM     13  H   UNL     1       6.559  -7.382   4.429  0.00  0.00    -0.081 HD
ENDROOT
BRANCH   3  14
ATOM     14  C   UNL     1       1.302  -5.254   7.348  0.00  0.00    -0.000 A 
ATOM     15  C   UNL     1       0.191  -4.445   7.601  0.00  0.00    +0.013 A 
ATOM     16  C   UNL     1      -0.369  -4.418   8.859  0.00  0.00    +0.050 A 
ATOM     17  C   UNL     1       0.167  -5.192   9.880  0.00  0.00    +0.166 A 
ATOM     18  C   UNL     1       1.276  -6.002   9.634  0.00  0.00    +0.167 A 
ATOM     19  C   UNL     1       1.839  -6.037   8.373  0.00  0.00    +0.059 A 
ATOM     20  O   UNL     1       1.604  -6.653  10.788  0.00  0.00    -0.453 OA
ATOM     21  C   UNL     1       0.942  -5.927  11.840  0.00  0.00    +0.466 C 
ATOM     22  O   UNL     1      -0.198  -5.339  11.186  0.00  0.00    -0.453 OA
ENDBRANCH   3  14
BRANCH   1  27
ATOM     23  C   UNL     1       0.802  -1.825   1.306  0.00  0.00    +0.162 A 
ATOM     24  C   UNL     1       0.261  -2.673   0.353  0.00  0.00    +0.049 A 
ATOM     25  C   UNL     1       0.372  -4.043   0.502  0.00  0.00    +0.004 A 
ATOM     26  C   UNL     1       1.024  -4.570   1.602  0.00  0.00    +0.009 A 
ATOM     27  C   UNL     1       1.566  -3.730   2.557  0.00  0.00    +0.015 A 
ATOM     28  C   UNL     1       1.462  -2.356   2.410  0.00  0.00    +0.163 A 
BRANCH  28  29
ATOM     29  O   UNL     1       2.000  -1.528   3.345  0.00  0.00    -0.503 OA
ATOM     30  H   UNL     1       1.395  -1.301   4.064  0.00  0.00    +0.292 HD
ENDBRANCH  28  29
BRANCH  23  31
ATOM     31  O   UNL     1       0.693  -0.477   1.160  0.00  0.00    -0.489 OA
BRANCH  31  33
ATOM     32  C   UNL     1      -0.019   1.526   0.010  0.00  0.00    +0.048 C 
ATOM     33  C   UNL     1       0.002  -0.004   0.002  0.00  0.00    +0.226 C 
ENDBRANCH  31  33
ENDBRANCH  23  31
ENDBRANCH   1  27
BRANCH   9  34
ATOM     34  C   UNL     1       7.074  -7.859   6.344  0.00  0.00    -0.075 C 
ATOM     35  C   UNL     1       7.405  -9.315   6.011  0.00  0.00    -0.014 C 
ATOM     36  C   UNL     1       8.359  -7.028   6.329  0.00  0.00    -0.014 C 
ENDBRANCH   9  34
TORSDOF 6
