REMARK  Name = ZINC37443526
REMARK  8 active torsions:
REMARK  status: ('A' for Active; 'I' for Inactive)
REMARK    1  A    between atoms: C_1  and  C_2
REMARK    2  A    between atoms: C_5  and  C_8
REMARK    3  A    between atoms: C_8  and  N_9
REMARK    4  A    between atoms: C_18  and  C_19
REMARK    5  A    between atoms: C_18  and  C_20
REMARK    6  A    between atoms: N_22  and  C_23
REMARK    7  A    between atoms: C_28  and  C_33
REMARK    8  A    between atoms: C_30  and  C_32
REMARK                            x       y       z     vdW  Elec       q    Type
REMARK                         _______ _______ _______ _____ _____    ______ ____
ROOT
ATOM      1  N   UNL     1       1.483  -5.198  -0.204  0.00  0.00    -0.276 N 
ATOM      2  C   UNL     1       2.151  -5.417  -1.361  0.00  0.00    +0.264 C 
ATOM      3  O   UNL     1       1.602  -5.331  -2.444  0.00  0.00    -0.268 OA
ATOM      4  C   UNL     1       3.572  -5.763  -1.240  0.00  0.00    +0.109 A 
ATOM      5  C   UNL     1       4.544  -5.868  -2.190  0.00  0.00    +0.079 A 
ATOM      6  C   UNL     1       5.737  -6.209  -1.536  0.00  0.00    +0.153 A 
ATOM      7  C   UNL     1       5.457  -6.313  -0.174  0.00  0.00    +0.088 A 
ATOM      8  N   UNL     1       4.132  -6.050   0.003  0.00  0.00    -0.331 N 
ATOM      9  C   UNL     1       3.326  -6.053   1.227  0.00  0.00    +0.157 C 
ATOM     10  C   UNL     1       2.175  -5.053   1.071  0.00  0.00    +0.129 C 
ATOM     11  C   UNL     1       2.731  -3.631   1.174  0.00  0.00    +0.043 C 
ATOM     12  C   UNL     1       6.680  -6.651   0.454  0.00  0.00    +0.067 A 
ATOM     13  C   UNL     1       7.612  -6.740  -0.510  0.00  0.00    +0.198 A 
ATOM     14  O   UNL     1       7.050  -6.479  -1.702  0.00  0.00    -0.461 OA
ENDROOT
BRANCH  10  15
ATOM     15  C   UNL     1       1.188  -5.269   2.189  0.00  0.00    +0.238 C 
ATOM     16  O   UNL     1       1.141  -4.489   3.116  0.00  0.00    -0.273 OA
ATOM     17  N   UNL     1       0.356  -6.330   2.158  0.00  0.00    -0.310 N 
ATOM     18  H   UNL     1       0.339  -6.910   1.381  0.00  0.00    +0.149 HD
BRANCH  17  19
ATOM     19  C   UNL     1      -0.521  -6.606   3.298  0.00  0.00    +0.076 C 
ATOM     20  C   UNL     1       0.257  -7.380   4.364  0.00  0.00    +0.022 C 
ATOM     21  C   UNL     1      -0.660  -7.668   5.555  0.00  0.00    +0.002 C 
ATOM     22  C   UNL     1      -1.855  -8.503   5.089  0.00  0.00    +0.003 C 
ATOM     23  C   UNL     1      -2.632  -7.729   4.022  0.00  0.00    -0.009 C 
ATOM     24  C   UNL     1      -1.716  -7.440   2.832  0.00  0.00    +0.009 C 
ATOM     25  C   UNL     1      -1.216  -8.760   2.241  0.00  0.00    +0.009 C 
ATOM     26  C   UNL     1      -3.827  -8.563   3.556  0.00  0.00    +0.008 C 
ENDBRANCH  17  19
ENDBRANCH  10  15
BRANCH   1  27
ATOM     27  C   UNL     1       0.022  -5.098  -0.235  0.00  0.00    +0.144 C 
BRANCH  27  32
ATOM     28  C   UNL     1      -1.516   0.398  -1.143  0.00  0.00    +0.044 C 
ATOM     29  C   UNL     1      -1.115  -1.035  -0.906  0.00  0.00    -0.050 A 
ATOM     30  C   UNL     1      -0.860  -1.868  -1.980  0.00  0.00    +0.003 A 
ATOM     31  C   UNL     1      -0.492  -3.182  -1.762  0.00  0.00    +0.005 A 
ATOM     32  C   UNL     1      -0.379  -3.664  -0.472  0.00  0.00    -0.030 A 
ATOM     33  C   UNL     1      -0.633  -2.831   0.602  0.00  0.00    +0.005 A 
ATOM     34  C   UNL     1      -0.997  -1.515   0.385  0.00  0.00    +0.003 A 
ENDBRANCH  27  32
ENDBRANCH   1  27
TORSDOF 4
