REMARK  Name = ZINC44020801
REMARK  9 active torsions:
REMARK  status: ('A' for Active; 'I' for Inactive)
REMARK    1  A    between atoms: C_10  and  C_13
REMARK    2  A    between atoms: C_13  and  C_15
REMARK    3  A    between atoms: C_13  and  O_35
REMARK    4  A    between atoms: C_15  and  N_16
REMARK    5  A    between atoms: N_16  and  C_17
REMARK    6  A    between atoms: C_17  and  C_18
REMARK    7  A    between atoms: C_18  and  C_20
REMARK    8  A    between atoms: C_18  and  O_34
REMARK    9  A    between atoms: C_23  and  O_33
REMARK                            x       y       z     vdW  Elec       q    Type
REMARK                         _______ _______ _______ _____ _____    ______ ____
ROOT
ATOM      1  N   UNL     1       6.922   4.589   0.379  0.00  0.00    +0.383 N 
ATOM      2  H   UNL     1       7.773   4.148   0.694  0.00  0.00    -0.086 HD
ATOM      3  H   UNL     1       6.966   4.731  -0.619  0.00  0.00    -0.086 HD
ENDROOT
BRANCH   1   4
ATOM      4  C   UNL     1       5.776   3.728   0.701  0.00  0.00    -0.047 C 
BRANCH   4   5
ATOM      5  C   UNL     1       5.940   2.377   0.001  0.00  0.00    +0.138 C 
BRANCH   5  15
ATOM      6  C   UNL     1      -0.017   1.380   0.010  0.00  0.00    +0.042 A 
ATOM      7  C   UNL     1       1.170   2.085   0.002  0.00  0.00    +0.049 A 
ATOM      8  C   UNL     1       2.386   1.410  -0.012  0.00  0.00    +0.124 A 
ATOM      9  C   UNL     1       2.403   0.026  -0.016  0.00  0.00    -0.003 A 
ATOM     10  C   UNL     1       1.210  -0.678  -0.011  0.00  0.00    +0.045 A 
ATOM     11  C   UNL     1       0.002  -0.004   0.002  0.00  0.00    +0.124 A 
ATOM     12  F   UNL     1      -1.158  -0.696   0.008  0.00  0.00    -0.205 F 
ATOM     13  C   UNL     1       3.699  -0.744  -0.020  0.00  0.00    +0.042 C 
ATOM     14  C   UNL     1       4.842   0.173  -0.461  0.00  0.00    +0.052 C 
ATOM     15  C   UNL     1       4.747   1.480   0.336  0.00  0.00    +0.200 C 
ATOM     16  O   UNL     1       3.532   2.140  -0.024  0.00  0.00    -0.486 OA
ENDBRANCH   5  15
BRANCH   5  17
ATOM     17  O   UNL     1       6.002   2.578  -1.413  0.00  0.00    -0.390 OA
ATOM     18  H   UNL     1       5.215   2.999  -1.785  0.00  0.00    +0.210 HD
ENDBRANCH   5  17
ENDBRANCH   4   5
ENDBRANCH   1   4
BRANCH   1  19
ATOM     19  C   UNL     1       6.764   5.885   1.051  0.00  0.00    -0.047 C 
BRANCH  19  20
ATOM     20  C   UNL     1       7.958   6.782   0.716  0.00  0.00    +0.138 C 
BRANCH  20  21
ATOM     21  C   UNL     1       7.794   8.132   1.416  0.00  0.00    +0.203 C 
ATOM     22  C   UNL     1       9.050   8.984   1.196  0.00  0.00    +0.083 C 
ATOM     23  C   UNL     1       8.809  10.364   1.813  0.00  0.00    +0.152 C 
ATOM     24  C   UNL     1       8.258  10.208   3.208  0.00  0.00    +0.025 A 
ATOM     25  C   UNL     1       8.320  11.288   4.073  0.00  0.00    +0.048 A 
ATOM     26  C   UNL     1       7.821  11.181   5.358  0.00  0.00    +0.124 A 
ATOM     27  C   UNL     1       7.256   9.991   5.784  0.00  0.00    +0.042 A 
ATOM     28  C   UNL     1       7.194   8.912   4.925  0.00  0.00    +0.049 A 
ATOM     29  C   UNL     1       7.698   9.017   3.632  0.00  0.00    +0.127 A 
ATOM     30  O   UNL     1       7.627   7.929   2.820  0.00  0.00    -0.486 OA
ATOM     31  F   UNL     1       7.885  12.237   6.198  0.00  0.00    -0.205 F 
BRANCH  23  32
ATOM     32  O   UNL     1      10.043  11.083   1.868  0.00  0.00    -0.387 OA
ATOM     33  H   UNL     1       9.966  11.968   2.248  0.00  0.00    +0.210 HD
ENDBRANCH  23  32
ENDBRANCH  20  21
BRANCH  20  34
ATOM     34  O   UNL     1       9.163   6.157   1.161  0.00  0.00    -0.390 OA
ATOM     35  H   UNL     1       9.191   5.990   2.114  0.00  0.00    +0.210 HD
ENDBRANCH  20  34
ENDBRANCH  19  20
ENDBRANCH   1  19
TORSDOF 9
