REMARK  Name = ZINC23384558
REMARK  11 active torsions:
REMARK  status: ('A' for Active; 'I' for Inactive)
REMARK    1  A    between atoms: C_1  and  N_2
REMARK    2  A    between atoms: C_3  and  C_24
REMARK    3  A    between atoms: N_5  and  C_8
REMARK    4  A    between atoms: C_8  and  N_9
REMARK    5  A    between atoms: N_9  and  C_10
REMARK    6  A    between atoms: N_9  and  C_11
REMARK    7  A    between atoms: C_11  and  C_12
REMARK    8  A    between atoms: C_15  and  O_20
REMARK    9  A    between atoms: C_16  and  O_18
REMARK   10  A    between atoms: O_18  and  C_19
REMARK   11  A    between atoms: O_20  and  C_21
REMARK                            x       y       z     vdW  Elec       q    Type
REMARK                         _______ _______ _______ _____ _____    ______ ____
ROOT
ATOM      1  C   UNL     1       7.264  -0.330  -2.181  0.00  0.00    +0.153 C 
ATOM      2  N   UNL     1       7.088  -0.868  -0.829  0.00  0.00    -0.307 N 
ATOM      3  C   UNL     1       5.983  -0.695  -0.033  0.00  0.00    +0.176 A 
ATOM      4  N   UNL     1       6.175  -1.313   1.088  0.00  0.00    -0.154 NA
ATOM      5  N   UNL     1       7.442  -1.910   1.045  0.00  0.00    -0.257 N 
ATOM      6  C   UNL     1       7.986  -1.613  -0.154  0.00  0.00    +0.176 A 
ATOM      7  S   UNL     1       9.527  -2.100  -0.717  0.00  0.00    -0.011 S 
ENDROOT
BRANCH   3   8
ATOM      8  C   UNL     1       4.746   0.081  -0.406  0.00  0.00    +0.278 C 
ATOM      9  C   UNL     1       4.733   1.423   0.339  0.00  0.00    +0.281 C 
ATOM     10  O   UNL     1       3.541   2.127  -0.027  0.00  0.00    -0.484 OA
ATOM     11  C   UNL     1       2.382   1.415  -0.013  0.00  0.00    +0.162 A 
ATOM     12  C   UNL     1       1.169   2.088   0.002  0.00  0.00    +0.049 A 
ATOM     13  C   UNL     1      -0.017   1.378   0.010  0.00  0.00    +0.004 A 
ATOM     14  C   UNL     1       0.002  -0.004   0.002  0.00  0.00    +0.004 A 
ATOM     15  C   UNL     1       1.207  -0.681  -0.011  0.00  0.00    +0.049 A 
ATOM     16  C   UNL     1       2.401   0.025  -0.018  0.00  0.00    +0.163 A 
ATOM     17  O   UNL     1       3.579  -0.656  -0.023  0.00  0.00    -0.474 OA
ENDBRANCH   3   8
BRANCH   5  18
ATOM     18  C   UNL     1       8.063  -2.708   2.106  0.00  0.00    +0.072 C 
BRANCH  18  19
ATOM     19  N   UNL     1       7.712  -4.122   1.923  0.00  0.00    +0.394 N 
ATOM     20  C   UNL     1       8.306  -4.657   0.691  0.00  0.00    -0.093 C 
ATOM     21  H   UNL     1       6.618  -4.190   1.828  0.00  0.00    -0.079 HD
BRANCH  19  22
ATOM     22  C   UNL     1       8.114  -4.919   3.091  0.00  0.00    -0.041 C 
BRANCH  22  23
ATOM     23  C   UNL     1       7.526  -6.303   2.981  0.00  0.00    -0.060 A 
ATOM     24  C   UNL     1       8.235  -7.304   2.343  0.00  0.00    +0.005 A 
ATOM     25  C   UNL     1       7.700  -8.575   2.240  0.00  0.00    +0.050 A 
ATOM     26  C   UNL     1       6.452  -8.847   2.777  0.00  0.00    +0.168 A 
ATOM     27  C   UNL     1       5.739  -7.839   3.418  0.00  0.00    +0.162 A 
ATOM     28  C   UNL     1       6.283  -6.569   3.523  0.00  0.00    +0.051 A 
BRANCH  27  29
ATOM     29  O   UNL     1       4.514  -8.102   3.947  0.00  0.00    -0.491 OA
ATOM     30  C   UNL     1       3.840  -7.019   4.591  0.00  0.00    +0.277 C 
ENDBRANCH  27  29
BRANCH  26  31
ATOM     31  O   UNL     1       5.926 -10.097   2.677  0.00  0.00    -0.431 OA
BRANCH  31  32
ATOM     32  C   UNL     1       6.714 -11.082   2.005  0.00  0.00    +0.541 C 
ATOM     33  F   UNL     1       6.954 -10.669   0.690  0.00  0.00    -0.166 F 
ATOM     34  F   UNL     1       7.932 -11.239   2.675  0.00  0.00    -0.166 F 
ENDBRANCH  31  32
ENDBRANCH  26  31
ENDBRANCH  22  23
ENDBRANCH  19  22
ENDBRANCH  18  19
ENDBRANCH   5  18
TORSDOF 8
