REMARK  Name = ZINC19835884
REMARK  4 active torsions:
REMARK  status: ('A' for Active; 'I' for Inactive)
REMARK    1  A    between atoms: C_5  and  C_7
REMARK    2  A    between atoms: C_7  and  C_8
REMARK    3  A    between atoms: C_10  and  C_13
REMARK    4  A    between atoms: C_13  and  N_14
REMARK                            x       y       z     vdW  Elec       q    Type
REMARK                         _______ _______ _______ _____ _____    ______ ____
ROOT
ATOM      1  C   UNL     1       3.381  -3.934   4.541  0.00  0.00    +0.022 C 
ENDROOT
BRANCH   1   2
ATOM      2  N   UNL     1       3.729  -2.659   5.181  0.00  0.00    +0.388 N 
ATOM      3  C   UNL     1       4.479  -1.825   4.233  0.00  0.00    -0.059 C 
ATOM      4  C   UNL     1       4.742  -0.452   4.860  0.00  0.00    +0.088 C 
ATOM      5  N   UNL     1       5.411  -0.650   6.155  0.00  0.00    -0.319 N 
ATOM      6  C   UNL     1       4.812  -1.599   7.106  0.00  0.00    +0.088 C 
ATOM      7  C   UNL     1       4.545  -2.918   6.374  0.00  0.00    -0.059 C 
ATOM      8  C   UNL     1       6.577   0.039   6.470  0.00  0.00    +0.121 A 
ATOM      9  C   UNL     1       7.002   1.083   5.655  0.00  0.00    +0.045 A 
ATOM     10  C   UNL     1       8.163   1.761   5.981  0.00  0.00    +0.025 A 
ATOM     11  C   UNL     1       8.863   1.370   7.116  0.00  0.00    +0.059 A 
ATOM     12  C   UNL     1       8.383   0.324   7.880  0.00  0.00    +0.132 A 
ATOM     13  N   UNL     1       7.269  -0.301   7.547  0.00  0.00    -0.239 NA
ATOM     14 CL   UNL     1      10.326   2.186   7.569  0.00  0.00    -0.082 Cl
ATOM     15  H   UNL     1       2.884  -2.178   5.452  0.00  0.00    -0.081 HD
ENDBRANCH   1   2
BRANCH   1  18
ATOM     16  C   UNL     1       1.708  -3.265   1.395  0.00  0.00    +0.176 A 
ATOM     17  N   UNL     1       2.794  -3.447   2.155  0.00  0.00    -0.197 NA
ATOM     18  C   UNL     1       2.443  -3.679   3.389  0.00  0.00    +0.211 A 
ATOM     19  O   UNL     1       1.106  -3.650   3.458  0.00  0.00    -0.340 OA
ATOM     20  N   UNL     1       0.647  -3.372   2.143  0.00  0.00    -0.061 NA
BRANCH  16  21
ATOM     21  C   UNL     1       1.711  -2.975  -0.083  0.00  0.00    +0.117 C 
BRANCH  21  26
ATOM     22  C   UNL     1       0.641   0.593  -0.704  0.00  0.00    +0.000 A 
ATOM     23  C   UNL     1       1.857   1.250  -0.707  0.00  0.00    +0.003 A 
ATOM     24  C   UNL     1       3.027   0.542  -0.508  0.00  0.00    +0.038 A 
ATOM     25  C   UNL     1       2.981  -0.827  -0.306  0.00  0.00    +0.127 A 
ATOM     26  C   UNL     1       1.762  -1.485  -0.303  0.00  0.00    -0.005 A 
ATOM     27  C   UNL     1       0.594  -0.774  -0.502  0.00  0.00    +0.007 A 
ATOM     28  F   UNL     1       4.124  -1.520  -0.112  0.00  0.00    -0.205 F 
ENDBRANCH  21  26
ENDBRANCH  16  21
ENDBRANCH   1  18
TORSDOF 4
