REMARK  Name = ZINC39404454
REMARK  10 active torsions:
REMARK  status: ('A' for Active; 'I' for Inactive)
REMARK    1  A    between atoms: C_1  and  C_2
REMARK    2  A    between atoms: C_2  and  C_29
REMARK    3  A    between atoms: N_3  and  N_4
REMARK    4  A    between atoms: C_7  and  S_11
REMARK    5  A    between atoms: S_11  and  C_12
REMARK    6  A    between atoms: C_12  and  C_13
REMARK    7  A    between atoms: N_15  and  C_16
REMARK    8  A    between atoms: C_18  and  C_27
REMARK    9  A    between atoms: C_33  and  O_35
REMARK   10  A    between atoms: O_35  and  C_36
REMARK                            x       y       z     vdW  Elec       q    Type
REMARK                         _______ _______ _______ _____ _____    ______ ____
ROOT
ATOM      1  N   UNL     1      -1.028  -1.642   1.344  0.00  0.00    -0.205 N 
ATOM      2  C   UNL     1      -1.532  -2.007   2.574  0.00  0.00    +0.231 C 
ATOM      3  N   UNL     1      -2.137  -3.135   2.818  0.00  0.00    -0.324 N 
ATOM      4  C   UNL     1      -2.492  -3.080   4.248  0.00  0.00    +0.283 C 
ATOM      5  N   UNL     1      -1.982  -1.769   4.683  0.00  0.00    -0.148 NA
ATOM      6  N   UNL     1      -1.457  -1.237   3.698  0.00  0.00    -0.116 NA
ATOM      7  H   UNL     1      -1.117  -2.241   0.586  0.00  0.00    +0.177 HD
ATOM      8  H   UNL     1      -2.315  -3.856   2.194  0.00  0.00    +0.165 HD
ENDROOT
BRANCH   1  11
ATOM      9  C   UNL     1       0.815   1.237  -0.141  0.00  0.00    +0.068 C 
ATOM     10  C   UNL     1      -0.010  -0.015   0.009  0.00  0.00    +0.063 C 
ATOM     11  N   UNL     1      -0.388  -0.406   1.188  0.00  0.00    -0.184 NA
BRANCH  10  12
ATOM     12  C   UNL     1      -0.386  -0.797  -1.183  0.00  0.00    +0.001 A 
ATOM     13  C   UNL     1      -1.655  -1.377  -1.270  0.00  0.00    +0.010 A 
ATOM     14  C   UNL     1      -2.003  -2.107  -2.387  0.00  0.00    +0.004 A 
ATOM     15  C   UNL     1      -1.101  -2.268  -3.423  0.00  0.00    +0.045 A 
ATOM     16  C   UNL     1       0.162  -1.696  -3.346  0.00  0.00    +0.121 A 
ATOM     17  C   UNL     1       0.521  -0.956  -2.232  0.00  0.00    +0.055 A 
BRANCH  16  18
ATOM     18  O   UNL     1       1.044  -1.858  -4.367  0.00  0.00    -0.495 OA
ATOM     19  C   UNL     1       0.605  -2.628  -5.487  0.00  0.00    +0.277 C 
ENDBRANCH  16  18
ENDBRANCH  10  12
ENDBRANCH   1  11
BRANCH   4  20
ATOM     20  S   UNL     1      -1.679  -4.420   5.160  0.00  0.00    -0.102 S 
BRANCH  20  21
ATOM     21  C   UNL     1       0.090  -4.118   4.898  0.00  0.00    +0.168 C 
BRANCH  21  22
ATOM     22  C   UNL     1       0.892  -5.176   5.613  0.00  0.00    +0.224 C 
ATOM     23  O   UNL     1       0.325  -6.047   6.238  0.00  0.00    -0.275 OA
ATOM     24  N   UNL     1       2.238  -5.153   5.558  0.00  0.00    -0.301 N 
ATOM     25  H   UNL     1       2.692  -4.456   5.058  0.00  0.00    +0.150 HD
BRANCH  24  26
ATOM     26  C   UNL     1       3.017  -6.181   6.253  0.00  0.00    +0.156 C 
ATOM     27  C   UNL     1       4.083  -6.811   5.325  0.00  0.00    +0.149 C 
ATOM     28  C   UNL     1       4.229  -8.292   5.571  0.00  0.00    -0.041 C 
ATOM     29  C   UNL     1       3.239  -8.911   6.203  0.00  0.00    -0.012 C 
ATOM     30  S   UNL     1       2.007  -7.686   6.585  0.00  0.00    -0.106 S 
ATOM     31  C   UNL     1       3.159 -10.373   6.544  0.00  0.00    +0.042 C 
ATOM     32  C   UNL     1       4.222 -11.128   5.738  0.00  0.00    +0.005 C 
ATOM     33  C   UNL     1       5.553 -10.379   5.869  0.00  0.00    +0.005 C 
ATOM     34  C   UNL     1       5.469  -9.056   5.110  0.00  0.00    +0.033 C 
BRANCH  27  35
ATOM     35  C   UNL     1       3.687  -6.596   3.924  0.00  0.00    +0.073 C 
ATOM     36  N   UNL     1       3.382  -6.430   2.842  0.00  0.00    -0.196 NA
ENDBRANCH  27  35
ENDBRANCH  24  26
ENDBRANCH  21  22
ENDBRANCH  20  21
ENDBRANCH   4  20
TORSDOF 8
