REMARK  Name = ZINC20239010
REMARK  4 active torsions:
REMARK  status: ('A' for Active; 'I' for Inactive)
REMARK    1  A    between atoms: C_10  and  S_11
REMARK    2  A    between atoms: S_11  and  C_12
REMARK    3  A    between atoms: C_15  and  C_17
REMARK    4  A    between atoms: C_27  and  C_29
REMARK                            x       y       z     vdW  Elec       q    Type
REMARK                         _______ _______ _______ _____ _____    ______ ____
ROOT
ATOM      1  C   UNL     1       8.027  -4.144  -0.319  0.00  0.00    +0.063 C 
ATOM      2  C   UNL     1       7.173  -4.973  -1.042  0.00  0.00    +0.084 C 
ATOM      3  C   UNL     1       5.924  -4.460  -1.660  0.00  0.00    +0.153 C 
ATOM      4  N   UNL     1       5.803  -3.245  -2.136  0.00  0.00    -0.283 NA
ATOM      5  N   UNL     1       4.880  -5.409  -1.685  0.00  0.00    -0.152 N 
ATOM      6  C   UNL     1       5.231  -6.741  -1.630  0.00  0.00    +0.181 C 
ATOM      7  N   UNL     1       6.427  -7.243  -1.460  0.00  0.00    -0.152 NA
ATOM      8  C   UNL     1       7.467  -6.408  -1.241  0.00  0.00    +0.273 C 
ATOM      9  O   UNL     1       8.614  -6.825  -1.204  0.00  0.00    -0.268 OA
ATOM     10  S   UNL     1       3.663  -7.546  -1.822  0.00  0.00    -0.029 S 
ATOM     11  C   UNL     1       2.647  -6.075  -1.861  0.00  0.00    +0.202 C 
ATOM     12  N   UNL     1       3.534  -5.125  -1.772  0.00  0.00    -0.160 NA
ATOM     13  H   UNL     1       4.956  -2.952  -2.506  0.00  0.00    +0.188 HD
ENDROOT
BRANCH   1  17
ATOM     14  C   UNL     1       6.391  -1.040   0.225  0.00  0.00    +0.167 A 
ATOM     15  C   UNL     1       7.637  -0.733   0.734  0.00  0.00    +0.057 A 
ATOM     16  C   UNL     1       8.427  -1.869   0.596  0.00  0.00    +0.050 A 
ATOM     17  C   UNL     1       7.630  -2.843   0.003  0.00  0.00    +0.130 A 
ATOM     18  O   UNL     1       6.403  -2.312  -0.204  0.00  0.00    -0.449 OA
BRANCH  14  19
ATOM     19  S   UNL     1       5.011   0.054   0.157  0.00  0.00    -0.051 S 
BRANCH  19  29
ATOM     20  C   UNL     1       0.420   1.520   2.391  0.00  0.00    +0.001 A 
ATOM     21  C   UNL     1       1.131   1.838   1.235  0.00  0.00    +0.001 A 
ATOM     22  C   UNL     1       2.327   1.247   0.964  0.00  0.00    +0.009 A 
ATOM     23  C   UNL     1       2.855   0.304   1.859  0.00  0.00    -0.004 A 
ATOM     24  C   UNL     1       2.134  -0.019   3.035  0.00  0.00    -0.017 A 
ATOM     25  C   UNL     1       0.902   0.611   3.281  0.00  0.00    +0.008 A 
ATOM     26  C   UNL     1       2.662  -0.963   3.933  0.00  0.00    +0.008 A 
ATOM     27  C   UNL     1       3.858  -1.558   3.669  0.00  0.00    +0.002 A 
ATOM     28  C   UNL     1       4.576  -1.249   2.518  0.00  0.00    +0.016 A 
ATOM     29  C   UNL     1       4.093  -0.328   1.611  0.00  0.00    +0.023 A 
ENDBRANCH  19  29
ENDBRANCH  14  19
ENDBRANCH   1  17
BRANCH  11  30
ATOM     30  C   UNL     1       1.149  -5.963  -1.970  0.00  0.00    +0.442 C 
ATOM     31  F   UNL     1       0.780  -4.614  -1.965  0.00  0.00    -0.164 F 
ATOM     32  F   UNL     1       0.722  -6.558  -3.162  0.00  0.00    -0.164 F 
ATOM     33  F   UNL     1       0.552  -6.614  -0.885  0.00  0.00    -0.164 F 
ENDBRANCH  11  30
TORSDOF 4
