REMARK  Name = ZINC35529830
REMARK  5 active torsions:
REMARK  status: ('A' for Active; 'I' for Inactive)
REMARK    1  A    between atoms: C_3  and  N_29
REMARK    2  A    between atoms: C_6  and  C_7
REMARK    3  A    between atoms: N_11  and  C_12
REMARK    4  A    between atoms: N_19  and  N_20
REMARK    5  A    between atoms: N_20  and  C_21
REMARK                            x       y       z     vdW  Elec       q    Type
REMARK                         _______ _______ _______ _____ _____    ______ ____
ROOT
ATOM      1  C   UNL     1      -3.258  -3.743  -1.564  0.00  0.00    +0.078 A 
ATOM      2  C   UNL     1      -4.499  -4.302  -1.222  0.00  0.00    +0.076 A 
ATOM      3  S   UNL     1      -4.277  -4.608   0.526  0.00  0.00    -0.060 S 
ATOM      4  C   UNL     1      -2.607  -3.988   0.660  0.00  0.00    +0.161 A 
ATOM      5  N   UNL     1      -1.818  -3.922   1.732  0.00  0.00    -0.294 N 
ATOM      6  N   UNL     1      -2.345  -3.600  -0.640  0.00  0.00    -0.241 N 
ATOM      7  H   UNL     1      -2.153  -3.538   2.557  0.00  0.00    +0.154 HD
ENDROOT
BRANCH   5   8
ATOM      8  C   UNL     1      -0.520  -4.402   1.667  0.00  0.00    +0.033 A 
ATOM      9  C   UNL     1       0.461  -3.677   0.990  0.00  0.00    +0.026 A 
ATOM     10  C   UNL     1       1.751  -4.158   0.929  0.00  0.00    +0.040 A 
ATOM     11  C   UNL     1       2.075  -5.361   1.539  0.00  0.00    +0.124 A 
ATOM     12  C   UNL     1       1.103  -6.084   2.213  0.00  0.00    +0.040 A 
ATOM     13  C   UNL     1      -0.189  -5.608   2.284  0.00  0.00    +0.026 A 
ATOM     14  F   UNL     1       3.341  -5.828   1.476  0.00  0.00    -0.205 F 
ENDBRANCH   5   8
BRANCH   1  20
ATOM     15  C   UNL     1      -4.040  -3.027  -3.820  0.00  0.00    +0.012 A 
ATOM     16  C   UNL     1      -3.779  -2.636  -5.117  0.00  0.00    +0.033 A 
ATOM     17  C   UNL     1      -2.473  -2.540  -5.564  0.00  0.00    +0.126 A 
ATOM     18  C   UNL     1      -1.421  -2.834  -4.714  0.00  0.00    +0.033 A 
ATOM     19  C   UNL     1      -1.670  -3.225  -3.415  0.00  0.00    +0.012 A 
ATOM     20  C   UNL     1      -2.984  -3.324  -2.958  0.00  0.00    +0.001 A 
BRANCH  17  21
ATOM     21  N   UNL     1      -2.199  -2.122  -6.957  0.00  0.00    +0.056 N 
ATOM     22  O   UNL     1      -3.197  -1.937  -7.797  0.00  0.00    -0.126 OA
ATOM     23  O   UNL     1      -0.959  -1.934  -7.357  0.00  0.00    -0.126 OA
ENDBRANCH  17  21
ENDBRANCH   1  20
BRANCH   6  24
ATOM     24  N   UNL     1      -1.198  -3.093  -0.942  0.00  0.00    -0.256 N 
ATOM     25  H   UNL     1      -0.416  -3.664  -1.003  0.00  0.00    +0.172 HD
BRANCH  24  26
ATOM     26  C   UNL     1      -1.084  -1.746  -1.175  0.00  0.00    +0.020 C 
ATOM     27  C   UNL     1      -2.114  -1.042  -1.661  0.00  0.00    -0.007 C 
ATOM     28  C   UNL     1      -1.888   0.431  -1.877  0.00  0.00    +0.029 C 
ATOM     29  C   UNL     1      -1.240   0.736  -3.188  0.00  0.00    +0.004 C 
ATOM     30  C   UNL     1       0.259   0.549  -3.294  0.00  0.00    +0.000 C 
ATOM     31  C   UNL     1       0.612  -0.948  -3.358  0.00  0.00    +0.000 C 
ATOM     32  C   UNL     1       1.215  -1.350  -1.988  0.00  0.00    +0.006 C 
ATOM     33  C   UNL     1       0.203  -1.015  -0.888  0.00  0.00    +0.052 C 
ENDBRANCH  24  26
ENDBRANCH   6  24
TORSDOF 5
