REMARK  Name = ZINC59040963
REMARK  10 active torsions:
REMARK  status: ('A' for Active; 'I' for Inactive)
REMARK    1  A    between atoms: C_1  and  C_2
REMARK    2  A    between atoms: C_2  and  O_3
REMARK    3  A    between atoms: O_3  and  C_4
REMARK    4  A    between atoms: C_4  and  C_6
REMARK    5  A    between atoms: C_10  and  N_11
REMARK    6  A    between atoms: C_12  and  C_14
REMARK    7  A    between atoms: C_14  and  S_15
REMARK    8  A    between atoms: S_15  and  C_16
REMARK    9  A    between atoms: C_21  and  N_25
REMARK   10  A    between atoms: C_26  and  C_28
REMARK                            x       y       z     vdW  Elec       q    Type
REMARK                         _______ _______ _______ _____ _____    ______ ____
ROOT
ATOM      1  N   UNL     1       3.755  -2.477   1.399  0.00  0.00    -0.279 N 
ATOM      2  C   UNL     1       5.059  -2.786   1.544  0.00  0.00    +0.228 C 
ATOM      3  O   UNL     1       5.460  -3.248   2.592  0.00  0.00    -0.275 OA
ATOM      4  H   UNL     1       3.434  -2.108   0.562  0.00  0.00    +0.155 HD
ENDROOT
BRANCH   1   9
ATOM      5  C   UNL     1       1.509  -2.432   2.478  0.00  0.00    +0.091 A 
ATOM      6  C   UNL     1       0.802  -2.751   3.707  0.00  0.00    -0.021 A 
ATOM      7  C   UNL     1       1.588  -3.260   4.680  0.00  0.00    -0.004 A 
ATOM      8  S   UNL     1       3.207  -3.309   3.970  0.00  0.00    -0.077 S 
ATOM      9  C   UNL     1       2.872  -2.688   2.447  0.00  0.00    +0.086 A 
ATOM     10  C   UNL     1       1.160  -3.684   6.051  0.00  0.00    +0.043 C 
ATOM     11  C   UNL     1      -0.235  -3.103   6.322  0.00  0.00    +0.005 C 
ATOM     12  C   UNL     1      -1.135  -3.392   5.117  0.00  0.00    +0.005 C 
ATOM     13  C   UNL     1      -0.690  -2.546   3.921  0.00  0.00    +0.037 C 
BRANCH   5  14
ATOM     14  C   UNL     1       0.811  -1.870   1.320  0.00  0.00    +0.342 C 
ATOM     15  O   UNL     1       0.331  -2.610   0.482  0.00  0.00    -0.245 OA
BRANCH  14  16
ATOM     16  O   UNL     1       0.701  -0.533   1.182  0.00  0.00    -0.461 OA
BRANCH  16  18
ATOM     17  C   UNL     1      -0.016   1.475   0.045  0.00  0.00    +0.048 C 
ATOM     18  C   UNL     1       0.007  -0.054   0.028  0.00  0.00    +0.229 C 
ENDBRANCH  16  18
ENDBRANCH  14  16
ENDBRANCH   5  14
ENDBRANCH   1   9
BRANCH   2  19
ATOM     19  C   UNL     1       6.019  -2.557   0.405  0.00  0.00    +0.172 C 
BRANCH  19  20
ATOM     20  S   UNL     1       7.685  -3.068   0.907  0.00  0.00    -0.089 S 
BRANCH  20  21
ATOM     21  C   UNL     1       8.677  -2.742  -0.513  0.00  0.00    +0.136 A 
ATOM     22  N   UNL     1       8.316  -2.240  -1.672  0.00  0.00    -0.233 NA
ATOM     23  C   UNL     1       9.193  -2.043  -2.682  0.00  0.00    +0.080 A 
ATOM     24  C   UNL     1       8.936  -1.515  -3.968  0.00  0.00    +0.031 A 
ATOM     25  C   UNL     1       9.944  -1.379  -4.886  0.00  0.00    +0.025 A 
ATOM     26  C   UNL     1      11.252  -1.752  -4.587  0.00  0.00    +0.035 A 
ATOM     27  C   UNL     1      11.538  -2.273  -3.332  0.00  0.00    +0.040 A 
ATOM     28  C   UNL     1      10.530  -2.411  -2.412  0.00  0.00    +0.042 A 
ATOM     29  S   UNL     1      10.430  -3.003  -0.739  0.00  0.00    -0.061 S 
BRANCH  26  30
ATOM     30  N   UNL     1      12.268  -1.604  -5.542  0.00  0.00    -0.286 N 
ATOM     31  C   UNL     1      13.515  -1.272  -5.153  0.00  0.00    +0.214 C 
ATOM     32  O   UNL     1      13.779  -1.184  -3.972  0.00  0.00    -0.276 OA
ATOM     33  C   UNL     1      14.581  -1.009  -6.185  0.00  0.00    +0.109 C 
ATOM     34  H   UNL     1      12.073  -1.740  -6.482  0.00  0.00    +0.155 HD
ENDBRANCH  26  30
ENDBRANCH  20  21
ENDBRANCH  19  20
ENDBRANCH   2  19
TORSDOF 8
