REMARK  Name = ZINC13541087
REMARK  6 active torsions:
REMARK  status: ('A' for Active; 'I' for Inactive)
REMARK    1  A    between atoms: C_1  and  C_2
REMARK    2  A    between atoms: C_4  and  C_39
REMARK    3  A    between atoms: C_9  and  C_28
REMARK    4  A    between atoms: C_11  and  C_19
REMARK    5  A    between atoms: C_22  and  N_25
REMARK    6  A    between atoms: C_28  and  C_30
REMARK                            x       y       z     vdW  Elec       q    Type
REMARK                         _______ _______ _______ _____ _____    ______ ____
ROOT
ATOM      1  C   UNL     1      -0.597   1.404  -0.110  0.00  0.00    +0.044 C 
ATOM      2  C   UNL     1      -0.450  -0.095  -0.090  0.00  0.00    -0.050 A 
ATOM      3  C   UNL     1      -0.438  -0.807  -1.276  0.00  0.00    +0.008 A 
ATOM      4  C   UNL     1      -0.303  -2.179  -1.264  0.00  0.00    -0.029 A 
ATOM      5  C   UNL     1      -0.177  -2.861  -0.055  0.00  0.00    +0.042 A 
ATOM      6  C   UNL     1      -0.191  -2.134   1.130  0.00  0.00    +0.004 A 
ATOM      7  C   UNL     1      -0.320  -0.763   1.115  0.00  0.00    +0.011 A 
ATOM      8  C   UNL     1      -0.040  -3.143   2.239  0.00  0.00    +0.137 C 
ATOM      9  C   UNL     1      -1.259  -3.112   3.169  0.00  0.00    +0.103 C 
ATOM     10  C   UNL     1      -0.662  -3.245   4.588  0.00  0.00    +0.050 C 
ATOM     11  C   UNL     1       0.765  -2.675   4.443  0.00  0.00    +0.077 C 
ATOM     12  N   UNL     1       1.153  -2.876   3.042  0.00  0.00    -0.271 NA
ATOM     13  C   UNL     1       2.001  -1.834   2.436  0.00  0.00    +0.155 C 
ATOM     14  S   UNL     1       2.131  -0.572   3.774  0.00  0.00    -0.144 S 
ATOM     15  C   UNL     1       0.704  -1.161   4.809  0.00  0.00    +0.090 C 
ATOM     16  C   UNL     1       0.059  -4.473   1.534  0.00  0.00    +0.243 C 
ATOM     17  O   UNL     1       0.192  -5.559   2.056  0.00  0.00    -0.273 OA
ATOM     18  N   UNL     1      -0.029  -4.222   0.214  0.00  0.00    -0.283 N 
ATOM     19  C   UNL     1      -0.292  -2.945  -2.562  0.00  0.00    +0.045 C 
ATOM     20  H   UNL     1       0.005  -4.909  -0.470  0.00  0.00    +0.155 HD
ENDROOT
BRANCH  10  21
ATOM     21  C   UNL     1      -1.461  -2.434   5.576  0.00  0.00    -0.042 A 
ATOM     22  C   UNL     1      -1.538  -2.834   6.896  0.00  0.00    +0.006 A 
ATOM     23  C   UNL     1      -2.271  -2.091   7.803  0.00  0.00    +0.033 A 
ATOM     24  C   UNL     1      -2.927  -0.947   7.388  0.00  0.00    +0.126 A 
ATOM     25  C   UNL     1      -2.849  -0.546   6.067  0.00  0.00    +0.033 A 
ATOM     26  C   UNL     1      -2.113  -1.287   5.162  0.00  0.00    +0.006 A 
BRANCH  24  27
ATOM     27  N   UNL     1      -3.713  -0.152   8.358  0.00  0.00    +0.056 N 
ATOM     28  O   UNL     1      -3.781  -0.502   9.513  0.00  0.00    -0.126 OA
ATOM     29  O   UNL     1      -4.286   0.849   7.995  0.00  0.00    -0.126 OA
ENDBRANCH  24  27
ENDBRANCH  10  21
BRANCH   9  30
ATOM     30  C   UNL     1      -2.178  -4.269   2.871  0.00  0.00    +0.169 C 
ATOM     31  O   UNL     1      -2.045  -5.317   3.465  0.00  0.00    -0.292 OA
BRANCH  30  32
ATOM     32  C   UNL     1      -3.237  -4.125   1.860  0.00  0.00    +0.018 A 
ATOM     33  C   UNL     1      -3.390  -2.919   1.169  0.00  0.00    +0.011 A 
ATOM     34  C   UNL     1      -4.385  -2.792   0.223  0.00  0.00    +0.001 A 
ATOM     35  C   UNL     1      -5.231  -3.855  -0.044  0.00  0.00    +0.000 A 
ATOM     36  C   UNL     1      -5.086  -5.051   0.636  0.00  0.00    +0.001 A 
ATOM     37  C   UNL     1      -4.092  -5.196   1.581  0.00  0.00    +0.011 A 
ENDBRANCH  30  32
ENDBRANCH   9  30
TORSDOF 4
