REMARK  Name = ZINC46769998
REMARK  8 active torsions:
REMARK  status: ('A' for Active; 'I' for Inactive)
REMARK    1  A    between atoms: C_4  and  C_7
REMARK    2  A    between atoms: C_10  and  S_18
REMARK    3  A    between atoms: N_11  and  C_12
REMARK    4  A    between atoms: S_18  and  C_19
REMARK    5  A    between atoms: C_19  and  C_20
REMARK    6  A    between atoms: N_22  and  C_23
REMARK    7  A    between atoms: C_23  and  C_24
REMARK    8  A    between atoms: C_27  and  N_30
REMARK                            x       y       z     vdW  Elec       q    Type
REMARK                         _______ _______ _______ _____ _____    ______ ____
ROOT
ATOM      1  C   UNL     1       7.830  -3.335   0.030  0.00  0.00    +0.173 C 
ENDROOT
BRANCH   1   2
ATOM      2  C   UNL     1       8.676  -4.574   0.171  0.00  0.00    +0.224 C 
ATOM      3  O   UNL     1       8.159  -5.631   0.466  0.00  0.00    -0.275 OA
ATOM      4  N   UNL     1      10.007  -4.508  -0.031  0.00  0.00    -0.311 N 
ATOM      5  H   UNL     1      10.420  -3.663  -0.266  0.00  0.00    +0.149 HD
BRANCH   4   6
ATOM      6  C   UNL     1      10.829  -5.712   0.107  0.00  0.00    +0.139 C 
BRANCH   6   7
ATOM      7  C   UNL     1      12.271  -5.370  -0.168  0.00  0.00    -0.030 A 
ATOM      8  C   UNL     1      12.766  -5.452  -1.457  0.00  0.00    +0.007 A 
ATOM      9  C   UNL     1      14.086  -5.140  -1.712  0.00  0.00    +0.023 A 
ATOM     10  C   UNL     1      14.918  -4.742  -0.673  0.00  0.00    +0.030 A 
ATOM     11  C   UNL     1      14.418  -4.661   0.620  0.00  0.00    +0.023 A 
ATOM     12  C   UNL     1      13.095  -4.970   0.868  0.00  0.00    +0.007 A 
BRANCH  10  13
ATOM     13  N   UNL     1      16.254  -4.426  -0.928  0.00  0.00    -0.320 N 
ATOM     14  C   UNL     1      17.129  -3.888   0.128  0.00  0.00    +0.124 C 
ATOM     15  C   UNL     1      18.281  -4.872   0.341  0.00  0.00    +0.123 C 
ATOM     16  N   UNL     1      18.852  -5.283  -0.935  0.00  0.00    -0.313 N 
ATOM     17  C   UNL     1      18.215  -5.218  -2.105  0.00  0.00    +0.230 C 
ATOM     18  O   UNL     1      18.766  -5.664  -3.089  0.00  0.00    -0.274 OA
ATOM     19  C   UNL     1      16.847  -4.622  -2.259  0.00  0.00    +0.200 C 
ATOM     20  H   UNL     1      19.758  -5.628  -0.933  0.00  0.00    +0.149 HD
ENDBRANCH  10  13
ENDBRANCH   6   7
ENDBRANCH   4   6
ENDBRANCH   1   2
BRANCH   1  21
ATOM     21  S   UNL     1       6.095  -3.746   0.360  0.00  0.00    -0.076 S 
BRANCH  21  25
ATOM     22  C   UNL     1       3.707  -0.665   0.049  0.00  0.00    +0.169 A 
ATOM     23  N   UNL     1       4.883  -0.150  -0.226  0.00  0.00    -0.128 NA
ATOM     24  N   UNL     1       5.788  -1.060  -0.161  0.00  0.00    -0.122 NA
ATOM     25  C   UNL     1       5.247  -2.215   0.158  0.00  0.00    +0.197 A 
ATOM     26  N   UNL     1       3.904  -2.004   0.308  0.00  0.00    -0.270 N 
BRANCH  22  30
ATOM     27  C   UNL     1       0.001   1.407   0.135  0.00  0.00    +0.000 A 
ATOM     28  C   UNL     1       1.188   2.118   0.133  0.00  0.00    +0.001 A 
ATOM     29  C   UNL     1       2.395   1.451   0.105  0.00  0.00    +0.011 A 
ATOM     30  C   UNL     1       2.417   0.056   0.079  0.00  0.00    +0.020 A 
ATOM     31  C   UNL     1       1.216  -0.656   0.082  0.00  0.00    +0.011 A 
ATOM     32  C   UNL     1       0.016   0.023   0.109  0.00  0.00    +0.001 A 
ENDBRANCH  22  30
BRANCH  26  33
ATOM     33  C   UNL     1       2.930  -2.953   0.651  0.00  0.00    +0.051 A 
ATOM     34  C   UNL     1       2.236  -2.835   1.848  0.00  0.00    +0.026 A 
ATOM     35  C   UNL     1       1.277  -3.771   2.183  0.00  0.00    +0.002 A 
ATOM     36  C   UNL     1       1.009  -4.825   1.329  0.00  0.00    +0.000 A 
ATOM     37  C   UNL     1       1.700  -4.945   0.137  0.00  0.00    +0.002 A 
ATOM     38  C   UNL     1       2.655  -4.009  -0.207  0.00  0.00    +0.026 A 
ENDBRANCH  26  33
ENDBRANCH  21  25
ENDBRANCH   1  21
TORSDOF 8
