REMARK  Name = ZINC66886677
REMARK  7 active torsions:
REMARK  status: ('A' for Active; 'I' for Inactive)
REMARK    1  A    between atoms: C_1  and  C_2
REMARK    2  A    between atoms: C_8  and  N_10
REMARK    3  A    between atoms: C_11  and  C_13
REMARK    4  A    between atoms: C_13  and  N_14
REMARK    5  A    between atoms: C_17  and  N_20
REMARK    6  A    between atoms: C_21  and  C_23
REMARK    7  A    between atoms: C_23  and  C_24
REMARK                            x       y       z     vdW  Elec       q    Type
REMARK                         _______ _______ _______ _____ _____    ______ ____
ROOT
ATOM      1  N   UNL     1       4.723   0.698   3.753  0.00  0.00    +0.385 N 
ATOM      2  C   UNL     1       3.947   1.672   4.529  0.00  0.00    -0.076 C 
ATOM      3  C   UNL     1       4.425   1.668   5.983  0.00  0.00    +0.003 C 
ATOM      4  C   UNL     1       5.909   2.044   6.027  0.00  0.00    +0.069 C 
ATOM      5  C   UNL     1       6.700   1.066   5.154  0.00  0.00    +0.003 C 
ATOM      6  C   UNL     1       6.137   1.092   3.731  0.00  0.00    -0.076 C 
ATOM      7  H   UNL     1       4.635  -0.213   4.176  0.00  0.00    -0.081 HD
ENDROOT
BRANCH   4   8
ATOM      8  N   UNL     1       6.393   1.968   7.408  0.00  0.00    -0.313 N 
ATOM      9  C   UNL     1       7.457   2.701   7.791  0.00  0.00    +0.213 C 
ATOM     10  O   UNL     1       8.014   3.424   6.992  0.00  0.00    -0.276 OA
ATOM     11  H   UNL     1       5.947   1.391   8.047  0.00  0.00    +0.149 HD
BRANCH   9  12
ATOM     12  C   UNL     1       7.954   2.624   9.211  0.00  0.00    +0.099 C 
BRANCH  12  13
ATOM     13  C   UNL     1       9.163   3.546   9.380  0.00  0.00    -0.002 C 
ATOM     14  C   UNL     1      10.319   3.035   8.517  0.00  0.00    +0.004 C 
ATOM     15  C   UNL     1      11.528   3.957   8.686  0.00  0.00    +0.000 C 
ATOM     16  C   UNL     1      11.956   3.974  10.155  0.00  0.00    +0.000 C 
ATOM     17  C   UNL     1      10.800   4.486  11.017  0.00  0.00    +0.000 C 
ATOM     18  C   UNL     1       9.591   3.563  10.848  0.00  0.00    +0.004 C 
ENDBRANCH  12  13
ENDBRANCH   9  12
ENDBRANCH   4   8
BRANCH   1  19
ATOM     19  C   UNL     1       4.209   0.649   2.377  0.00  0.00    +0.019 C 
BRANCH  19  21
ATOM     20  N   UNL     1       2.116  -0.004   1.231  0.00  0.00    -0.314 N 
ATOM     21  C   UNL     1       2.795   0.128   2.388  0.00  0.00    +0.197 C 
ATOM     22  O   UNL     1       2.268  -0.174   3.438  0.00  0.00    -0.278 OA
ATOM     23  H   UNL     1       2.538   0.237   0.392  0.00  0.00    +0.149 HD
BRANCH  20  30
ATOM     24  C   UNL     1      -0.019   1.526   0.010  0.00  0.00    +0.009 C 
ATOM     25  C   UNL     1       0.002  -0.004   0.002  0.00  0.00    +0.006 C 
ATOM     26  C   UNL     1       0.718  -0.497  -1.257  0.00  0.00    +0.005 C 
ATOM     27  C   UNL     1       0.739  -2.027  -1.265  0.00  0.00    +0.000 C 
ATOM     28  C   UNL     1       1.479  -2.534  -0.026  0.00  0.00    +0.002 C 
ATOM     29  C   UNL     1       0.763  -2.041   1.233  0.00  0.00    +0.022 C 
ATOM     30  C   UNL     1       0.742  -0.511   1.242  0.00  0.00    +0.076 C 
ENDBRANCH  20  30
ENDBRANCH  19  21
ENDBRANCH   1  19
TORSDOF 6
