REMARK  Name = ZINC39631658
REMARK  12 active torsions:
REMARK  status: ('A' for Active; 'I' for Inactive)
REMARK    1  A    between atoms: C_1  and  C_2
REMARK    2  A    between atoms: C_4  and  C_9
REMARK    3  A    between atoms: C_13  and  C_22
REMARK    4  A    between atoms: N_24  and  C_25
REMARK    5  A    between atoms: C_25  and  C_27
REMARK    6  A    between atoms: C_25  and  C_28
REMARK    7  A    between atoms: C_28  and  C_29
REMARK    8  A    between atoms: C_29  and  C_30
REMARK    9  A    between atoms: C_30  and  C_31
REMARK   10  A    between atoms: C_31  and  C_32
REMARK   11  A    between atoms: C_31  and  C_33
REMARK   12  A    between atoms: C_31  and  O_34
REMARK                            x       y       z     vdW  Elec       q    Type
REMARK                         _______ _______ _______ _____ _____    ______ ____
ROOT
ATOM      1  C   UNL     1       0.027  -2.816  -2.479  0.00  0.00    +0.247 C 
ATOM      2  O   UNL     1      -0.094  -2.212  -3.527  0.00  0.00    -0.270 OA
ATOM      3  N   UNL     1       0.149  -4.159  -2.486  0.00  0.00    -0.296 N 
ATOM      4  C   UNL     1       0.177  -5.074  -1.321  0.00  0.00    +0.121 C 
ATOM      5  C   UNL     1      -0.643  -6.304  -1.771  0.00  0.00    +0.100 C 
ATOM      6  C   UNL     1      -0.568  -6.285  -3.307  0.00  0.00    -0.004 C 
ATOM      7  C   UNL     1       0.277  -5.053  -3.661  0.00  0.00    +0.115 C 
ATOM      8  C   UNL     1      -1.966  -6.148  -3.903  0.00  0.00    -0.010 C 
ATOM      9  C   UNL     1      -1.870  -6.189  -5.430  0.00  0.00    -0.082 C 
ATOM     10  N   UNL     1      -1.260  -7.457  -5.850  0.00  0.00    +0.379 N 
ATOM     11  C   UNL     1       0.118  -7.539  -5.350  0.00  0.00    -0.082 C 
ATOM     12  C   UNL     1       0.106  -7.554  -3.819  0.00  0.00    -0.010 C 
ATOM     13  H   UNL     1      -1.797  -8.226  -5.480  0.00  0.00    -0.086 HD
ATOM     14  H   UNL     1      -1.254  -7.508  -6.858  0.00  0.00    -0.086 HD
ENDROOT
BRANCH   1  18
ATOM     15  C   UNL     1      -1.216   1.204   0.200  0.00  0.00    +0.047 C 
ATOM     16  C   UNL     1      -0.555  -0.146   0.095  0.00  0.00    -0.015 A 
ATOM     17  C   UNL     1      -0.571  -0.829  -1.103  0.00  0.00    +0.019 A 
ATOM     18  C   UNL     1       0.042  -2.080  -1.199  0.00  0.00    +0.037 A 
ATOM     19  C   UNL     1       0.669  -2.632  -0.080  0.00  0.00    +0.016 A 
ATOM     20  C   UNL     1       0.679  -1.941   1.113  0.00  0.00    +0.039 A 
ATOM     21  C   UNL     1       0.073  -0.697   1.201  0.00  0.00    +0.126 A 
ATOM     22  F   UNL     1       0.091  -0.021   2.371  0.00  0.00    -0.205 F 
ENDBRANCH   1  18
BRANCH   5  23
ATOM     23  C   UNL     1      -0.031  -7.569  -1.228  0.00  0.00    +0.218 C 
ATOM     24  O   UNL     1       1.150  -7.603  -0.954  0.00  0.00    -0.275 OA
ATOM     25  N   UNL     1      -0.795  -8.665  -1.049  0.00  0.00    -0.312 N 
ATOM     26  H   UNL     1      -1.740  -8.638  -1.268  0.00  0.00    +0.149 HD
BRANCH  25  27
ATOM     27  C   UNL     1      -0.200  -9.895  -0.521  0.00  0.00    +0.070 C 
ATOM     28  C   UNL     1      -0.181  -9.838   1.007  0.00  0.00    +0.028 C 
BRANCH  27  29
ATOM     29  C   UNL     1      -1.029 -11.098  -0.976  0.00  0.00    +0.022 C 
BRANCH  29  30
ATOM     30  C   UNL     1      -0.947 -11.229  -2.498  0.00  0.00    +0.005 C 
BRANCH  30  31
ATOM     31  C   UNL     1      -1.776 -12.431  -2.953  0.00  0.00    +0.034 C 
BRANCH  31  32
ATOM     32  C   UNL     1      -1.693 -12.562  -4.475  0.00  0.00    +0.061 C 
ATOM     33  C   UNL     1      -2.620 -13.686  -4.941  0.00  0.00    +0.041 C 
ATOM     34  C   UNL     1      -2.123 -11.245  -5.124  0.00  0.00    +0.041 C 
BRANCH  32  35
ATOM     35  O   UNL     1      -0.349 -12.864  -4.855  0.00  0.00    -0.389 OA
ATOM     36  H   UNL     1      -0.222 -12.961  -5.809  0.00  0.00    +0.210 HD
ENDBRANCH  32  35
ENDBRANCH  31  32
ENDBRANCH  30  31
ENDBRANCH  29  30
ENDBRANCH  27  29
ENDBRANCH  25  27
ENDBRANCH   5  23
TORSDOF 8
