REMARK  Name = ZINC09468184
REMARK  12 active torsions:
REMARK  status: ('A' for Active; 'I' for Inactive)
REMARK    1  A    between atoms: C_1  and  C_2
REMARK    2  A    between atoms: C_2  and  C_3
REMARK    3  A    between atoms: C_3  and  C_5
REMARK    4  A    between atoms: C_3  and  N_6
REMARK    5  A    between atoms: C_16  and  S_17
REMARK    6  A    between atoms: S_17  and  C_18
REMARK    7  A    between atoms: C_18  and  C_19
REMARK    8  A    between atoms: C_20  and  C_28
REMARK    9  A    between atoms: C_21  and  C_27
REMARK   10  A    between atoms: C_28  and  O_30
REMARK   11  A    between atoms: O_30  and  C_31
REMARK   12  A    between atoms: C_31  and  C_32
REMARK                            x       y       z     vdW  Elec       q    Type
REMARK                         _______ _______ _______ _____ _____    ______ ____
ROOT
ATOM      1  S   UNL     1       5.114   3.845  -0.297  0.00  0.00    -0.082 S 
ENDROOT
BRANCH   1  12
ATOM      2  N   UNL     1       2.439   3.535  -0.409  0.00  0.00    -0.284 N 
ATOM      3  C   UNL     1       1.278   2.840  -0.396  0.00  0.00    +0.263 A 
ATOM      4  O   UNL     1       0.204   3.401  -0.517  0.00  0.00    -0.267 OA
ATOM      5  C   UNL     1       1.361   1.383  -0.230  0.00  0.00    +0.065 A 
ATOM      6  C   UNL     1       0.223   0.578  -0.204  0.00  0.00    +0.015 A 
ATOM      7  C   UNL     1       0.358  -0.774  -0.047  0.00  0.00    +0.001 A 
ATOM      8  C   UNL     1       1.614  -1.352   0.086  0.00  0.00    +0.002 A 
ATOM      9  C   UNL     1       2.746  -0.587   0.064  0.00  0.00    +0.028 A 
ATOM     10  C   UNL     1       2.641   0.798  -0.095  0.00  0.00    +0.079 A 
ATOM     11  N   UNL     1       3.732   1.590  -0.123  0.00  0.00    -0.223 NA
ATOM     12  C   UNL     1       3.634   2.888  -0.272  0.00  0.00    +0.173 A 
BRANCH   2  13
ATOM     13  C   UNL     1       2.414   4.991  -0.572  0.00  0.00    +0.089 C 
ATOM     14  C   UNL     1       1.753   5.343  -1.906  0.00  0.00    +0.031 C 
BRANCH  13  16
ATOM     15  C   UNL     1       2.345   5.372   1.896  0.00  0.00    +0.006 C 
ATOM     16  C   UNL     1       1.617   5.618   0.573  0.00  0.00    +0.021 C 
ENDBRANCH  13  16
ENDBRANCH   2  13
ENDBRANCH   1  12
BRANCH   1  17
ATOM     17  C   UNL     1       6.341   2.531  -0.083  0.00  0.00    +0.128 C 
BRANCH  17  18
ATOM     18  C   UNL     1       7.723   3.131  -0.074  0.00  0.00    +0.034 C 
ATOM     19  C   UNL     1       8.387   3.251   1.096  0.00  0.00    +0.074 C 
ATOM     20  C   UNL     1       9.774   3.859   1.060  0.00  0.00    +0.110 C 
ATOM     21  N   UNL     1      10.288   4.273  -0.257  0.00  0.00    -0.292 N 
ATOM     22  C   UNL     1       9.504   4.088  -1.337  0.00  0.00    +0.304 C 
ATOM     23  O   UNL     1       9.919   4.427  -2.429  0.00  0.00    -0.253 OA
ATOM     24  N   UNL     1       8.286   3.540  -1.249  0.00  0.00    -0.272 N 
ATOM     25  C   UNL     1      10.752   2.840   1.649  0.00  0.00    +0.033 C 
ATOM     26  H   UNL     1      11.169   4.668  -0.344  0.00  0.00    +0.151 HD
ATOM     27  H   UNL     1       7.773   3.430  -2.065  0.00  0.00    +0.156 HD
BRANCH  19  28
ATOM     28  C   UNL     1       7.807   2.823   2.313  0.00  0.00    +0.338 C 
ATOM     29  O   UNL     1       7.313   3.637   3.071  0.00  0.00    -0.245 OA
BRANCH  28  30
ATOM     30  O   UNL     1       7.803   1.513   2.635  0.00  0.00    -0.462 OA
BRANCH  30  31
ATOM     31  C   UNL     1       7.200   1.152   3.879  0.00  0.00    +0.229 C 
ATOM     32  C   UNL     1       7.289  -0.363   4.069  0.00  0.00    +0.048 C 
ENDBRANCH  30  31
ENDBRANCH  28  30
ENDBRANCH  19  28
ENDBRANCH  17  18
ENDBRANCH   1  17
TORSDOF 8
