REMARK  Name = ZINC65552739
REMARK  10 active torsions:
REMARK  status: ('A' for Active; 'I' for Inactive)
REMARK    1  A    between atoms: C_1  and  C_2
REMARK    2  A    between atoms: C_4  and  C_27
REMARK    3  A    between atoms: C_9  and  C_10
REMARK    4  A    between atoms: C_10  and  N_11
REMARK    5  A    between atoms: N_14  and  C_15
REMARK    6  A    between atoms: C_15  and  C_16
REMARK    7  A    between atoms: C_16  and  N_24
REMARK    8  A    between atoms: C_20  and  C_23
REMARK    9  A    between atoms: N_24  and  C_25
REMARK   10  A    between atoms: N_24  and  C_26
REMARK                            x       y       z     vdW  Elec       q    Type
REMARK                         _______ _______ _______ _____ _____    ______ ____
ROOT
ATOM      1  N   UNL     1      -1.523  -0.176   2.884  0.00  0.00    -0.295 N 
ATOM      2  C   UNL     1      -1.710   0.466   4.055  0.00  0.00    +0.300 C 
ATOM      3  O   UNL     1      -0.754   0.898   4.670  0.00  0.00    -0.253 OA
ATOM      4  N   UNL     1      -2.955   0.628   4.543  0.00  0.00    -0.301 N 
ATOM      5  H   UNL     1      -2.285  -0.521   2.394  0.00  0.00    +0.151 HD
ATOM      6  H   UNL     1      -3.718   0.283   4.052  0.00  0.00    +0.150 HD
ENDROOT
BRANCH   1   7
ATOM      7  C   UNL     1      -0.169  -0.352   2.353  0.00  0.00    +0.146 C 
BRANCH   7  16
ATOM      8  C   UNL     1      -0.212   1.095  -0.144  0.00  0.00    +0.044 C 
ATOM      9  C   UNL     1      -0.256  -0.412  -0.136  0.00  0.00    -0.039 A 
ATOM     10  C   UNL     1      -0.313  -1.126  -1.341  0.00  0.00    +0.024 A 
ATOM     11  C   UNL     1      -0.353  -2.479  -1.323  0.00  0.00    +0.016 A 
ATOM     12  N   UNL     1      -0.338  -3.157  -0.148  0.00  0.00    -0.326 N 
ATOM     13  H   UNL     1      -0.366  -4.127  -0.153  0.00  0.00    +0.169 HD
ATOM     14  C   UNL     1      -0.283  -2.500   1.026  0.00  0.00    +0.254 A 
ATOM     15  O   UNL     1      -0.269  -3.124   2.075  0.00  0.00    -0.268 OA
ATOM     16  C   UNL     1      -0.236  -1.095   1.044  0.00  0.00    +0.037 A 
ATOM     17  C   UNL     1      -0.414  -3.240  -2.623  0.00  0.00    +0.063 C 
ENDBRANCH   7  16
ENDBRANCH   1   7
BRANCH   4  18
ATOM     18  C   UNL     1      -3.158   1.326   5.815  0.00  0.00    +0.094 C 
BRANCH  18  19
ATOM     19  C   UNL     1      -4.657   1.499   6.069  0.00  0.00    -0.050 C 
ATOM     20  C   UNL     1      -5.304   0.125   6.258  0.00  0.00    -0.010 C 
ATOM     21  C   UNL     1      -4.663  -0.581   7.454  0.00  0.00    -0.001 C 
ATOM     22  C   UNL     1      -4.873   0.260   8.715  0.00  0.00    +0.003 C 
ATOM     23  C   UNL     1      -4.226   1.633   8.526  0.00  0.00    -0.015 C 
ATOM     24  C   UNL     1      -4.867   2.339   7.330  0.00  0.00    -0.007 C 
ATOM     25  C   UNL     1      -4.436   2.474   9.787  0.00  0.00    +0.007 C 
BRANCH  19  26
ATOM     26  N   UNL     1      -5.273   2.177   4.920  0.00  0.00    +0.381 N 
ATOM     27  C   UNL     1      -6.705   2.374   5.179  0.00  0.00    -0.096 C 
ATOM     28  C   UNL     1      -4.627   3.481   4.718  0.00  0.00    -0.096 C 
ATOM     29  H   UNL     1      -5.155   1.611   4.093  0.00  0.00    -0.082 HD
ENDBRANCH  19  26
ENDBRANCH  18  19
ENDBRANCH   4  18
TORSDOF 5
