REMARK  Name = ZINC41026305
REMARK  6 active torsions:
REMARK  status: ('A' for Active; 'I' for Inactive)
REMARK    1  A    between atoms: C_1  and  C_2
REMARK    2  A    between atoms: C_5  and  C_8
REMARK    3  A    between atoms: C_8  and  N_9
REMARK    4  A    between atoms: N_16  and  C_19
REMARK    5  A    between atoms: N_25  and  C_26
REMARK    6  A    between atoms: C_27  and  C_34
REMARK                            x       y       z     vdW  Elec       q    Type
REMARK                         _______ _______ _______ _____ _____    ______ ____
ROOT
ATOM      1  N   UNL     1       1.447  -4.746  -0.032  0.00  0.00    -0.309 N 
ATOM      2  C   UNL     1       1.717  -6.103  -0.041  0.00  0.00    +0.219 A 
ATOM      3  N   UNL     1       0.701  -6.957  -0.045  0.00  0.00    -0.199 NA
ATOM      4  C   UNL     1       0.906  -8.269  -0.054  0.00  0.00    +0.139 A 
ATOM      5  C   UNL     1       2.234  -8.741  -0.059  0.00  0.00    +0.079 A 
ATOM      6  C   UNL     1       2.831 -10.020  -0.068  0.00  0.00    +0.148 A 
ATOM      7  N   UNL     1       4.125  -9.873  -0.069  0.00  0.00    -0.172 NA
ATOM      8  N   UNL     1       4.446  -8.510  -0.060  0.00  0.00    -0.214 N 
ATOM      9  C   UNL     1       3.280  -7.798  -0.054  0.00  0.00    +0.170 A 
ATOM     10  N   UNL     1       2.978  -6.501  -0.050  0.00  0.00    -0.195 NA
ATOM     11  N   UNL     1      -0.158  -9.151  -0.058  0.00  0.00    -0.293 N 
ATOM     12  H   UNL     1       2.176  -4.106  -0.032  0.00  0.00    +0.149 HD
ATOM     13  H   UNL     1       0.005 -10.108  -0.065  0.00  0.00    +0.154 HD
ENDROOT
BRANCH  11  14
ATOM     14  C   UNL     1      -1.456  -8.671  -0.053  0.00  0.00    +0.083 A 
ATOM     15  C   UNL     1      -2.632  -9.398  -0.050  0.00  0.00    +0.068 A 
ATOM     16  C   UNL     1      -3.886  -8.644  -0.044  0.00  0.00    -0.023 A 
ATOM     17  C   UNL     1      -3.723  -7.309  -0.044  0.00  0.00    -0.004 A 
ATOM     18  S   UNL     1      -1.964  -7.072  -0.041  0.00  0.00    -0.077 S 
ATOM     19  C   UNL     1      -5.041  -6.583  -0.042  0.00  0.00    +0.043 C 
ATOM     20  C   UNL     1      -6.073  -7.648  -0.474  0.00  0.00    +0.010 C 
ATOM     21  C   UNL     1      -5.381  -8.954  -0.036  0.00  0.00    +0.037 C 
BRANCH  15  22
ATOM     22  C   UNL     1      -2.624 -10.863  -0.054  0.00  0.00    +0.244 C 
ATOM     23  O   UNL     1      -2.617 -11.474   0.999  0.00  0.00    -0.270 OA
ATOM     24  N   UNL     1      -2.623 -11.534  -1.223  0.00  0.00    -0.325 N 
ATOM     25  H   UNL     1      -2.629 -11.047  -2.062  0.00  0.00    +0.145 HD
ATOM     26  H   UNL     1      -2.618 -12.504  -1.225  0.00  0.00    +0.145 HD
ENDBRANCH  15  22
ENDBRANCH  11  14
BRANCH   8  27
ATOM     27  C   UNL     1       5.738  -7.970  -0.057  0.00  0.00    +0.068 A 
ATOM     28  C   UNL     1       5.999  -6.785  -0.734  0.00  0.00    +0.028 A 
ATOM     29  C   UNL     1       7.274  -6.255  -0.729  0.00  0.00    +0.002 A 
ATOM     30  C   UNL     1       8.291  -6.903  -0.051  0.00  0.00    +0.000 A 
ATOM     31  C   UNL     1       8.035  -8.083   0.623  0.00  0.00    +0.002 A 
ATOM     32  C   UNL     1       6.760  -8.615   0.627  0.00  0.00    +0.028 A 
ENDBRANCH   8  27
BRANCH   1  33
ATOM     33  C   UNL     1       0.059  -4.275  -0.021  0.00  0.00    +0.139 C 
BRANCH  33  38
ATOM     34  C   UNL     1      -0.018   1.503   0.010  0.00  0.00    +0.044 C 
ATOM     35  C   UNL     1       0.002  -0.004   0.002  0.00  0.00    -0.050 A 
ATOM     36  C   UNL     1       0.006  -0.689  -1.199  0.00  0.00    +0.003 A 
ATOM     37  C   UNL     1       0.025  -2.071  -1.206  0.00  0.00    +0.005 A 
ATOM     38  C   UNL     1       0.040  -2.768  -0.013  0.00  0.00    -0.030 A 
ATOM     39  C   UNL     1       0.037  -2.084   1.188  0.00  0.00    +0.005 A 
ATOM     40  C   UNL     1       0.023  -0.702   1.195  0.00  0.00    +0.003 A 
ENDBRANCH  33  38
ENDBRANCH   1  33
TORSDOF 5
