REMARK  Name = ZINC26781413
REMARK  13 active torsions:
REMARK  status: ('A' for Active; 'I' for Inactive)
REMARK    1  A    between atoms: C_1  and  C_2
REMARK    2  A    between atoms: C_2  and  C_3
REMARK    3  A    between atoms: C_2  and  C_4
REMARK    4  A    between atoms: C_2  and  C_5
REMARK    5  A    between atoms: C_10  and  O_11
REMARK    6  A    between atoms: O_11  and  C_12
REMARK    7  A    between atoms: C_12  and  C_13
REMARK    8  A    between atoms: C_13  and  C_15
REMARK    9  A    between atoms: C_13  and  O_35
REMARK   10  A    between atoms: C_15  and  N_16
REMARK   11  A    between atoms: N_19  and  C_22
REMARK   12  A    between atoms: C_22  and  C_23
REMARK   13  A    between atoms: C_22  and  C_29
REMARK                            x       y       z     vdW  Elec       q    Type
REMARK                         _______ _______ _______ _____ _____    ______ ____
ROOT
ATOM      1  N   UNL     1      -2.064  -2.001   3.096  0.00  0.00    -0.303 NA
ATOM      2  C   UNL     1      -2.264  -2.635   1.785  0.00  0.00    +0.066 C 
ATOM      3  C   UNL     1      -1.135  -2.213   0.841  0.00  0.00    -0.062 C 
ATOM      4  N   UNL     1      -1.123  -0.749   0.719  0.00  0.00    +0.389 N 
ATOM      5  C   UNL     1      -0.924  -0.115   2.030  0.00  0.00    -0.062 C 
ATOM      6  C   UNL     1      -2.053  -0.537   2.974  0.00  0.00    +0.066 C 
ATOM      7  H   UNL     1      -2.104  -0.432   0.334  0.00  0.00    -0.080 HD
ENDROOT
BRANCH   1   8
ATOM      8  C   UNL     1      -3.087  -2.442   4.054  0.00  0.00    +0.119 C 
BRANCH   8   9
ATOM      9  C   UNL     1      -4.409  -1.732   3.752  0.00  0.00    +0.166 C 
BRANCH   9  10
ATOM     10  O   UNL     1      -4.901  -2.164   2.482  0.00  0.00    -0.387 OA
ATOM     11  H   UNL     1      -4.300  -2.003   1.575  0.00  0.00    +0.210 HD
ENDBRANCH   9  10
BRANCH   9  12
ATOM     12  C   UNL     1      -5.431  -2.073   4.838  0.00  0.00    +0.261 C 
BRANCH  12  13
ATOM     13  O   UNL     1      -6.626  -1.320   4.620  0.00  0.00    -0.489 OA
BRANCH  13  19
ATOM     14  C   UNL     1      -8.831  -0.808   5.352  0.00  0.00    -0.000 A 
ATOM     15  C   UNL     1      -9.862  -1.000   6.252  0.00  0.00    +0.008 A 
ATOM     16  C   UNL     1      -9.710  -1.886   7.301  0.00  0.00    +0.001 A 
ATOM     17  C   UNL     1      -8.526  -2.584   7.454  0.00  0.00    +0.004 A 
ATOM     18  C   UNL     1      -7.494  -2.400   6.555  0.00  0.00    +0.046 A 
ATOM     19  C   UNL     1      -7.642  -1.507   5.503  0.00  0.00    +0.124 A 
BRANCH  14  21
ATOM     20  C   UNL     1     -10.390   0.789   4.272  0.00  0.00    +0.015 C 
ATOM     21  C   UNL     1      -8.997   0.158   4.208  0.00  0.00    -0.009 C 
ATOM     22  C   UNL     1      -7.935   1.255   4.308  0.00  0.00    +0.015 C 
ATOM     23  C   UNL     1      -8.837  -0.589   2.882  0.00  0.00    +0.015 C 
ENDBRANCH  14  21
ENDBRANCH  13  19
ENDBRANCH  12  13
ENDBRANCH   9  12
ENDBRANCH   8   9
ENDBRANCH   1   8
BRANCH   4  24
ATOM     24  C   UNL     1      -0.101  -0.309  -0.240  0.00  0.00    -0.007 C 
BRANCH  24  25
ATOM     25  C   UNL     1      -0.119   1.195  -0.338  0.00  0.00    -0.057 A 
ATOM     26  C   UNL     1      -1.324   1.873  -0.346  0.00  0.00    +0.002 A 
ATOM     27  C   UNL     1      -1.340   3.252  -0.431  0.00  0.00    +0.000 A 
ATOM     28  C   UNL     1      -0.152   3.954  -0.519  0.00  0.00    +0.000 A 
ATOM     29  C   UNL     1       1.053   3.276  -0.517  0.00  0.00    +0.000 A 
ATOM     30  C   UNL     1       1.069   1.896  -0.427  0.00  0.00    +0.002 A 
ENDBRANCH  24  25
BRANCH  24  31
ATOM     31  C   UNL     1      -0.391  -0.904  -1.593  0.00  0.00    -0.057 A 
ATOM     32  C   UNL     1      -1.694  -0.989  -2.046  0.00  0.00    +0.002 A 
ATOM     33  C   UNL     1      -1.960  -1.531  -3.289  0.00  0.00    +0.000 A 
ATOM     34  C   UNL     1      -0.923  -1.997  -4.076  0.00  0.00    +0.000 A 
ATOM     35  C   UNL     1       0.379  -1.917  -3.621  0.00  0.00    +0.000 A 
ATOM     36  C   UNL     1       0.646  -1.371  -2.380  0.00  0.00    +0.002 A 
ENDBRANCH  24  31
ENDBRANCH   4  24
TORSDOF 10
