REMARK  Name = ZINC07776304
REMARK  9 active torsions:
REMARK  status: ('A' for Active; 'I' for Inactive)
REMARK    1  A    between atoms: C_1  and  C_2
REMARK    2  A    between atoms: C_2  and  C_4
REMARK    3  A    between atoms: C_2  and  S_14
REMARK    4  A    between atoms: N_9  and  C_10
REMARK    5  A    between atoms: C_10  and  C_11
REMARK    6  A    between atoms: C_10  and  C_12
REMARK    7  A    between atoms: C_10  and  C_13
REMARK    8  A    between atoms: S_14  and  C_15
REMARK    9  A    between atoms: N_21  and  C_22
REMARK                            x       y       z     vdW  Elec       q    Type
REMARK                         _______ _______ _______ _____ _____    ______ ____
ROOT
ATOM      1  C   UNL     1      -0.013   1.086   0.008  0.00  0.00    +0.029 C 
ATOM      2  C   UNL     1      -0.729   1.579   1.267  0.00  0.00    +0.137 C 
ENDROOT
BRANCH   2   3
ATOM      3  C   UNL     1       0.000   1.080   2.488  0.00  0.00    +0.233 C 
ATOM      4  O   UNL     1      -0.360   0.059   3.034  0.00  0.00    -0.274 OA
ATOM      5  N   UNL     1       1.052   1.768   2.973  0.00  0.00    -0.239 N 
ATOM      6  C   UNL     1       1.704   1.322   4.065  0.00  0.00    +0.306 C 
ATOM      7  O   UNL     1       1.343   0.299   4.612  0.00  0.00    -0.252 OA
ATOM      8  N   UNL     1       2.756   2.010   4.550  0.00  0.00    -0.294 N 
ATOM      9  H   UNL     1       1.340   2.585   2.536  0.00  0.00    +0.159 HD
ATOM     10  H   UNL     1       3.044   2.827   4.113  0.00  0.00    +0.151 HD
BRANCH   8  11
ATOM     11  C   UNL     1       3.465   1.525   5.737  0.00  0.00    +0.028 C 
ATOM     12  C   UNL     1       4.032   0.132   5.458  0.00  0.00    +0.031 C 
ATOM     13  C   UNL     1       4.609   2.483   6.075  0.00  0.00    +0.031 C 
ATOM     14  C   UNL     1       2.494   1.454   6.917  0.00  0.00    +0.031 C 
ENDBRANCH   8  11
ENDBRANCH   2   3
BRANCH   2  15
ATOM     15  S   UNL     1      -2.427   0.953   1.280  0.00  0.00    -0.073 S 
BRANCH  15  16
ATOM     16  C   UNL     1      -3.072   1.788  -0.131  0.00  0.00    +0.193 A 
ATOM     17  N   UNL     1      -2.411   2.608  -0.896  0.00  0.00    -0.145 NA
ATOM     18  N   UNL     1      -3.277   3.057  -1.903  0.00  0.00    -0.226 N 
ATOM     19  H   UNL     1      -3.057   3.676  -2.616  0.00  0.00    +0.194 HD
ATOM     20  C   UNL     1      -4.473   2.467  -1.698  0.00  0.00    +0.345 A 
ATOM     21  O   UNL     1      -5.475   2.618  -2.375  0.00  0.00    -0.245 OA
ATOM     22  N   UNL     1      -4.357   1.678  -0.611  0.00  0.00    -0.268 N 
BRANCH  22  23
ATOM     23  C   UNL     1      -5.419   0.848  -0.037  0.00  0.00    +0.094 C 
ATOM     24  C   UNL     1      -6.716   0.707  -0.837  0.00  0.00    +0.027 C 
ATOM     25  C   UNL     1      -6.690   1.555   0.437  0.00  0.00    +0.027 C 
ENDBRANCH  22  23
ENDBRANCH  15  16
ENDBRANCH   2  15
TORSDOF 5
