REMARK  Name = ZINC36684883
REMARK  9 active torsions:
REMARK  status: ('A' for Active; 'I' for Inactive)
REMARK    1  A    between atoms: C_1  and  C_2
REMARK    2  A    between atoms: C_5  and  S_24
REMARK    3  A    between atoms: C_7  and  C_8
REMARK    4  A    between atoms: N_10  and  C_11
REMARK    5  A    between atoms: C_11  and  C_12
REMARK    6  A    between atoms: C_12  and  C_14
REMARK    7  A    between atoms: C_12  and  N_19
REMARK    8  A    between atoms: S_24  and  N_27
REMARK    9  A    between atoms: C_32  and  C_34
REMARK                            x       y       z     vdW  Elec       q    Type
REMARK                         _______ _______ _______ _____ _____    ______ ____
ROOT
ATOM      1  C   UNL     1       1.019   0.858   0.537  0.00  0.00    +0.044 C 
ATOM      2  C   UNL     1       0.665  -0.606   0.480  0.00  0.00    -0.038 A 
ATOM      3  C   UNL     1       0.382  -1.202  -0.732  0.00  0.00    +0.006 A 
ATOM      4  C   UNL     1       0.057  -2.546  -0.786  0.00  0.00    +0.029 A 
ATOM      5  C   UNL     1       0.013  -3.301   0.373  0.00  0.00    +0.106 A 
ATOM      6  C   UNL     1       0.294  -2.717   1.591  0.00  0.00    +0.041 A 
ATOM      7  C   UNL     1       0.628  -1.363   1.652  0.00  0.00    +0.041 A 
ENDROOT
BRANCH   7   8
ATOM      8  C   UNL     1       0.936  -0.732   2.953  0.00  0.00    +0.244 C 
ATOM      9  O   UNL     1       1.185   0.457   3.008  0.00  0.00    -0.270 OA
ATOM     10  N   UNL     1       0.940  -1.474   4.078  0.00  0.00    -0.313 N 
ATOM     11  H   UNL     1       0.741  -2.423   4.034  0.00  0.00    +0.149 HD
BRANCH  10  12
ATOM     12  C   UNL     1       1.245  -0.849   5.367  0.00  0.00    +0.094 C 
BRANCH  12  13
ATOM     13  C   UNL     1       1.315  -1.925   6.452  0.00  0.00    -0.013 C 
BRANCH  13  14
ATOM     14  N   UNL     1       1.471  -1.287   7.766  0.00  0.00    +0.386 N 
ATOM     15  C   UNL     1       0.247  -0.520   8.112  0.00  0.00    -0.078 C 
ATOM     16  C   UNL     1       0.323  -0.408   9.655  0.00  0.00    -0.020 C 
ATOM     17  C   UNL     1       0.900  -1.779  10.074  0.00  0.00    -0.020 C 
ATOM     18  C   UNL     1       1.614  -2.315   8.819  0.00  0.00    -0.078 C 
ATOM     19  H   UNL     1       2.275  -0.677   7.764  0.00  0.00    -0.081 HD
ENDBRANCH  13  14
BRANCH  13  20
ATOM     20  C   UNL     1       2.493  -2.828   6.189  0.00  0.00    -0.022 A 
ATOM     21  C   UNL     1       2.516  -4.053   5.609  0.00  0.00    +0.009 A 
ATOM     22  C   UNL     1       3.727  -4.705   5.470  0.00  0.00    +0.008 A 
ATOM     23  C   UNL     1       4.855  -4.101   5.917  0.00  0.00    +0.045 A 
ATOM     24  S   UNL     1       4.219  -2.558   6.553  0.00  0.00    -0.103 S 
ENDBRANCH  13  20
ENDBRANCH  12  13
ENDBRANCH  10  12
ENDBRANCH   7   8
BRANCH   5  25
ATOM     25  S   UNL     1      -0.404  -5.011   0.294  0.00  0.00    +0.061 S 
ATOM     26  O   UNL     1      -0.909  -5.366   1.574  0.00  0.00    -0.153 OA
ATOM     27  O   UNL     1      -1.156  -5.191  -0.898  0.00  0.00    -0.153 OA
BRANCH  25  28
ATOM     28  N   UNL     1       1.010  -5.850   0.093  0.00  0.00    -0.174 NA
ATOM     29  C   UNL     1       1.449  -6.267  -1.246  0.00  0.00    +0.110 C 
ATOM     30  C   UNL     1       1.718  -7.775  -1.229  0.00  0.00    +0.017 C 
ATOM     31  C   UNL     1       2.712  -8.099  -0.112  0.00  0.00    +0.003 C 
ATOM     32  C   UNL     1       2.113  -7.700   1.239  0.00  0.00    +0.020 C 
ATOM     33  C   UNL     1       1.851  -6.187   1.249  0.00  0.00    +0.077 C 
ATOM     34  C   UNL     1       1.128  -5.798   2.540  0.00  0.00    +0.026 C 
ENDBRANCH  25  28
ENDBRANCH   5  25
TORSDOF 7
