REMARK  Name = ZINC38578096
REMARK  7 active torsions:
REMARK  status: ('A' for Active; 'I' for Inactive)
REMARK    1  A    between atoms: C_1  and  C_2
REMARK    2  A    between atoms: C_2  and  C_4
REMARK    3  A    between atoms: C_4  and  N_5
REMARK    4  A    between atoms: C_6  and  C_23
REMARK    5  A    between atoms: C_10  and  S_12
REMARK    6  A    between atoms: S_12  and  C_13
REMARK    7  A    between atoms: C_13  and  C_14
REMARK                            x       y       z     vdW  Elec       q    Type
REMARK                         _______ _______ _______ _____ _____    ______ ____
ROOT
ATOM      1  N   UNL     1      -1.696  -1.441   1.241  0.00  0.00    -0.253 NA
ATOM      2  C   UNL     1      -3.165  -1.402   1.429  0.00  0.00    +0.172 C 
ATOM      3  N   UNL     1      -3.510  -2.770   1.899  0.00  0.00    -0.233 NA
ATOM      4  N   UNL     1      -2.380  -3.114   2.776  0.00  0.00    -0.229 NA
ATOM      5  C   UNL     1      -1.197  -2.535   2.100  0.00  0.00    +0.200 C 
ATOM      6  H   UNL     1      -3.575  -3.413   1.124  0.00  0.00    +0.143 HD
ATOM      7  H   UNL     1      -2.502  -2.716   3.696  0.00  0.00    +0.143 HD
ENDROOT
BRANCH   2   8
ATOM      8  C   UNL     1      -3.856  -1.101   0.123  0.00  0.00    -0.012 A 
ATOM      9  C   UNL     1      -3.929  -2.057  -0.878  0.00  0.00    +0.026 A 
ATOM     10  C   UNL     1      -4.571  -1.744  -2.062  0.00  0.00    +0.111 A 
ATOM     11  N   UNL     1      -5.108  -0.554  -2.244  0.00  0.00    -0.263 NA
ATOM     12  C   UNL     1      -5.057   0.379  -1.314  0.00  0.00    +0.111 A 
ATOM     13  C   UNL     1      -4.438   0.137  -0.102  0.00  0.00    +0.026 A 
ENDBRANCH   2   8
BRANCH   1  14
ATOM     14  C   UNL     1      -1.352  -1.679  -0.167  0.00  0.00    +0.118 C 
BRANCH  14  16
ATOM     15  C   UNL     1       0.733  -0.166  -0.587  0.00  0.00    +0.040 C 
ATOM     16  C   UNL     1       0.136  -1.530  -0.352  0.00  0.00    -0.066 C 
ATOM     17  C   UNL     1       0.911  -2.585  -0.309  0.00  0.00    +0.008 C 
ENDBRANCH  14  16
ENDBRANCH   1  14
BRANCH   5  18
ATOM     18  S   UNL     1      -0.037  -1.877   3.331  0.00  0.00    -0.117 S 
BRANCH  18  19
ATOM     19  C   UNL     1      -1.024  -0.678   4.268  0.00  0.00    +0.146 C 
BRANCH  19  20
ATOM     20  C   UNL     1      -0.169  -0.050   5.337  0.00  0.00    +0.118 A 
ATOM     21  N   UNL     1       0.541   1.030   5.185  0.00  0.00    -0.232 NA
ATOM     22  C   UNL     1       1.188   1.318   6.344  0.00  0.00    +0.089 A 
ATOM     23  C   UNL     1       2.061   2.337   6.733  0.00  0.00    +0.030 A 
ATOM     24  C   UNL     1       2.560   2.358   8.004  0.00  0.00    +0.002 A 
ATOM     25  C   UNL     1       2.210   1.375   8.918  0.00  0.00    +0.002 A 
ATOM     26  C   UNL     1       1.350   0.359   8.557  0.00  0.00    +0.028 A 
ATOM     27  C   UNL     1       0.832   0.322   7.269  0.00  0.00    +0.066 A 
ATOM     28  N   UNL     1      -0.032  -0.525   6.604  0.00  0.00    -0.341 N 
ATOM     29  H   UNL     1      -0.459  -1.315   6.972  0.00  0.00    +0.167 HD
ENDBRANCH  19  20
ENDBRANCH  18  19
ENDBRANCH   5  18
TORSDOF 6
