REMARK  Name = ZINC36599002
REMARK  15 active torsions:
REMARK  status: ('A' for Active; 'I' for Inactive)
REMARK    1  A    between atoms: C_1  and  C_2
REMARK    2  A    between atoms: C_2  and  C_3
REMARK    3  A    between atoms: C_3  and  C_4
REMARK    4  A    between atoms: C_4  and  N_5
REMARK    5  A    between atoms: C_6  and  C_8
REMARK    6  A    between atoms: C_8  and  C_10
REMARK    7  A    between atoms: C_8  and  N_17
REMARK    8  A    between atoms: C_13  and  O_16
REMARK    9  A    between atoms: N_17  and  C_18
REMARK   10  A    between atoms: C_18  and  C_19
REMARK   11  A    between atoms: C_22  and  C_24
REMARK   12  A    between atoms: C_25  and  C_27
REMARK   13  A    between atoms: C_27  and  C_28
REMARK   14  A    between atoms: C_27  and  C_34
REMARK   15  A    between atoms: C_27  and  O_40
REMARK                            x       y       z     vdW  Elec       q    Type
REMARK                         _______ _______ _______ _____ _____    ______ ____
ROOT
ATOM      1  N   UNL     1       2.058  -5.613  -3.603  0.00  0.00    -0.276 N 
ATOM      2  C   UNL     1       2.012  -5.847  -4.929  0.00  0.00    +0.258 C 
ATOM      3  O   UNL     1       1.950  -4.919  -5.707  0.00  0.00    -0.272 OA
ENDROOT
BRANCH   1   4
ATOM      4  C   UNL     1       1.917  -4.247  -3.095  0.00  0.00    +0.193 C 
BRANCH   4   5
ATOM      5  C   UNL     1       3.050  -3.398  -3.612  0.00  0.00    -0.018 A 
ATOM      6  C   UNL     1       4.331  -3.915  -3.664  0.00  0.00    +0.009 A 
ATOM      7  C   UNL     1       5.371  -3.139  -4.138  0.00  0.00    +0.046 A 
ATOM      8  C   UNL     1       5.129  -1.841  -4.561  0.00  0.00    +0.117 A 
ATOM      9  C   UNL     1       3.843  -1.325  -4.508  0.00  0.00    +0.046 A 
ATOM     10  C   UNL     1       2.805  -2.106  -4.039  0.00  0.00    +0.009 A 
BRANCH   8  11
ATOM     11  O   UNL     1       6.151  -1.075  -5.027  0.00  0.00    -0.507 OA
ATOM     12  H   UNL     1       6.295  -1.149  -5.981  0.00  0.00    +0.292 HD
ENDBRANCH   8  11
ENDBRANCH   4   5
BRANCH   4  14
ATOM     13  N   UNL     1       1.933  -3.106  -0.900  0.00  0.00    -0.313 N 
ATOM     14  C   UNL     1       1.950  -4.265  -1.588  0.00  0.00    +0.238 C 
ATOM     15  O   UNL     1       1.992  -5.322  -0.995  0.00  0.00    -0.273 OA
ATOM     16  H   UNL     1       1.899  -2.261  -1.374  0.00  0.00    +0.149 HD
BRANCH  13  17
ATOM     17  C   UNL     1       1.965  -3.124   0.565  0.00  0.00    +0.104 C 
BRANCH  17  18
ATOM     18  C   UNL     1       1.937  -1.688   1.093  0.00  0.00    +0.018 C 
BRANCH  18  20
ATOM     19  C   UNL     1       1.942  -0.271   3.151  0.00  0.00    +0.004 C 
ATOM     20  C   UNL     1       1.971  -1.707   2.622  0.00  0.00    -0.002 C 
ENDBRANCH  18  20
ENDBRANCH  17  18
ENDBRANCH  13  17
ENDBRANCH   4  14
ENDBRANCH   1   4
BRANCH   1  21
ATOM     21  C   UNL     1       2.250  -6.726  -2.669  0.00  0.00    +0.183 C 
BRANCH  21  22
ATOM     22  C   UNL     1       0.914  -7.164  -2.128  0.00  0.00    +0.122 A 
ATOM     23  C   UNL     1       0.270  -8.301  -2.448  0.00  0.00    +0.046 A 
ATOM     24  C   UNL     1      -0.939  -8.307  -1.715  0.00  0.00    +0.045 A 
ATOM     25  C   UNL     1      -0.961  -7.175  -0.990  0.00  0.00    +0.102 A 
ATOM     26  O   UNL     1       0.166  -6.489  -1.240  0.00  0.00    -0.463 OA
ATOM     27  C   UNL     1      -2.062  -6.750  -0.053  0.00  0.00    +0.086 C 
ENDBRANCH  21  22
ENDBRANCH   1  21
BRANCH   2  28
ATOM     28  C   UNL     1       2.037  -7.263  -5.446  0.00  0.00    +0.192 C 
BRANCH  28  29
ATOM     29  C   UNL     1       1.824  -7.257  -6.938  0.00  0.00    -0.003 A 
ATOM     30  C   UNL     1       2.582  -6.425  -7.741  0.00  0.00    +0.007 A 
ATOM     31  C   UNL     1       2.386  -6.419  -9.110  0.00  0.00    +0.000 A 
ATOM     32  C   UNL     1       1.433  -7.246  -9.675  0.00  0.00    +0.000 A 
ATOM     33  C   UNL     1       0.676  -8.078  -8.872  0.00  0.00    +0.000 A 
ATOM     34  C   UNL     1       0.875  -8.087  -7.504  0.00  0.00    +0.007 A 
ENDBRANCH  28  29
BRANCH  28  35
ATOM     35  C   UNL     1       3.372  -7.888  -5.132  0.00  0.00    -0.003 A 
ATOM     36  C   UNL     1       4.504  -7.099  -5.053  0.00  0.00    +0.007 A 
ATOM     37  C   UNL     1       5.728  -7.673  -4.764  0.00  0.00    +0.000 A 
ATOM     38  C   UNL     1       5.820  -9.036  -4.555  0.00  0.00    +0.000 A 
ATOM     39  C   UNL     1       4.688  -9.826  -4.634  0.00  0.00    +0.000 A 
ATOM     40  C   UNL     1       3.463  -9.251  -4.918  0.00  0.00    +0.007 A 
ENDBRANCH  28  35
BRANCH  28  41
ATOM     41  O   UNL     1       0.998  -8.017  -4.820  0.00  0.00    -0.371 OA
ATOM     42  H   UNL     1       0.106  -7.717  -5.041  0.00  0.00    +0.212 HD
ENDBRANCH  28  41
ENDBRANCH   2  28
TORSDOF 13
