REMARK  Name = ZINC31051850
REMARK  9 active torsions:
REMARK  status: ('A' for Active; 'I' for Inactive)
REMARK    1  A    between atoms: C_1  and  C_2
REMARK    2  A    between atoms: C_5  and  S_8
REMARK    3  A    between atoms: S_8  and  C_9
REMARK    4  A    between atoms: C_9  and  C_10
REMARK    5  A    between atoms: C_10  and  N_11
REMARK    6  A    between atoms: C_12  and  C_14
REMARK    7  A    between atoms: N_19  and  C_21
REMARK    8  A    between atoms: C_21  and  C_22
REMARK    9  A    between atoms: C_24  and  C_27
REMARK                            x       y       z     vdW  Elec       q    Type
REMARK                         _______ _______ _______ _____ _____    ______ ____
ROOT
ATOM      1  C   UNL     1      -2.900  -2.644  -2.871  0.00  0.00    +0.058 C 
ATOM      2  C   UNL     1      -3.405  -1.407  -3.620  0.00  0.00    +0.009 C 
ATOM      3  C   UNL     1      -2.355  -0.296  -3.520  0.00  0.00    -0.018 C 
ATOM      4  C   UNL     1      -2.082   0.009  -2.046  0.00  0.00    -0.078 C 
ATOM      5  N   UNL     1      -1.602  -1.204  -1.374  0.00  0.00    +0.386 N 
ATOM      6  C   UNL     1      -2.611  -2.270  -1.415  0.00  0.00    -0.065 C 
ATOM      7  H   UNL     1      -0.715  -1.561  -1.919  0.00  0.00    -0.081 HD
ENDROOT
BRANCH   1   9
ATOM      8  N   UNL     1      -4.368  -4.211  -4.099  0.00  0.00    -0.314 N 
ATOM      9  C   UNL     1      -3.952  -3.722  -2.914  0.00  0.00    +0.214 C 
ATOM     10  O   UNL     1      -4.425  -4.149  -1.882  0.00  0.00    -0.276 OA
ATOM     11  H   UNL     1      -3.939  -3.823  -5.035  0.00  0.00    +0.149 HD
BRANCH   8  12
ATOM     12  C   UNL     1      -5.391  -5.259  -4.141  0.00  0.00    +0.115 C 
BRANCH  12  13
ATOM     13  C   UNL     1      -5.679  -5.632  -5.597  0.00  0.00    +0.093 C 
BRANCH  13  14
ATOM     14  S   UNL     1      -6.945  -6.930  -5.649  0.00  0.00    -0.124 S 
BRANCH  14  19
ATOM     15  C   UNL     1      -7.688  -8.010 -11.541  0.00  0.00    +0.044 C 
ATOM     16  C   UNL     1      -7.503  -7.740 -10.070  0.00  0.00    -0.050 A 
ATOM     17  C   UNL     1      -8.244  -8.447  -9.140  0.00  0.00    +0.004 A 
ATOM     18  C   UNL     1      -8.076  -8.203  -7.792  0.00  0.00    +0.015 A 
ATOM     19  C   UNL     1      -7.162  -7.245  -7.369  0.00  0.00    +0.008 A 
ATOM     20  C   UNL     1      -6.424  -6.533  -8.306  0.00  0.00    +0.015 A 
ATOM     21  C   UNL     1      -6.592  -6.787  -9.653  0.00  0.00    +0.004 A 
ENDBRANCH  14  19
ENDBRANCH  13  14
ENDBRANCH  12  13
ENDBRANCH   8  12
ENDBRANCH   1   9
BRANCH   5  22
ATOM     22  C   UNL     1      -1.198  -0.916   0.009  0.00  0.00    +0.022 C 
BRANCH  22  23
ATOM     23  C   UNL     1       0.002  -0.004   0.002  0.00  0.00    +0.211 A 
ATOM     24  N   UNL     1      -0.016   1.306   0.009  0.00  0.00    -0.193 NA
ATOM     25  C   UNL     1       1.282   1.686  -0.001  0.00  0.00    +0.202 A 
ATOM     26  N   UNL     1       2.004   0.597  -0.014  0.00  0.00    -0.056 NA
ATOM     27  O   UNL     1       1.285  -0.380  -0.012  0.00  0.00    -0.340 OA
BRANCH  25  28
ATOM     28  C   UNL     1       1.791   3.081   0.002  0.00  0.00    +0.024 A 
ATOM     29  C   UNL     1       0.898   4.151   0.010  0.00  0.00    +0.012 A 
ATOM     30  C   UNL     1       1.376   5.445   0.016  0.00  0.00    +0.002 A 
ATOM     31  C   UNL     1       2.739   5.683   0.005  0.00  0.00    +0.020 A 
ATOM     32  C   UNL     1       3.630   4.624  -0.008  0.00  0.00    +0.042 A 
ATOM     33  C   UNL     1       3.162   3.324  -0.010  0.00  0.00    +0.031 A 
ATOM     34 CL   UNL     1       5.339   4.930  -0.023  0.00  0.00    -0.084 Cl
ENDBRANCH  25  28
ENDBRANCH  22  23
ENDBRANCH   5  22
TORSDOF 8
