REMARK  Name = ZINC64626513
REMARK  5 active torsions:
REMARK  status: ('A' for Active; 'I' for Inactive)
REMARK    1  A    between atoms: C_1  and  C_2
REMARK    2  A    between atoms: C_2  and  O_3
REMARK    3  A    between atoms: O_3  and  C_4
REMARK    4  A    between atoms: C_9  and  C_10
REMARK    5  A    between atoms: C_25  and  C_27
REMARK                            x       y       z     vdW  Elec       q    Type
REMARK                         _______ _______ _______ _____ _____    ______ ____
ROOT
ATOM      1  C   UNL     1      -4.072  -1.429  -0.053  0.00  0.00    +0.136 C 
ATOM      2  C   UNL     1      -4.428  -0.775  -1.392  0.00  0.00    +0.131 C 
ATOM      3  C   UNL     1      -5.060  -1.862  -2.253  0.00  0.00    -0.035 C 
ATOM      4  C   UNL     1      -4.348  -1.916  -3.372  0.00  0.00    -0.001 A 
ATOM      5  C   UNL     1      -4.510  -2.712  -4.599  0.00  0.00    +0.010 A 
ATOM      6  C   UNL     1      -3.573  -2.522  -5.565  0.00  0.00    +0.001 A 
ATOM      7  C   UNL     1      -2.504  -1.630  -5.435  0.00  0.00    +0.002 A 
ATOM      8  C   UNL     1      -2.280  -0.855  -4.344  0.00  0.00    +0.026 A 
ATOM      9  C   UNL     1      -3.201  -0.963  -3.262  0.00  0.00    +0.043 A 
ATOM     10  N   UNL     1      -3.237  -0.318  -2.109  0.00  0.00    -0.375 N 
ATOM     11  C   UNL     1      -6.219  -2.703  -1.775  0.00  0.00    +0.052 C 
ATOM     12  C   UNL     1      -5.827  -3.251  -0.391  0.00  0.00    +0.113 C 
ATOM     13  N   UNL     1      -5.253  -2.169   0.418  0.00  0.00    -0.288 N 
ATOM     14  C   UNL     1      -5.813  -1.849   1.601  0.00  0.00    +0.247 C 
ATOM     15  O   UNL     1      -5.403  -0.893   2.229  0.00  0.00    -0.270 OA
ATOM     16  H   UNL     1      -2.596   0.334  -1.786  0.00  0.00    +0.160 HD
ENDROOT
BRANCH  14  17
ATOM     17  C   UNL     1      -6.927  -2.663   2.137  0.00  0.00    +0.040 A 
ATOM     18  C   UNL     1      -6.896  -4.060   2.066  0.00  0.00    +0.034 A 
ATOM     19  C   UNL     1      -7.956  -4.780   2.578  0.00  0.00    +0.134 A 
ATOM     20  N   UNL     1      -8.989  -4.168   3.127  0.00  0.00    -0.147 N 
ATOM     21  O   UNL     1     -10.055  -4.947   3.639  0.00  0.00    -0.164 OA
ATOM     22  C   UNL     1      -9.057  -2.853   3.214  0.00  0.00    +0.134 A 
ATOM     23  C   UNL     1      -8.038  -2.056   2.733  0.00  0.00    +0.034 A 
ENDBRANCH  14  17
BRANCH   1  29
ATOM     24  C   UNL     1      -1.717  -2.151   0.417  0.00  0.00    +0.125 A 
ATOM     25  C   UNL     1      -0.657  -3.030   0.246  0.00  0.00    +0.046 A 
ATOM     26  C   UNL     1      -0.797  -4.126  -0.581  0.00  0.00    +0.004 A 
ATOM     27  C   UNL     1      -1.993  -4.349  -1.240  0.00  0.00    +0.001 A 
ATOM     28  C   UNL     1      -3.050  -3.474  -1.072  0.00  0.00    +0.009 A 
ATOM     29  C   UNL     1      -2.917  -2.379  -0.240  0.00  0.00    +0.017 A 
BRANCH  24  30
ATOM     30  O   UNL     1      -1.581  -1.071   1.231  0.00  0.00    -0.492 OA
BRANCH  30  32
ATOM     31  C   UNL     1      -0.355   0.360   2.744  0.00  0.00    +0.048 C 
ATOM     32  C   UNL     1      -0.318  -0.899   1.875  0.00  0.00    +0.225 C 
ENDBRANCH  30  32
ENDBRANCH  24  30
ENDBRANCH   1  29
TORSDOF 4
