REMARK  Name = ZINC40983437
REMARK  10 active torsions:
REMARK  status: ('A' for Active; 'I' for Inactive)
REMARK    1  A    between atoms: C_1  and  C_2
REMARK    2  A    between atoms: C_2  and  C_3
REMARK    3  A    between atoms: C_3  and  C_4
REMARK    4  A    between atoms: C_4  and  S_5
REMARK    5  A    between atoms: S_5  and  C_6
REMARK    6  A    between atoms: C_11  and  C_27
REMARK    7  A    between atoms: C_13  and  C_17
REMARK    8  A    between atoms: C_14  and  C_16
REMARK    9  A    between atoms: N_19  and  C_20
REMARK   10  A    between atoms: C_23  and  C_26
REMARK                            x       y       z     vdW  Elec       q    Type
REMARK                         _______ _______ _______ _____ _____    ______ ____
ROOT
ATOM      1  C   UNL     1       2.663  -4.158   2.473  0.00  0.00    +0.210 A 
ATOM      2  N   UNL     1       1.809  -4.818   1.677  0.00  0.00    -0.187 NA
ATOM      3  C   UNL     1       1.804  -6.084   1.998  0.00  0.00    +0.220 A 
ATOM      4  N   UNL     1       2.667  -6.261   3.029  0.00  0.00    -0.217 N 
ATOM      5  N   UNL     1       3.214  -5.010   3.311  0.00  0.00    -0.141 NA
ATOM      6  C   UNL     1       2.915  -7.553   3.662  0.00  0.00    +0.213 C 
ATOM      7  C   UNL     1       2.317  -8.648   2.818  0.00  0.00    +0.063 C 
ATOM      8  C   UNL     1       1.470  -8.412   1.806  0.00  0.00    +0.018 C 
ATOM      9  N   UNL     1       1.088  -7.141   1.452  0.00  0.00    -0.287 N 
ATOM     10  C   UNL     1       0.918  -9.580   1.030  0.00  0.00    +0.061 C 
ATOM     11  H   UNL     1       0.348  -6.987   0.845  0.00  0.00    +0.155 HD
ENDROOT
BRANCH   6  12
ATOM     12  C   UNL     1       4.400  -7.773   3.791  0.00  0.00    +0.134 A 
ATOM     13  C   UNL     1       5.079  -7.902   4.945  0.00  0.00    +0.047 A 
ATOM     14  C   UNL     1       6.438  -8.091   4.602  0.00  0.00    +0.041 A 
ATOM     15  C   UNL     1       6.508  -8.065   3.259  0.00  0.00    +0.195 A 
ATOM     16  O   UNL     1       5.270  -7.878   2.773  0.00  0.00    -0.465 OA
ENDBRANCH   6  12
BRANCH   7  17
ATOM     17  C   UNL     1       2.666  -9.988   3.106  0.00  0.00    +0.248 C 
ATOM     18  O   UNL     1       2.253 -10.521   4.120  0.00  0.00    -0.270 OA
ATOM     19  N   UNL     1       3.457 -10.676   2.258  0.00  0.00    -0.282 N 
ATOM     20  H   UNL     1       3.697 -10.292   1.400  0.00  0.00    +0.155 HD
BRANCH  19  21
ATOM     21  C   UNL     1       3.930 -11.942   2.616  0.00  0.00    +0.034 A 
ATOM     22  C   UNL     1       3.125 -12.806   3.346  0.00  0.00    +0.023 A 
ATOM     23  C   UNL     1       3.595 -14.056   3.697  0.00  0.00    +0.005 A 
ATOM     24  C   UNL     1       4.867 -14.448   3.322  0.00  0.00    -0.050 A 
ATOM     25  C   UNL     1       5.672 -13.590   2.595  0.00  0.00    +0.005 A 
ATOM     26  C   UNL     1       5.205 -12.341   2.236  0.00  0.00    +0.023 A 
ATOM     27  C   UNL     1       5.378 -15.812   3.708  0.00  0.00    +0.044 C 
ENDBRANCH  19  21
ENDBRANCH   7  17
BRANCH   1  28
ATOM     28  S   UNL     1       3.000  -2.430   2.403  0.00  0.00    -0.084 S 
BRANCH  28  29
ATOM     29  C   UNL     1       1.940  -1.831   1.058  0.00  0.00    +0.077 C 
BRANCH  29  30
ATOM     30  C   UNL     1       2.136  -0.323   0.888  0.00  0.00    +0.011 C 
BRANCH  30  32
ATOM     31  C   UNL     1       1.438   1.690  -0.417  0.00  0.00    +0.004 C 
ATOM     32  C   UNL     1       1.242   0.182  -0.246  0.00  0.00    -0.003 C 
ENDBRANCH  30  32
ENDBRANCH  29  30
ENDBRANCH  28  29
ENDBRANCH   1  28
TORSDOF 7
