REMARK  Name = ZINC13370364
REMARK  7 active torsions:
REMARK  status: ('A' for Active; 'I' for Inactive)
REMARK    1  A    between atoms: C_1  and  C_2
REMARK    2  A    between atoms: C_10  and  C_12
REMARK    3  A    between atoms: C_12  and  O_13
REMARK    4  A    between atoms: O_13  and  C_14
REMARK    5  A    between atoms: C_14  and  C_16
REMARK    6  A    between atoms: C_19  and  N_22
REMARK    7  A    between atoms: C_23  and  C_25
REMARK                            x       y       z     vdW  Elec       q    Type
REMARK                         _______ _______ _______ _____ _____    ______ ____
ROOT
ATOM      1  C   UNL     1       0.159  -9.392   1.811  0.00  0.00    +0.059 A 
ATOM      2  C   UNL     1       0.332  -8.890   3.105  0.00  0.00    +0.017 A 
ATOM      3  C   UNL     1       0.342  -9.751   4.179  0.00  0.00    +0.024 A 
ATOM      4  C   UNL     1       0.182 -11.118   3.979  0.00  0.00    +0.033 A 
ATOM      5  C   UNL     1       0.010 -11.621   2.693  0.00  0.00    +0.024 A 
ATOM      6  C   UNL     1      -0.008 -10.766   1.615  0.00  0.00    +0.017 A 
ENDROOT
BRANCH   4   7
ATOM      7  N   UNL     1       0.194 -11.987   5.069  0.00  0.00    -0.285 N 
ATOM      8  C   UNL     1      -0.306 -11.586   6.255  0.00  0.00    +0.223 C 
ATOM      9  O   UNL     1      -0.851 -10.507   6.351  0.00  0.00    -0.275 OA
ATOM     10  H   UNL     1       0.561 -12.879   4.975  0.00  0.00    +0.155 HD
BRANCH   8  11
ATOM     11  C   UNL     1      -0.186 -12.479   7.464  0.00  0.00    +0.048 C 
ATOM     12  C   UNL     1       1.292 -12.746   7.756  0.00  0.00    +0.019 C 
ATOM     13  C   UNL     1       1.413 -13.652   8.983  0.00  0.00    -0.009 C 
ATOM     14  C   UNL     1       0.771 -12.966  10.190  0.00  0.00    +0.007 C 
ATOM     15  C   UNL     1      -0.707 -12.699   9.897  0.00  0.00    -0.009 C 
ATOM     16  C   UNL     1      -0.829 -11.792   8.671  0.00  0.00    +0.019 C 
ATOM     17  C   UNL     1      -1.421 -14.024   9.625  0.00  0.00    +0.007 C 
ATOM     18  C   UNL     1      -0.778 -14.711   8.418  0.00  0.00    -0.009 C 
ATOM     19  C   UNL     1      -0.900 -13.804   7.191  0.00  0.00    +0.019 C 
ATOM     20  C   UNL     1       0.700 -14.978   8.710  0.00  0.00    +0.007 C 
ENDBRANCH   8  11
ENDBRANCH   4   7
BRANCH   1  21
ATOM     21  C   UNL     1       0.146  -8.473   0.658  0.00  0.00    +0.340 C 
ATOM     22  O   UNL     1      -0.009  -8.910  -0.465  0.00  0.00    -0.245 OA
BRANCH  21  23
ATOM     23  O   UNL     1       0.307  -7.149   0.849  0.00  0.00    -0.455 OA
BRANCH  23  24
ATOM     24  C   UNL     1       0.284  -6.318  -0.313  0.00  0.00    +0.285 C 
BRANCH  24  34
ATOM     25  C   UNL     1       1.151   1.459  -0.020  0.00  0.00    +0.053 C 
ATOM     26  C   UNL     1       0.988  -0.039  -0.023  0.00  0.00    +0.007 A 
ATOM     27  S   UNL     1       0.736  -1.143  -1.404  0.00  0.00    -0.056 S 
ATOM     28  C   UNL     1       0.662  -2.661  -0.478  0.00  0.00    +0.158 A 
ATOM     29  N   UNL     1       0.832  -2.238   0.813  0.00  0.00    -0.263 N 
ATOM     30  C   UNL     1       1.001  -0.887   1.005  0.00  0.00    +0.107 A 
ATOM     31  C   UNL     1       0.821  -3.205   1.778  0.00  0.00    +0.259 A 
ATOM     32  O   UNL     1       0.966  -2.901   2.951  0.00  0.00    -0.267 OA
ATOM     33  C   UNL     1       0.642  -4.542   1.421  0.00  0.00    +0.095 A 
ATOM     34  C   UNL     1       0.478  -4.880   0.094  0.00  0.00    +0.061 A 
ATOM     35  N   UNL     1       0.495  -3.914  -0.821  0.00  0.00    -0.336 N 
ATOM     36  H   UNL     1       0.380  -4.141  -1.757  0.00  0.00    +0.168 HD
ENDBRANCH  24  34
ENDBRANCH  23  24
ENDBRANCH  21  23
ENDBRANCH   1  21
TORSDOF 6
