REMARK  Name = ZINC64118067
REMARK  10 active torsions:
REMARK  status: ('A' for Active; 'I' for Inactive)
REMARK    1  A    between atoms: C_5  and  C_7
REMARK    2  A    between atoms: C_7  and  N_8
REMARK    3  A    between atoms: C_9  and  C_11
REMARK    4  A    between atoms: C_11  and  O_12
REMARK    5  A    between atoms: O_12  and  C_13
REMARK    6  A    between atoms: C_13  and  C_15
REMARK    7  A    between atoms: C_15  and  C_17
REMARK    8  A    between atoms: C_15  and  N_27
REMARK    9  A    between atoms: C_17  and  C_18
REMARK   10  A    between atoms: C_28  and  C_30
REMARK                            x       y       z     vdW  Elec       q    Type
REMARK                         _______ _______ _______ _____ _____    ______ ____
ROOT
ATOM      1  C   UNL     1       2.098  -8.059   4.194  0.00  0.00    +0.186 C 
ENDROOT
BRANCH   1   2
ATOM      2  N   UNL     1       2.361  -8.479   5.572  0.00  0.00    -0.298 N 
ATOM      3  C   UNL     1       2.926  -9.678   5.815  0.00  0.00    +0.245 C 
ATOM      4  O   UNL     1       3.217 -10.412   4.891  0.00  0.00    -0.270 OA
ATOM      5  H   UNL     1       2.129  -7.894   6.310  0.00  0.00    +0.150 HD
BRANCH   3   6
ATOM      6  C   UNL     1       3.191 -10.102   7.206  0.00  0.00    +0.037 A 
ATOM      7  C   UNL     1       2.853  -9.264   8.270  0.00  0.00    +0.016 A 
ATOM      8  C   UNL     1       3.102  -9.664   9.565  0.00  0.00    +0.039 A 
ATOM      9  C   UNL     1       3.688 -10.896   9.812  0.00  0.00    +0.123 A 
ATOM     10  C   UNL     1       4.027 -11.732   8.759  0.00  0.00    +0.039 A 
ATOM     11  C   UNL     1       3.776 -11.344   7.460  0.00  0.00    +0.016 A 
ATOM     12  F   UNL     1       3.932 -11.283  11.084  0.00  0.00    -0.205 F 
ENDBRANCH   3   6
ENDBRANCH   1   2
BRANCH   1  13
ATOM     13  C   UNL     1       2.064  -6.554   4.125  0.00  0.00    +0.328 C 
ATOM     14  O   UNL     1       2.241  -5.899   5.125  0.00  0.00    -0.249 OA
BRANCH  13  15
ATOM     15  O   UNL     1       1.837  -5.941   2.953  0.00  0.00    -0.454 OA
BRANCH  15  16
ATOM     16  C   UNL     1       1.817  -4.512   2.961  0.00  0.00    +0.327 C 
BRANCH  16  18
ATOM     17  N   UNL     1       1.488  -2.679   1.333  0.00  0.00    -0.308 N 
ATOM     18  C   UNL     1       1.550  -4.005   1.567  0.00  0.00    +0.251 C 
ATOM     19  O   UNL     1       1.392  -4.790   0.656  0.00  0.00    -0.272 OA
ATOM     20  H   UNL     1       1.614  -2.051   2.062  0.00  0.00    +0.149 HD
BRANCH  17  21
ATOM     21  C   UNL     1       1.228  -2.186  -0.022  0.00  0.00    +0.142 C 
BRANCH  21  26
ATOM     22  C   UNL     1      -0.017   1.378   0.010  0.00  0.00    +0.000 A 
ATOM     23  C   UNL     1       1.171   2.087   0.002  0.00  0.00    +0.003 A 
ATOM     24  C   UNL     1       2.377   1.414  -0.013  0.00  0.00    +0.038 A 
ATOM     25  C   UNL     1       2.397   0.029  -0.021  0.00  0.00    +0.128 A 
ATOM     26  C   UNL     1       1.208  -0.679  -0.013  0.00  0.00    +0.005 A 
ATOM     27  C   UNL     1       0.002  -0.004   0.002  0.00  0.00    +0.008 A 
ATOM     28  F   UNL     1       3.577  -0.630  -0.036  0.00  0.00    -0.205 F 
ENDBRANCH  21  26
ENDBRANCH  17  21
ENDBRANCH  16  18
ENDBRANCH  15  16
ENDBRANCH  13  15
ENDBRANCH   1  13
BRANCH   1  29
ATOM     29  C   UNL     1       0.751  -8.621   3.737  0.00  0.00    +0.067 C 
BRANCH  29  30
ATOM     30  C   UNL     1       0.825 -10.126   3.689  0.00  0.00    -0.039 C 
ATOM     31  C   UNL     1       0.444 -10.990   4.657  0.00  0.00    -0.001 A 
ATOM     32  C   UNL     1      -0.131 -10.796   5.993  0.00  0.00    +0.010 A 
ATOM     33  C   UNL     1      -0.414 -11.882   6.749  0.00  0.00    +0.001 A 
ATOM     34  C   UNL     1      -0.172 -13.184   6.290  0.00  0.00    +0.002 A 
ATOM     35  C   UNL     1       0.354 -13.442   5.074  0.00  0.00    +0.026 A 
ATOM     36  C   UNL     1       0.689 -12.375   4.194  0.00  0.00    +0.043 A 
ATOM     37  N   UNL     1       1.201 -12.367   2.988  0.00  0.00    -0.380 N 
ATOM     38  C   UNL     1       1.334 -10.974   2.545  0.00  0.00    +0.144 C 
ATOM     39  H   UNL     1       1.448 -13.151   2.472  0.00  0.00    +0.160 HD
ENDBRANCH  29  30
ENDBRANCH   1  29
TORSDOF 10
