REMARK  Name = ZINC28823567
REMARK  8 active torsions:
REMARK  status: ('A' for Active; 'I' for Inactive)
REMARK    1  A    between atoms: C_1  and  C_2
REMARK    2  A    between atoms: C_6  and  C_8
REMARK    3  A    between atoms: C_18  and  C_24
REMARK    4  A    between atoms: C_20  and  C_22
REMARK    5  A    between atoms: C_20  and  C_23
REMARK    6  A    between atoms: C_29  and  O_33
REMARK    7  A    between atoms: C_30  and  O_31
REMARK    8  A    between atoms: O_31  and  C_32
REMARK                            x       y       z     vdW  Elec       q    Type
REMARK                         _______ _______ _______ _____ _____    ______ ____
ROOT
ATOM      1  C   UNL     1       1.454  -2.896   4.191  0.00  0.00    +0.074 C 
ATOM      2  C   UNL     1       0.570  -2.234   3.398  0.00  0.00    +0.135 C 
ATOM      3  C   UNL     1       0.190  -0.911   3.629  0.00  0.00    +0.009 C 
ATOM      4  C   UNL     1      -0.005  -0.103   2.514  0.00  0.00    -0.004 C 
ATOM      5  C   UNL     1      -0.204   1.338   2.717  0.00  0.00    +0.003 C 
ATOM      6  C   UNL     1       0.199   1.924   3.853  0.00  0.00    -0.041 C 
ATOM      7  C   UNL     1       0.838   1.042   4.901  0.00  0.00    -0.035 C 
ATOM      8  C   UNL     1      -0.012  -0.236   4.945  0.00  0.00    +0.038 C 
ATOM      9  C   UNL     1       0.170  -1.000   6.197  0.00  0.00    -0.072 C 
ATOM     10  C   UNL     1       0.906  -0.559   7.184  0.00  0.00    -0.040 C 
ATOM     11  C   UNL     1       1.556   0.792   7.187  0.00  0.00    -0.054 C 
ATOM     12  N   UNL     1       0.901   1.673   6.207  0.00  0.00    +0.389 N 
ATOM     13  C   UNL     1       3.041   0.654   6.870  0.00  0.00    -0.006 C 
ATOM     14  C   UNL     1       1.401   1.409   8.582  0.00  0.00    -0.006 C 
ATOM     15  C   UNL     1      -0.589  -2.290   6.428  0.00  0.00    +0.039 C 
ATOM     16  C   UNL     1       0.023  -0.738   1.189  0.00  0.00    +0.070 A 
ATOM     17  C   UNL     1       0.067  -2.144   1.122  0.00  0.00    +0.140 A 
ATOM     18  C   UNL     1       0.058  -2.787  -0.102  0.00  0.00    +0.051 A 
ATOM     19  C   UNL     1       0.022  -2.050  -1.272  0.00  0.00    +0.053 A 
ATOM     20  C   UNL     1      -0.002  -0.666  -1.223  0.00  0.00    +0.159 A 
ATOM     21  C   UNL     1       0.002  -0.004   0.002  0.00  0.00    +0.172 A 
ATOM     22  O   UNL     1       0.122  -2.864   2.275  0.00  0.00    -0.455 OA
ATOM     23  H   UNL     1       1.475   2.608   6.136  0.00  0.00    -0.084 HD
ATOM     24  H   UNL     1      -0.118   1.894   6.558  0.00  0.00    -0.084 HD
ENDROOT
BRANCH   1  30
ATOM     25  C   UNL     1       0.914  -6.793   1.341  0.00  0.00    +0.065 C 
ATOM     26  C   UNL     1       1.558  -6.145   2.539  0.00  0.00    +0.039 A 
ATOM     27  C   UNL     1       2.450  -6.869   3.307  0.00  0.00    +0.023 A 
ATOM     28  C   UNL     1       3.045  -6.272   4.413  0.00  0.00    +0.004 A 
ATOM     29  C   UNL     1       2.725  -4.961   4.708  0.00  0.00    +0.028 A 
ATOM     30  C   UNL     1       1.809  -4.285   3.891  0.00  0.00    +0.068 A 
ATOM     31  N   UNL     1       1.262  -4.897   2.840  0.00  0.00    -0.252 NA
ENDBRANCH   1  30
BRANCH  21  32
ATOM     32  O   UNL     1      -0.016   1.355   0.009  0.00  0.00    -0.491 OA
ATOM     33  C   UNL     1       1.248   2.021   0.001  0.00  0.00    +0.277 C 
ENDBRANCH  21  32
BRANCH  20  34
ATOM     34  O   UNL     1      -0.028   0.054  -2.377  0.00  0.00    -0.503 OA
ATOM     35  H   UNL     1      -0.046   1.154  -2.340  0.00  0.00    +0.292 HD
ENDBRANCH  20  34
TORSDOF 3
