REMARK  Name = ZINC19953653
REMARK  4 active torsions:
REMARK  status: ('A' for Active; 'I' for Inactive)
REMARK    1  A    between atoms: C_1  and  C_2
REMARK    2  A    between atoms: C_7  and  N_8
REMARK    3  A    between atoms: N_8  and  C_9
REMARK    4  A    between atoms: C_17  and  O_19
REMARK                            x       y       z     vdW  Elec       q    Type
REMARK                         _______ _______ _______ _____ _____    ______ ____
ROOT
ATOM      1  C   UNL     1      -2.408  -0.422   0.010  0.00  0.00    +0.142 C 
ATOM      2  C   UNL     1      -2.381  -0.984   1.452  0.00  0.00    +0.256 C 
ATOM      3  O   UNL     1      -3.775  -1.179   1.744  0.00  0.00    -0.489 OA
ATOM      4  C   UNL     1      -4.451  -1.405   0.585  0.00  0.00    +0.129 A 
ATOM      5  C   UNL     1      -3.718  -0.977  -0.517  0.00  0.00    +0.018 A 
ATOM      6  C   UNL     1      -4.223  -1.101  -1.792  0.00  0.00    +0.013 A 
ATOM      7  C   UNL     1      -5.470  -1.663  -1.992  0.00  0.00    +0.046 A 
ATOM      8  C   UNL     1      -6.209  -2.101  -0.903  0.00  0.00    +0.120 A 
ATOM      9  C   UNL     1      -5.704  -1.974   0.380  0.00  0.00    +0.091 A 
ENDROOT
BRANCH   1  10
ATOM     10  N   UNL     1      -2.425   1.042   0.019  0.00  0.00    -0.333 N 
ATOM     11  H   UNL     1      -3.385   1.581   0.026  0.00  0.00    +0.147 HD
BRANCH  10  18
ATOM     12  C   UNL     1      -2.551   3.884   0.048  0.00  0.00    +0.045 C 
ATOM     13  C   UNL     1      -1.239   3.144   0.031  0.00  0.00    -0.029 A 
ATOM     14  C   UNL     1      -0.050   3.847   0.023  0.00  0.00    +0.008 A 
ATOM     15  C   UNL     1       1.156   3.170   0.008  0.00  0.00    +0.039 A 
ATOM     16  C   UNL     1       1.175   1.785   0.000  0.00  0.00    +0.125 A 
ATOM     17  C   UNL     1      -0.013   1.076   0.008  0.00  0.00    +0.061 A 
ATOM     18  C   UNL     1      -1.224   1.755   0.017  0.00  0.00    +0.033 A 
ATOM     19  F   UNL     1       2.354   1.126  -0.014  0.00  0.00    -0.205 F 
ENDBRANCH  10  18
ENDBRANCH   1  10
BRANCH   8  20
ATOM     20  O   UNL     1      -7.434  -2.658  -1.096  0.00  0.00    -0.507 OA
ATOM     21  H   UNL     1      -8.022  -3.006  -0.234  0.00  0.00    +0.292 HD
ENDBRANCH   8  20
TORSDOF 3
