REMARK  Name = ZINC16138945
REMARK  10 active torsions:
REMARK  status: ('A' for Active; 'I' for Inactive)
REMARK    1  A    between atoms: C_1  and  C_2
REMARK    2  A    between atoms: C_2  and  C_4
REMARK    3  A    between atoms: C_6  and  C_33
REMARK    4  A    between atoms: C_11  and  C_32
REMARK    5  A    between atoms: C_21  and  C_31
REMARK    6  A    between atoms: C_24  and  O_27
REMARK    7  A    between atoms: O_27  and  C_28
REMARK    8  A    between atoms: C_28  and  C_30
REMARK    9  A    between atoms: C_33  and  C_35
REMARK   10  A    between atoms: C_33  and  C_37
REMARK                            x       y       z     vdW  Elec       q    Type
REMARK                         _______ _______ _______ _____ _____    ______ ____
ROOT
ATOM      1  C   UNL     1       1.267   1.969  -0.016  0.00  0.00    +0.066 C 
ATOM      2  C   UNL     1       1.750   2.220   1.438  0.00  0.00    +0.026 C 
ATOM      3  C   UNL     1       3.285   1.996   1.435  0.00  0.00    +0.010 C 
ATOM      4  C   UNL     1       3.639   1.863  -0.046  0.00  0.00    -0.000 C 
ATOM      5  C   UNL     1       2.406   1.128  -0.625  0.00  0.00    -0.019 C 
ATOM      6  C   UNL     1       2.480   1.146  -2.133  0.00  0.00    +0.008 C 
ATOM      7  C   UNL     1       3.824   0.649  -2.652  0.00  0.00    +0.005 C 
ATOM      8  C   UNL     1       5.062   1.148  -1.923  0.00  0.00    +0.003 C 
ATOM      9  C   UNL     1       4.881   1.099  -0.407  0.00  0.00    +0.000 C 
ATOM     10  C   UNL     1       6.117   1.615   0.318  0.00  0.00    +0.031 C 
ATOM     11  C   UNL     1       6.529   2.949  -0.224  0.00  0.00    -0.027 C 
ATOM     12  C   UNL     1       6.334   3.291  -1.461  0.00  0.00    -0.064 C 
ATOM     13  C   UNL     1       5.576   2.465  -2.459  0.00  0.00    -0.008 C 
ATOM     14  C   UNL     1       6.514   2.195  -3.649  0.00  0.00    +0.015 C 
ATOM     15  C   UNL     1       7.079   3.499  -4.201  0.00  0.00    +0.046 C 
ATOM     16  C   UNL     1       7.856   4.268  -3.135  0.00  0.00    +0.180 C 
ATOM     17  C   UNL     1       6.944   4.595  -1.949  0.00  0.00    +0.075 C 
ATOM     18  C   UNL     1       4.425   3.322  -2.981  0.00  0.00    +0.016 C 
ATOM     19  C   UNL     1       2.288  -0.307  -0.109  0.00  0.00    +0.012 C 
ENDROOT
BRANCH   1  21
ATOM     20  C   UNL     1      -0.912   1.222  -1.241  0.00  0.00    +0.086 C 
ATOM     21  C   UNL     1      -0.023   1.192  -0.025  0.00  0.00    +0.134 C 
ATOM     22  O   UNL     1      -0.343   0.541   0.941  0.00  0.00    -0.297 OA
ENDBRANCH   1  21
BRANCH  16  23
ATOM     23  O   UNL     1       8.979   3.470  -2.677  0.00  0.00    -0.461 OA
BRANCH  23  24
ATOM     24  C   UNL     1      10.069   4.134  -2.259  0.00  0.00    +0.304 C 
ATOM     25  O   UNL     1      10.083   5.342  -2.276  0.00  0.00    -0.251 OA
ATOM     26  C   UNL     1      11.273   3.373  -1.770  0.00  0.00    +0.136 C 
ENDBRANCH  23  24
ENDBRANCH  16  23
BRANCH   2  27
ATOM     27  C   UNL     1       1.436   3.659   1.852  0.00  0.00    +0.180 C 
BRANCH  27  28
ATOM     28  C   UNL     1       1.909   3.891   3.264  0.00  0.00    +0.228 C 
ATOM     29  O   UNL     1       2.445   2.993   3.879  0.00  0.00    -0.275 OA
ATOM     30  N   UNL     1       1.737   5.095   3.844  0.00  0.00    -0.328 N 
ATOM     31  H   UNL     1       1.308   5.813   3.352  0.00  0.00    +0.145 HD
ATOM     32  H   UNL     1       2.041   5.244   4.753  0.00  0.00    +0.145 HD
ENDBRANCH  27  28
BRANCH  27  33
ATOM     33  C   UNL     1      -0.017   3.885   1.778  0.00  0.00    +0.076 C 
ATOM     34  N   UNL     1      -1.138   4.060   1.722  0.00  0.00    -0.196 NA
ENDBRANCH  27  33
ENDBRANCH   2  27
TORSDOF 6
