REMARK  Name = ZINC20207433
REMARK  9 active torsions:
REMARK  status: ('A' for Active; 'I' for Inactive)
REMARK    1  A    between atoms: C_1  and  C_2
REMARK    2  A    between atoms: C_2  and  C_3
REMARK    3  A    between atoms: C_2  and  S_4
REMARK    4  A    between atoms: S_4  and  C_7
REMARK    5  A    between atoms: C_15  and  C_16
REMARK    6  A    between atoms: C_19  and  O_22
REMARK    7  A    between atoms: O_22  and  C_23
REMARK    8  A    between atoms: C_23  and  C_24
REMARK    9  A    between atoms: C_27  and  N_30
REMARK                            x       y       z     vdW  Elec       q    Type
REMARK                         _______ _______ _______ _____ _____    ______ ____
ROOT
ATOM      1  C   UNL     1       2.850   0.134  -0.411  0.00  0.00    +0.257 C 
ATOM      2  N   UNL     1       3.858  -0.487   0.118  0.00  0.00    -0.174 NA
ATOM      3  S   UNL     1       5.196   0.376  -0.406  0.00  0.00    +0.049 S 
ATOM      4  C   UNL     1       4.424   1.574  -1.271  0.00  0.00    +0.183 C 
ATOM      5  N   UNL     1       4.917   2.617  -1.901  0.00  0.00    -0.152 NA
ATOM      6  C   UNL     1       4.081   3.496  -2.483  0.00  0.00    +0.273 C 
ATOM      7  O   UNL     1       4.511   4.397  -3.184  0.00  0.00    -0.268 OA
ATOM      8  C   UNL     1       2.623   3.341  -2.252  0.00  0.00    +0.078 C 
ATOM      9  C   UNL     1       1.755   4.406  -2.344  0.00  0.00    +0.024 C 
ATOM     10  C   UNL     1       2.150   1.967  -1.916  0.00  0.00    +0.117 C 
ATOM     11  N   UNL     1       0.980   1.504  -2.264  0.00  0.00    -0.386 N 
ATOM     12  N   UNL     1       3.095   1.214  -1.190  0.00  0.00    -0.203 N 
ATOM     13  H   UNL     1       0.331   2.092  -2.681  0.00  0.00    +0.157 HD
ATOM     14  H   UNL     1       0.760   0.573  -2.104  0.00  0.00    +0.157 HD
ENDROOT
BRANCH   9  15
ATOM     15  C   UNL     1       2.279   5.769  -2.461  0.00  0.00    -0.024 A 
ATOM     16  C   UNL     1       1.635   6.701  -3.288  0.00  0.00    +0.011 A 
ATOM     17  C   UNL     1       2.130   7.976  -3.393  0.00  0.00    +0.046 A 
ATOM     18  C   UNL     1       3.268   8.344  -2.682  0.00  0.00    +0.121 A 
ATOM     19  C   UNL     1       3.910   7.423  -1.861  0.00  0.00    +0.046 A 
ATOM     20  C   UNL     1       3.421   6.148  -1.743  0.00  0.00    +0.011 A 
BRANCH  18  21
ATOM     21  O   UNL     1       3.753   9.607  -2.791  0.00  0.00    -0.487 OA
BRANCH  21  22
ATOM     22  C   UNL     1       4.924   9.919  -2.035  0.00  0.00    +0.264 C 
BRANCH  22  23
ATOM     23  C   UNL     1       5.312  11.354  -2.280  0.00  0.00    -0.010 A 
ATOM     24  C   UNL     1       6.171  11.671  -3.316  0.00  0.00    +0.009 A 
ATOM     25  C   UNL     1       6.528  12.987  -3.540  0.00  0.00    +0.033 A 
ATOM     26  C   UNL     1       6.025  13.988  -2.730  0.00  0.00    +0.126 A 
ATOM     27  C   UNL     1       5.165  13.671  -1.694  0.00  0.00    +0.033 A 
ATOM     28  C   UNL     1       4.805  12.355  -1.472  0.00  0.00    +0.009 A 
BRANCH  26  29
ATOM     29  N   UNL     1       6.407  15.397  -2.970  0.00  0.00    +0.056 N 
ATOM     30  O   UNL     1       7.159  15.674  -3.875  0.00  0.00    -0.126 OA
ATOM     31  O   UNL     1       5.967  16.272  -2.261  0.00  0.00    -0.126 OA
ENDBRANCH  26  29
ENDBRANCH  22  23
ENDBRANCH  21  22
ENDBRANCH  18  21
ENDBRANCH   9  15
BRANCH   1  32
ATOM     32  S   UNL     1       1.202  -0.419  -0.130  0.00  0.00    +0.031 S 
ATOM     33  O   UNL     1       0.406   0.756  -0.207  0.00  0.00    -0.166 OA
ATOM     34  O   UNL     1       1.271  -1.169   1.075  0.00  0.00    -0.166 OA
BRANCH  32  36
ATOM     35  C   UNL     1       1.744  -2.743  -1.467  0.00  0.00    +0.032 C 
ATOM     36  C   UNL     1       0.833  -1.515  -1.528  0.00  0.00    +0.133 C 
ATOM     37  C   UNL     1      -0.629  -1.961  -1.455  0.00  0.00    +0.032 C 
ENDBRANCH  32  36
ENDBRANCH   1  32
TORSDOF 7
