REMARK  Name = ZINC02297291
REMARK  7 active torsions:
REMARK  status: ('A' for Active; 'I' for Inactive)
REMARK    1  A    between atoms: C_1  and  C_2
REMARK    2  A    between atoms: C_5  and  C_31
REMARK    3  A    between atoms: C_6  and  C_8
REMARK    4  A    between atoms: C_9  and  C_25
REMARK    5  A    between atoms: C_11  and  C_14
REMARK    6  A    between atoms: C_18  and  O_20
REMARK    7  A    between atoms: O_20  and  C_21
REMARK                            x       y       z     vdW  Elec       q    Type
REMARK                         _______ _______ _______ _____ _____    ______ ____
ROOT
ATOM      1  C   UNL     1      -3.414  -1.267  -0.181  0.00  0.00    +0.075 A 
ATOM      2  C   UNL     1      -2.670  -2.428  -0.055  0.00  0.00    +0.097 A 
ATOM      3  N   UNL     1      -1.397  -2.074   0.182  0.00  0.00    -0.227 NA
ATOM      4  C   UNL     1      -1.304  -0.764   0.220  0.00  0.00    +0.140 A 
ATOM      5  N   UNL     1      -2.537  -0.222  -0.004  0.00  0.00    -0.337 N 
ATOM      6  H   UNL     1      -2.760   0.752  -0.034  0.00  0.00    +0.167 HD
ENDROOT
BRANCH   4   7
ATOM      7  C   UNL     1      -0.062  -0.000   0.462  0.00  0.00    +0.024 A 
ATOM      8  C   UNL     1       1.142  -0.672   0.679  0.00  0.00    +0.061 A 
ATOM      9  C   UNL     1       2.303   0.044   0.904  0.00  0.00    +0.171 A 
ATOM     10  C   UNL     1       2.272   1.437   0.915  0.00  0.00    +0.208 A 
ATOM     11  C   UNL     1       1.072   2.108   0.699  0.00  0.00    +0.166 A 
ATOM     12  C   UNL     1      -0.091   1.395   0.473  0.00  0.00    +0.061 A 
ATOM     13  O   UNL     1       3.534   1.899   1.156  0.00  0.00    -0.449 OA
ATOM     14  C   UNL     1       4.409   0.788   0.885  0.00  0.00    +0.467 C 
ATOM     15  O   UNL     1       3.585  -0.365   1.138  0.00  0.00    -0.452 OA
BRANCH  11  16
ATOM     16  O   UNL     1       1.044   3.468   0.710  0.00  0.00    -0.491 OA
ATOM     17  C   UNL     1      -0.221   4.092   0.481  0.00  0.00    +0.277 C 
ENDBRANCH  11  16
ENDBRANCH   4   7
BRANCH   1  23
ATOM     18  C   UNL     1      -8.006  -0.003   1.303  0.00  0.00    +0.044 C 
ATOM     19  C   UNL     1      -7.075  -0.563   0.259  0.00  0.00    -0.050 A 
ATOM     20  C   UNL     1      -7.579  -0.989  -0.958  0.00  0.00    +0.003 A 
ATOM     21  C   UNL     1      -6.731  -1.505  -1.923  0.00  0.00    +0.004 A 
ATOM     22  C   UNL     1      -5.377  -1.598  -1.677  0.00  0.00    -0.041 A 
ATOM     23  C   UNL     1      -4.862  -1.170  -0.451  0.00  0.00    +0.004 A 
ATOM     24  C   UNL     1      -5.724  -0.655   0.520  0.00  0.00    +0.013 A 
ATOM     25  C   UNL     1      -4.456  -2.160  -2.729  0.00  0.00    +0.044 C 
ENDBRANCH   1  23
BRANCH   2  26
ATOM     26  C   UNL     1      -3.186  -3.813  -0.168  0.00  0.00    +0.002 A 
ATOM     27  C   UNL     1      -4.404  -4.156   0.418  0.00  0.00    +0.010 A 
ATOM     28  C   UNL     1      -4.882  -5.445   0.304  0.00  0.00    +0.001 A 
ATOM     29  C   UNL     1      -4.149  -6.400  -0.379  0.00  0.00    +0.000 A 
ATOM     30  C   UNL     1      -2.937  -6.067  -0.957  0.00  0.00    +0.001 A 
ATOM     31  C   UNL     1      -2.452  -4.779  -0.855  0.00  0.00    +0.010 A 
ENDBRANCH   2  26
TORSDOF 4
