REMARK  Name = ZINC61783631
REMARK  4 active torsions:
REMARK  status: ('A' for Active; 'I' for Inactive)
REMARK    1  A    between atoms: C_6  and  N_7
REMARK    2  A    between atoms: C_8  and  C_10
REMARK    3  A    between atoms: N_12  and  C_13
REMARK    4  A    between atoms: C_13  and  C_14
REMARK                            x       y       z     vdW  Elec       q    Type
REMARK                         _______ _______ _______ _____ _____    ______ ____
ROOT
ATOM      1  N   UNL     1      -1.199  -0.720   0.009  0.00  0.00    -0.278 N 
ATOM      2  C   UNL     1      -2.372  -0.066   0.125  0.00  0.00    +0.303 C 
ATOM      3  O   UNL     1      -2.393   1.147   0.132  0.00  0.00    -0.265 OA
ATOM      4  H   UNL     1      -1.188  -1.686  -0.073  0.00  0.00    +0.155 HD
ENDROOT
BRANCH   1  10
ATOM      5  C   UNL     1       0.122   1.155   0.764  0.00  0.00    +0.025 A 
ATOM      6  C   UNL     1       1.308   1.861   0.763  0.00  0.00    +0.025 A 
ATOM      7  C   UNL     1       2.382   1.413   0.005  0.00  0.00    +0.037 A 
ATOM      8  C   UNL     1       2.262   0.253  -0.751  0.00  0.00    -0.024 A 
ATOM      9  C   UNL     1       1.077  -0.453  -0.751  0.00  0.00    +0.028 A 
ATOM     10  C   UNL     1       0.002  -0.004   0.008  0.00  0.00    +0.034 A 
ATOM     11  C   UNL     1       3.430  -0.230  -1.572  0.00  0.00    +0.046 C 
ATOM     12  C   UNL     1       4.216   0.970  -2.099  0.00  0.00    +0.101 C 
ATOM     13  C   UNL     1       4.488   1.938  -0.978  0.00  0.00    +0.218 C 
ATOM     14  O   UNL     1       5.532   2.554  -0.958  0.00  0.00    -0.275 OA
ATOM     15  N   UNL     1       3.586   2.127   0.002  0.00  0.00    -0.285 N 
ATOM     16  H   UNL     1       3.770   2.763   0.711  0.00  0.00    +0.155 HD
ENDBRANCH   1  10
BRANCH   2  17
ATOM     17  C   UNL     1      -3.647  -0.836   0.245  0.00  0.00    +0.299 C 
ATOM     18  O   UNL     1      -3.626  -2.049   0.238  0.00  0.00    -0.265 OA
ATOM     19  N   UNL     1      -4.820  -0.182   0.361  0.00  0.00    -0.307 N 
ATOM     20  H   UNL     1      -4.836   0.788   0.367  0.00  0.00    +0.149 HD
BRANCH  19  21
ATOM     21  C   UNL     1      -6.070  -0.937   0.479  0.00  0.00    +0.111 C 
BRANCH  21  22
ATOM     22  C   UNL     1      -7.244   0.037   0.597  0.00  0.00    -0.013 C 
ATOM     23  C   UNL     1      -7.058   0.913   1.837  0.00  0.00    +0.012 C 
ATOM     24  C   UNL     1      -8.232   1.887   1.955  0.00  0.00    -0.010 C 
ATOM     25  C   UNL     1      -9.538   1.099   2.078  0.00  0.00    +0.007 C 
ATOM     26  C   UNL     1      -9.724   0.223   0.837  0.00  0.00    -0.010 C 
ATOM     27  C   UNL     1      -8.550  -0.751   0.720  0.00  0.00    +0.012 C 
ATOM     28  C   UNL     1      -9.778   1.109  -0.409  0.00  0.00    +0.007 C 
ATOM     29  C   UNL     1      -8.473   1.897  -0.532  0.00  0.00    -0.010 C 
ATOM     30  C   UNL     1      -8.287   2.773   0.709  0.00  0.00    +0.007 C 
ATOM     31  C   UNL     1      -7.299   0.923  -0.650  0.00  0.00    +0.012 C 
ENDBRANCH  21  22
ENDBRANCH  19  21
ENDBRANCH   2  17
TORSDOF 4
