REMARK  Name = ZINC15943196
REMARK  3 active torsions:
REMARK  status: ('A' for Active; 'I' for Inactive)
REMARK    1  A    between atoms: N_10  and  C_15
REMARK    2  A    between atoms: C_15  and  C_16
REMARK    3  A    between atoms: N_21  and  C_24
REMARK                            x       y       z     vdW  Elec       q    Type
REMARK                         _______ _______ _______ _____ _____    ______ ____
ROOT
ATOM      1  C   UNL     1       3.515  -5.846  -0.066  0.00  0.00    +0.243 C 
ENDROOT
BRANCH   1  11
ATOM      2  C   UNL     1      -0.017   1.362   0.009  0.00  0.00    +0.001 A 
ATOM      3  C   UNL     1       1.170   2.082   0.002  0.00  0.00    +0.002 A 
ATOM      4  C   UNL     1       2.384   1.432  -0.013  0.00  0.00    +0.026 A 
ATOM      5  C   UNL     1       2.426   0.040  -0.021  0.00  0.00    +0.048 A 
ATOM      6  C   UNL     1       1.221  -0.683  -0.013  0.00  0.00    +0.009 A 
ATOM      7  C   UNL     1       0.002  -0.004   0.002  0.00  0.00    +0.010 A 
ATOM      8  C   UNL     1       1.591  -2.105  -0.025  0.00  0.00    +0.032 A 
ATOM      9  C   UNL     1       0.853  -3.307  -0.025  0.00  0.00    +0.143 A 
ATOM     10  N   UNL     1       1.468  -4.457  -0.037  0.00  0.00    -0.175 NA
ATOM     11  N   UNL     1       2.864  -4.534  -0.052  0.00  0.00    -0.219 N 
ATOM     12  C   UNL     1       3.619  -3.417  -0.053  0.00  0.00    +0.292 A 
ATOM     13  O   UNL     1       4.837  -3.496  -0.065  0.00  0.00    -0.264 OA
ATOM     14  C   UNL     1       2.985  -2.151  -0.039  0.00  0.00    +0.116 A 
ATOM     15  N   UNL     1       3.469  -0.862  -0.037  0.00  0.00    -0.350 N 
ATOM     16  H   UNL     1       4.409  -0.622  -0.045  0.00  0.00    +0.166 HD
ENDBRANCH   1  11
BRANCH   1  17
ATOM     17  C   UNL     1       3.753  -6.304   1.350  0.00  0.00    +0.237 C 
ATOM     18  O   UNL     1       3.412  -5.603   2.280  0.00  0.00    -0.274 OA
ATOM     19  N   UNL     1       4.344  -7.492   1.584  0.00  0.00    -0.297 N 
ATOM     20  C   UNL     1       4.768  -8.349   0.468  0.00  0.00    +0.126 C 
ATOM     21  C   UNL     1       6.260  -8.666   0.632  0.00  0.00    +0.124 C 
ATOM     22  N   UNL     1       6.493  -9.128   2.008  0.00  0.00    -0.325 N 
ATOM     23  C   UNL     1       6.069  -8.271   3.124  0.00  0.00    +0.124 C 
ATOM     24  C   UNL     1       4.582  -7.951   2.960  0.00  0.00    +0.126 C 
BRANCH  22  25
ATOM     25  C   UNL     1       7.106 -10.361   2.250  0.00  0.00    +0.065 A 
ATOM     26  C   UNL     1       8.487 -10.438   2.374  0.00  0.00    +0.026 A 
ATOM     27  C   UNL     1       9.090 -11.658   2.614  0.00  0.00    +0.002 A 
ATOM     28  C   UNL     1       8.322 -12.801   2.731  0.00  0.00    +0.003 A 
ATOM     29  C   UNL     1       6.946 -12.729   2.608  0.00  0.00    +0.040 A 
ATOM     30  C   UNL     1       6.335 -11.511   2.374  0.00  0.00    +0.144 A 
ATOM     31  F   UNL     1       4.990 -11.440   2.260  0.00  0.00    -0.204 F 
ENDBRANCH  22  25
ENDBRANCH   1  17
TORSDOF 3
