REMARK  Name = ZINC06410118
REMARK  10 active torsions:
REMARK  status: ('A' for Active; 'I' for Inactive)
REMARK    1  A    between atoms: C_1  and  C_2
REMARK    2  A    between atoms: C_7  and  C_14
REMARK    3  A    between atoms: C_14  and  C_16
REMARK    4  A    between atoms: C_14  and  N_67
REMARK    5  A    between atoms: N_20  and  C_21
REMARK    6  A    between atoms: C_21  and  C_22
REMARK    7  A    between atoms: C_28  and  C_29
REMARK    8  A    between atoms: C_28  and  N_67
REMARK    9  A    between atoms: C_35  and  C_36
REMARK   10  A    between atoms: C_35  and  N_67
REMARK                            x       y       z     vdW  Elec       q    Type
REMARK                         _______ _______ _______ _____ _____    ______ ____
ROOT
ATOM      1  C   UNL     1       5.076   1.330  -0.411  0.00  0.00    +0.040 C 
ENDROOT
BRANCH   1   8
ATOM      2  C   UNL     1      -2.515   3.643   0.399  0.00  0.00    +0.044 C 
ATOM      3  C   UNL     1      -1.169   2.994   0.201  0.00  0.00    -0.048 A 
ATOM      4  C   UNL     1      -1.097   1.645  -0.119  0.00  0.00    +0.004 A 
ATOM      5  C   UNL     1       0.113   1.037  -0.297  0.00  0.00    +0.010 A 
ATOM      6  C   UNL     1       1.290   1.782  -0.167  0.00  0.00    -0.001 A 
ATOM      7  C   UNL     1       2.603   1.163  -0.357  0.00  0.00    +0.017 A 
ATOM      8  C   UNL     1       3.709   1.936  -0.221  0.00  0.00    +0.011 A 
ATOM      9  C   UNL     1       3.585   3.305   0.100  0.00  0.00    +0.251 A 
ATOM     10  O   UNL     1       4.592   3.981   0.219  0.00  0.00    -0.268 OA
ATOM     11  N   UNL     1       2.383   3.881   0.277  0.00  0.00    -0.322 N 
ATOM     12  H   UNL     1       2.334   4.825   0.496  0.00  0.00    +0.169 HD
ATOM     13  C   UNL     1       1.221   3.151   0.151  0.00  0.00    +0.049 A 
ATOM     14  C   UNL     1      -0.023   3.748   0.333  0.00  0.00    +0.029 A 
ENDBRANCH   1   8
BRANCH   1  15
ATOM     15  C   UNL     1       5.850   1.423   0.879  0.00  0.00    +0.143 A 
ATOM     16  N   UNL     1       6.326   2.513   1.430  0.00  0.00    -0.115 NA
ATOM     17  N   UNL     1       6.922   2.180   2.522  0.00  0.00    -0.023 NA
ATOM     18  N   UNL     1       6.846   0.904   2.679  0.00  0.00    -0.044 NA
ATOM     19  N   UNL     1       6.192   0.402   1.686  0.00  0.00    -0.226 N 
BRANCH  19  20
ATOM     20  C   UNL     1       5.881  -1.015   1.477  0.00  0.00    +0.182 C 
BRANCH  20  21
ATOM     21  C   UNL     1       7.055  -1.695   0.820  0.00  0.00    -0.026 A 
ATOM     22  C   UNL     1       7.137  -1.753  -0.559  0.00  0.00    +0.005 A 
ATOM     23  C   UNL     1       8.216  -2.373  -1.161  0.00  0.00    +0.000 A 
ATOM     24  C   UNL     1       9.207  -2.943  -0.385  0.00  0.00    +0.000 A 
ATOM     25  C   UNL     1       9.122  -2.889   0.994  0.00  0.00    +0.000 A 
ATOM     26  C   UNL     1       8.046  -2.265   1.596  0.00  0.00    +0.005 A 
ENDBRANCH  20  21
ENDBRANCH  19  20
ENDBRANCH   1  15
BRANCH   1  27
ATOM     27  N   UNL     1       5.794   2.087  -1.457  0.00  0.00    +0.397 N 
ATOM     28  H   UNL     1       5.857   3.072  -1.173  0.00  0.00    -0.079 HD
BRANCH  27  29
ATOM     29  C   UNL     1       5.059   2.003  -2.736  0.00  0.00    -0.041 C 
BRANCH  29  30
ATOM     30  C   UNL     1       4.138   3.192  -2.838  0.00  0.00    -0.064 A 
ATOM     31  C   UNL     1       2.799   3.059  -2.523  0.00  0.00    +0.002 A 
ATOM     32  C   UNL     1       1.956   4.150  -2.611  0.00  0.00    +0.000 A 
ATOM     33  C   UNL     1       2.449   5.373  -3.026  0.00  0.00    +0.000 A 
ATOM     34  C   UNL     1       3.787   5.506  -3.347  0.00  0.00    +0.000 A 
ATOM     35  C   UNL     1       4.632   4.415  -3.253  0.00  0.00    +0.002 A 
ENDBRANCH  29  30
ENDBRANCH  27  29
BRANCH  27  36
ATOM     36  C   UNL     1       7.160   1.548  -1.624  0.00  0.00    -0.001 C 
BRANCH  36  37
ATOM     37  C   UNL     1       8.050   2.155  -0.570  0.00  0.00    +0.089 A 
ATOM     38  C   UNL     1       8.517   1.526   0.523  0.00  0.00    +0.042 A 
ATOM     39  C   UNL     1       9.305   2.464   1.230  0.00  0.00    +0.041 A 
ATOM     40  C   UNL     1       9.272   3.610   0.526  0.00  0.00    +0.195 A 
ATOM     41  O   UNL     1       8.515   3.415  -0.566  0.00  0.00    -0.470 OA
ENDBRANCH  36  37
ENDBRANCH  27  36
ENDBRANCH   1  27
TORSDOF 9
