REMARK  Name = ZINC39661753
REMARK  8 active torsions:
REMARK  status: ('A' for Active; 'I' for Inactive)
REMARK    1  A    between atoms: C_3  and  O_37
REMARK    2  A    between atoms: C_4  and  O_36
REMARK    3  A    between atoms: C_6  and  C_7
REMARK    4  A    between atoms: C_7  and  C_8
REMARK    5  A    between atoms: C_8  and  N_9
REMARK    6  A    between atoms: C_10  and  C_12
REMARK    7  A    between atoms: C_23  and  C_25
REMARK    8  A    between atoms: C_28  and  C_32
REMARK                            x       y       z     vdW  Elec       q    Type
REMARK                         _______ _______ _______ _____ _____    ______ ____
ROOT
ATOM      1  C   UNL     1      -5.432  -3.226  -2.312  0.00  0.00    +0.100 C 
ATOM      2  C   UNL     1      -6.296  -2.167  -1.591  0.00  0.00    +0.121 C 
ATOM      3  N   UNL     1      -6.962  -1.419  -2.683  0.00  0.00    -0.296 N 
ATOM      4  C   UNL     1      -7.312  -2.458  -3.681  0.00  0.00    +0.115 C 
ATOM      5  C   UNL     1      -6.104  -3.416  -3.682  0.00  0.00    -0.004 C 
ATOM      6  C   UNL     1      -5.137  -3.043  -4.802  0.00  0.00    -0.010 C 
ATOM      7  C   UNL     1      -5.809  -3.295  -6.155  0.00  0.00    -0.082 C 
ATOM      8  N   UNL     1      -6.188  -4.709  -6.259  0.00  0.00    +0.379 N 
ATOM      9  C   UNL     1      -7.188  -5.037  -5.236  0.00  0.00    -0.082 C 
ATOM     10  C   UNL     1      -6.575  -4.858  -3.845  0.00  0.00    -0.010 C 
ATOM     11  C   UNL     1      -7.196  -0.093  -2.754  0.00  0.00    +0.247 C 
ATOM     12  O   UNL     1      -6.735   0.651  -1.911  0.00  0.00    -0.270 OA
ATOM     13  H   UNL     1      -6.574  -4.886  -7.175  0.00  0.00    -0.086 HD
ATOM     14  H   UNL     1      -5.370  -5.286  -6.125  0.00  0.00    -0.086 HD
ENDROOT
BRANCH  11  15
ATOM     15  C   UNL     1      -8.013   0.455  -3.857  0.00  0.00    +0.040 A 
ATOM     16  C   UNL     1      -8.889  -0.374  -4.560  0.00  0.00    +0.014 A 
ATOM     17  C   UNL     1      -9.650   0.143  -5.588  0.00  0.00    +0.016 A 
ATOM     18  C   UNL     1      -9.547   1.481  -5.924  0.00  0.00    +0.090 A 
ATOM     19  C   UNL     1      -8.680   2.310  -5.231  0.00  0.00    +0.136 A 
ATOM     20  C   UNL     1      -7.917   1.805  -4.196  0.00  0.00    +0.052 A 
ATOM     21  F   UNL     1      -8.585   3.616  -5.565  0.00  0.00    -0.205 F 
BRANCH  18  22
ATOM     22  C   UNL     1     -10.382   2.038  -7.048  0.00  0.00    +0.420 C 
ATOM     23  F   UNL     1     -11.172   1.020  -7.591  0.00  0.00    -0.166 F 
ATOM     24  F   UNL     1     -11.206   3.056  -6.557  0.00  0.00    -0.166 F 
ATOM     25  F   UNL     1      -9.542   2.556  -8.040  0.00  0.00    -0.166 F 
ENDBRANCH  18  22
ENDBRANCH  11  15
BRANCH   1  27
ATOM     26  N   UNL     1      -3.009  -3.599  -2.636  0.00  0.00    -0.315 N 
ATOM     27  C   UNL     1      -4.022  -2.724  -2.485  0.00  0.00    +0.218 C 
ATOM     28  O   UNL     1      -3.799  -1.532  -2.488  0.00  0.00    -0.275 OA
ATOM     29  H   UNL     1      -3.187  -4.553  -2.634  0.00  0.00    +0.149 HD
BRANCH  26  30
ATOM     30  C   UNL     1      -1.638  -3.111  -2.804  0.00  0.00    +0.109 C 
BRANCH  30  31
ATOM     31  C   UNL     1      -0.688  -4.301  -2.955  0.00  0.00    +0.054 C 
BRANCH  31  37
ATOM     32  C   UNL     1       1.523  -3.595  -2.019  0.00  0.00    +0.007 A 
ATOM     33  C   UNL     1       2.818  -3.135  -2.172  0.00  0.00    +0.049 A 
ATOM     34  C   UNL     1       3.316  -2.876  -3.438  0.00  0.00    +0.158 A 
ATOM     35  C   UNL     1       2.510  -3.081  -4.555  0.00  0.00    +0.158 A 
ATOM     36  C   UNL     1       1.214  -3.543  -4.394  0.00  0.00    +0.052 A 
ATOM     37  C   UNL     1       0.723  -3.799  -3.127  0.00  0.00    -0.042 A 
BRANCH  35  38
ATOM     38  O   UNL     1       2.994  -2.829  -5.800  0.00  0.00    -0.503 OA
ATOM     39  H   UNL     1       3.424  -3.588  -6.217  0.00  0.00    +0.292 HD
ENDBRANCH  35  38
BRANCH  34  40
ATOM     40  O   UNL     1       4.589  -2.423  -3.591  0.00  0.00    -0.503 OA
ATOM     41  H   UNL     1       5.247  -3.124  -3.691  0.00  0.00    +0.292 HD
ENDBRANCH  34  40
ENDBRANCH  31  37
ENDBRANCH  30  31
ENDBRANCH  26  30
ENDBRANCH   1  27
TORSDOF 8
