REMARK  Name = ZINC40045966
REMARK  7 active torsions:
REMARK  status: ('A' for Active; 'I' for Inactive)
REMARK    1  A    between atoms: C_1  and  C_2
REMARK    2  A    between atoms: C_2  and  C_3
REMARK    3  A    between atoms: C_17  and  C_19
REMARK    4  A    between atoms: C_22  and  O_25
REMARK    5  A    between atoms: C_31  and  O_35
REMARK    6  A    between atoms: O_35  and  C_36
REMARK    7  A    between atoms: C_36  and  C_37
REMARK                            x       y       z     vdW  Elec       q    Type
REMARK                         _______ _______ _______ _____ _____    ______ ____
ROOT
ATOM      1  C   UNL     1       0.707  -0.490  -1.238  0.00  0.00    -0.047 A 
ATOM      2  C   UNL     1      -0.016  -0.719  -2.400  0.00  0.00    +0.007 A 
ATOM      3  C   UNL     1       0.609  -1.166  -3.543  0.00  0.00    +0.047 A 
ATOM      4  C   UNL     1       1.985  -1.394  -3.543  0.00  0.00    +0.139 A 
ATOM      5  C   UNL     1       2.707  -1.153  -2.363  0.00  0.00    +0.065 A 
ATOM      6  C   UNL     1       2.058  -0.699  -1.216  0.00  0.00    +0.019 A 
ATOM      7  C   UNL     1       4.175  -1.378  -2.359  0.00  0.00    +0.199 A 
ATOM      8  O   UNL     1       4.850  -1.357  -1.345  0.00  0.00    -0.287 OA
ATOM      9  C   UNL     1       4.734  -1.628  -3.691  0.00  0.00    +0.072 A 
ATOM     10  C   UNL     1       3.921  -1.840  -4.769  0.00  0.00    +0.199 A 
ATOM     11  O   UNL     1       2.576  -1.841  -4.675  0.00  0.00    -0.450 OA
ATOM     12  C   UNL     1       4.769  -2.050  -5.954  0.00  0.00    +0.289 C 
ATOM     13  O   UNL     1       4.356  -2.261  -7.077  0.00  0.00    -0.266 OA
ATOM     14  N   UNL     1       6.071  -1.974  -5.612  0.00  0.00    -0.232 N 
ATOM     15  C   UNL     1       6.148  -1.706  -4.166  0.00  0.00    +0.151 C 
ATOM     16  C   UNL     1       7.147  -2.123  -6.469  0.00  0.00    +0.169 A 
ATOM     17  N   UNL     1       8.430  -2.067  -6.198  0.00  0.00    -0.224 NA
ATOM     18  C   UNL     1       9.381  -2.234  -7.144  0.00  0.00    +0.081 A 
ATOM     19  C   UNL     1      10.786  -2.197  -6.986  0.00  0.00    +0.032 A 
ATOM     20  C   UNL     1      11.614  -2.385  -8.048  0.00  0.00    +0.048 A 
ATOM     21  C   UNL     1      11.118  -2.620  -9.327  0.00  0.00    +0.122 A 
ATOM     22  C   UNL     1       9.745  -2.663  -9.523  0.00  0.00    +0.063 A 
ATOM     23  C   UNL     1       8.905  -2.474  -8.453  0.00  0.00    +0.044 A 
ATOM     24  S   UNL     1       7.143  -2.450  -8.227  0.00  0.00    -0.052 S 
ENDROOT
BRANCH  15  25
ATOM     25  C   UNL     1       6.853  -0.397  -3.917  0.00  0.00    -0.022 A 
ATOM     26  C   UNL     1       6.661   0.665  -4.780  0.00  0.00    +0.009 A 
ATOM     27  C   UNL     1       7.306   1.866  -4.554  0.00  0.00    +0.046 A 
ATOM     28  C   UNL     1       8.147   2.005  -3.460  0.00  0.00    +0.117 A 
ATOM     29  C   UNL     1       8.338   0.937  -2.595  0.00  0.00    +0.046 A 
ATOM     30  C   UNL     1       7.686  -0.260  -2.822  0.00  0.00    +0.009 A 
BRANCH  28  31
ATOM     31  O   UNL     1       8.783   3.184  -3.236  0.00  0.00    -0.507 OA
ATOM     32  H   UNL     1       8.285   3.801  -2.682  0.00  0.00    +0.292 HD
ENDBRANCH  28  31
ENDBRANCH  15  25
BRANCH   1  34
ATOM     33  C   UNL     1      -0.019   1.526   0.010  0.00  0.00    +0.009 C 
ATOM     34  C   UNL     1       0.002  -0.004   0.002  0.00  0.00    +0.032 C 
ENDBRANCH   1  34
BRANCH  21  35
ATOM     35  O   UNL     1      11.968  -2.803 -10.372  0.00  0.00    -0.492 OA
BRANCH  35  36
ATOM     36  C   UNL     1      13.367  -2.743 -10.088  0.00  0.00    +0.225 C 
ATOM     37  C   UNL     1      14.159  -2.971 -11.377  0.00  0.00    +0.048 C 
ENDBRANCH  35  36
ENDBRANCH  21  35
TORSDOF 5
