REMARK  Name = ZINC41385621
REMARK  9 active torsions:
REMARK  status: ('A' for Active; 'I' for Inactive)
REMARK    1  A    between atoms: C_1  and  C_2
REMARK    2  A    between atoms: C_2  and  C_3
REMARK    3  A    between atoms: C_3  and  C_4
REMARK    4  A    between atoms: C_6  and  C_11
REMARK    5  A    between atoms: C_11  and  S_12
REMARK    6  A    between atoms: S_12  and  C_13
REMARK    7  A    between atoms: C_16  and  C_18
REMARK    8  A    between atoms: C_20  and  C_24
REMARK    9  A    between atoms: N_22  and  C_23
REMARK                            x       y       z     vdW  Elec       q    Type
REMARK                         _______ _______ _______ _____ _____    ______ ____
ROOT
ATOM      1  S   UNL     1       1.871  -4.553  -1.693  0.00  0.00    -0.059 S 
ENDROOT
BRANCH   1   2
ATOM      2  C   UNL     1       3.416  -5.389  -1.550  0.00  0.00    +0.278 A 
ATOM      3  N   UNL     1       3.891  -5.965  -0.470  0.00  0.00    -0.101 NA
ATOM      4  N   UNL     1       5.043  -6.477  -0.728  0.00  0.00    -0.105 NA
ATOM      5  C   UNL     1       5.350  -6.248  -1.983  0.00  0.00    +0.267 A 
ATOM      6  O   UNL     1       4.323  -5.560  -2.531  0.00  0.00    -0.410 OA
BRANCH   5   7
ATOM      7  C   UNL     1       6.582  -6.669  -2.670  0.00  0.00    +0.125 A 
ATOM      8  C   UNL     1       6.911  -6.425  -3.987  0.00  0.00    +0.057 A 
ATOM      9  C   UNL     1       8.161  -6.996  -4.224  0.00  0.00    +0.061 A 
ATOM     10  N   UNL     1       8.581  -7.559  -3.120  0.00  0.00    -0.176 NA
ATOM     11  N   UNL     1       7.618  -7.369  -2.121  0.00  0.00    -0.262 N 
ATOM     12  C   UNL     1       7.705  -7.840  -0.736  0.00  0.00    +0.173 C 
ATOM     13  C   UNL     1       8.905  -6.968  -5.534  0.00  0.00    +0.067 C 
ENDBRANCH   5   7
ENDBRANCH   1   2
BRANCH   1  14
ATOM     14  C   UNL     1       1.148  -4.681  -0.034  0.00  0.00    +0.134 C 
BRANCH  14  17
ATOM     15  C   UNL     1      -1.413  -2.041   0.005  0.00  0.00    +0.110 A 
ATOM     16  N   UNL     1      -0.265  -2.663  -0.010  0.00  0.00    -0.238 NA
ATOM     17  C   UNL     1      -0.194  -3.997  -0.017  0.00  0.00    +0.059 A 
ATOM     18  C   UNL     1      -1.337  -4.737  -0.010  0.00  0.00    +0.094 A 
ATOM     19  C   UNL     1      -2.577  -4.065   0.006  0.00  0.00    +0.252 A 
ATOM     20  N   UNL     1      -2.579  -2.715   0.018  0.00  0.00    -0.311 N 
ATOM     21  O   UNL     1      -3.624  -4.690   0.013  0.00  0.00    -0.268 OA
ATOM     22  H   UNL     1      -3.420  -2.231   0.032  0.00  0.00    +0.170 HD
BRANCH  15  23
ATOM     23  C   UNL     1      -1.433  -0.534   0.013  0.00  0.00    +0.074 C 
BRANCH  23  25
ATOM     24  C   UNL     1      -0.019   1.526   0.010  0.00  0.00    +0.004 C 
ATOM     25  C   UNL     1       0.002  -0.004   0.002  0.00  0.00    +0.004 C 
ENDBRANCH  23  25
ENDBRANCH  15  23
ENDBRANCH  14  17
ENDBRANCH   1  14
TORSDOF 6
