REMARK  Name = ZINC16371691
REMARK  6 active torsions:
REMARK  status: ('A' for Active; 'I' for Inactive)
REMARK    1  A    between atoms: C_7  and  N_11
REMARK    2  A    between atoms: C_8  and  C_9
REMARK    3  A    between atoms: C_12  and  C_14
REMARK    4  A    between atoms: C_14  and  S_15
REMARK    5  A    between atoms: S_15  and  C_16
REMARK    6  A    between atoms: N_20  and  C_21
REMARK                            x       y       z     vdW  Elec       q    Type
REMARK                         _______ _______ _______ _____ _____    ______ ____
ROOT
ATOM      1  N   UNL     1      -0.288   1.272  -2.443  0.00  0.00    -0.278 N 
ATOM      2  C   UNL     1      -0.742   1.585  -1.213  0.00  0.00    +0.228 C 
ATOM      3  O   UNL     1      -1.736   2.268  -1.088  0.00  0.00    -0.275 OA
ATOM      4  H   UNL     1       0.507   0.726  -2.543  0.00  0.00    +0.155 HD
ENDROOT
BRANCH   1  11
ATOM      5  C   UNL     1      -3.350   2.834  -8.523  0.00  0.00    +0.001 C 
ATOM      6  C   UNL     1      -1.894   3.118  -8.158  0.00  0.00    +0.005 C 
ATOM      7  C   UNL     1      -1.296   1.939  -7.398  0.00  0.00    +0.037 C 
ATOM      8  C   UNL     1      -1.525   2.115  -5.902  0.00  0.00    -0.018 A 
ATOM      9  C   UNL     1      -2.558   2.830  -5.404  0.00  0.00    -0.004 A 
ATOM     10  S   UNL     1      -2.386   2.712  -3.644  0.00  0.00    -0.077 S 
ATOM     11  C   UNL     1      -0.960   1.732  -3.568  0.00  0.00    +0.090 A 
ATOM     12  C   UNL     1      -0.649   1.524  -4.901  0.00  0.00    +0.084 A 
ATOM     13  C   UNL     1      -3.609   3.573  -6.168  0.00  0.00    +0.043 C 
ATOM     14  C   UNL     1      -4.184   2.659  -7.258  0.00  0.00    +0.005 C 
BRANCH  12  15
ATOM     15  C   UNL     1       0.494   0.750  -5.282  0.00  0.00    +0.102 C 
ATOM     16  N   UNL     1       1.401   0.136  -5.585  0.00  0.00    -0.191 NA
ENDBRANCH  12  15
ENDBRANCH   1  11
BRANCH   2  17
ATOM     17  C   UNL     1      -0.013   1.086   0.008  0.00  0.00    +0.173 C 
BRANCH  17  18
ATOM     18  S   UNL     1      -0.860   1.669   1.497  0.00  0.00    -0.075 S 
BRANCH  18  19
ATOM     19  C   UNL     1       0.174   0.961   2.735  0.00  0.00    +0.210 A 
ATOM     20  N   UNL     1       1.242   0.220   2.532  0.00  0.00    -0.101 NA
ATOM     21  N   UNL     1       1.766  -0.131   3.650  0.00  0.00    -0.022 NA
ATOM     22  N   UNL     1       1.080   0.341   4.634  0.00  0.00    -0.043 NA
ATOM     23  N   UNL     1       0.016   1.071   4.075  0.00  0.00    -0.217 N 
BRANCH  23  24
ATOM     24  C   UNL     1      -1.037   1.796   4.790  0.00  0.00    +0.112 C 
ATOM     25  C   UNL     1      -0.412   2.857   5.719  0.00  0.00    +0.027 C 
ATOM     26  C   UNL     1      -1.315   2.840   6.978  0.00  0.00    +0.002 C 
ATOM     27  C   UNL     1      -1.649   1.335   7.139  0.00  0.00    +0.002 C 
ATOM     28  C   UNL     1      -1.824   0.829   5.692  0.00  0.00    +0.027 C 
ENDBRANCH  23  24
ENDBRANCH  18  19
ENDBRANCH  17  18
ENDBRANCH   2  17
TORSDOF 6
