REMARK  Name = ZINC63492551
REMARK  8 active torsions:
REMARK  status: ('A' for Active; 'I' for Inactive)
REMARK    1  A    between atoms: C_1  and  C_2
REMARK    2  A    between atoms: C_4  and  N_8
REMARK    3  A    between atoms: C_9  and  C_11
REMARK    4  A    between atoms: N_13  and  C_14
REMARK    5  A    between atoms: C_14  and  C_15
REMARK    6  A    between atoms: C_15  and  C_16
REMARK    7  A    between atoms: C_19  and  O_25
REMARK    8  A    between atoms: O_25  and  C_26
REMARK                            x       y       z     vdW  Elec       q    Type
REMARK                         _______ _______ _______ _____ _____    ______ ____
ROOT
ATOM      1  C   UNL     1      -1.441  -4.635   2.815  0.00  0.00    +0.299 C 
ATOM      2  O   UNL     1      -1.047  -4.030   3.790  0.00  0.00    -0.265 OA
ATOM      3  N   UNL     1      -1.991  -5.857   2.957  0.00  0.00    -0.307 N 
ATOM      4  H   UNL     1      -2.306  -6.341   2.177  0.00  0.00    +0.149 HD
ENDROOT
BRANCH   1   6
ATOM      5  N   UNL     1      -0.767  -2.803   1.314  0.00  0.00    -0.286 N 
ATOM      6  C   UNL     1      -1.317  -4.025   1.456  0.00  0.00    +0.300 C 
ATOM      7  O   UNL     1      -1.710  -4.630   0.481  0.00  0.00    -0.265 OA
ATOM      8  H   UNL     1      -0.452  -2.319   2.094  0.00  0.00    +0.151 HD
BRANCH   5  12
ATOM      9  C   UNL     1      -0.018   1.503   0.010  0.00  0.00    +0.088 C 
ATOM     10  C   UNL     1       0.002  -0.004   0.002  0.00  0.00    +0.121 C 
ATOM     11  C   UNL     1      -1.081  -0.752   0.003  0.00  0.00    +0.057 C 
ATOM     12  C   UNL     1      -0.645  -2.204  -0.017  0.00  0.00    +0.205 C 
ATOM     13  N   UNL     1       0.780  -2.110  -0.429  0.00  0.00    -0.131 NA
ATOM     14  O   UNL     1       1.137  -0.743  -0.013  0.00  0.00    -0.409 OA
ATOM     15  H   UNL     1       0.876  -2.217  -1.427  0.00  0.00    +0.170 HD
ENDBRANCH   5  12
ENDBRANCH   1   6
BRANCH   3  16
ATOM     16  C   UNL     1      -2.113  -6.455   4.289  0.00  0.00    +0.109 C 
BRANCH  16  17
ATOM     17  C   UNL     1      -2.765  -7.834   4.171  0.00  0.00    +0.052 C 
BRANCH  17  18
ATOM     18  C   UNL     1      -2.891  -8.450   5.540  0.00  0.00    -0.040 C 
ATOM     19  C   UNL     1      -3.972  -8.412   6.352  0.00  0.00    +0.002 A 
ATOM     20  C   UNL     1      -5.303  -7.812   6.211  0.00  0.00    +0.055 A 
ATOM     21  C   UNL     1      -6.202  -7.940   7.215  0.00  0.00    +0.121 A 
ATOM     22  C   UNL     1      -5.909  -8.633   8.402  0.00  0.00    +0.047 A 
ATOM     23  C   UNL     1      -4.713  -9.219   8.625  0.00  0.00    +0.029 A 
ATOM     24  C   UNL     1      -3.663  -9.143   7.603  0.00  0.00    +0.043 A 
ATOM     25  N   UNL     1      -2.442  -9.613   7.566  0.00  0.00    -0.380 N 
ATOM     26  C   UNL     1      -1.836  -9.239   6.283  0.00  0.00    +0.144 C 
ATOM     27  H   UNL     1      -2.010 -10.125   8.268  0.00  0.00    +0.160 HD
BRANCH  21  28
ATOM     28  O   UNL     1      -7.431  -7.378   7.071  0.00  0.00    -0.495 OA
ATOM     29  C   UNL     1      -8.349  -7.537   8.155  0.00  0.00    +0.277 C 
ENDBRANCH  21  28
ENDBRANCH  17  18
ENDBRANCH  16  17
ENDBRANCH   3  16
TORSDOF 6
