REMARK  Name = ZINC16790817
REMARK  9 active torsions:
REMARK  status: ('A' for Active; 'I' for Inactive)
REMARK    1  A    between atoms: C_1  and  C_2
REMARK    2  A    between atoms: C_5  and  C_8
REMARK    3  A    between atoms: C_8  and  N_9
REMARK    4  A    between atoms: C_10  and  C_12
REMARK    5  A    between atoms: C_12  and  C_14
REMARK    6  A    between atoms: C_12  and  S_15
REMARK    7  A    between atoms: S_15  and  C_16
REMARK    8  A    between atoms: C_19  and  C_22
REMARK    9  A    between atoms: N_20  and  N_21
REMARK                            x       y       z     vdW  Elec       q    Type
REMARK                         _______ _______ _______ _____ _____    ______ ____
ROOT
ATOM      1  C   UNL     1       3.137  -6.551  -0.051  0.00  0.00    +0.137 C 
ATOM      2  C   UNL     1       3.669  -6.604   1.383  0.00  0.00    +0.029 C 
ENDROOT
BRANCH   1   4
ATOM      3  N   UNL     1       1.447  -4.746  -0.032  0.00  0.00    -0.310 N 
ATOM      4  C   UNL     1       1.710  -6.067  -0.040  0.00  0.00    +0.226 C 
ATOM      5  O   UNL     1       0.799  -6.867  -0.040  0.00  0.00    -0.275 OA
ATOM      6  H   UNL     1       2.176  -4.106  -0.032  0.00  0.00    +0.149 HD
BRANCH   3   7
ATOM      7  C   UNL     1       0.059  -4.275  -0.021  0.00  0.00    +0.139 C 
BRANCH   7  12
ATOM      8  C   UNL     1      -0.018   1.503   0.010  0.00  0.00    +0.044 C 
ATOM      9  C   UNL     1       0.002  -0.004   0.002  0.00  0.00    -0.050 A 
ATOM     10  C   UNL     1       0.006  -0.689  -1.199  0.00  0.00    +0.003 A 
ATOM     11  C   UNL     1       0.025  -2.071  -1.206  0.00  0.00    +0.005 A 
ATOM     12  C   UNL     1       0.040  -2.768  -0.013  0.00  0.00    -0.030 A 
ATOM     13  C   UNL     1       0.037  -2.084   1.188  0.00  0.00    +0.005 A 
ATOM     14  C   UNL     1       0.023  -0.702   1.195  0.00  0.00    +0.003 A 
ENDBRANCH   7  12
ENDBRANCH   3   7
ENDBRANCH   1   4
BRANCH   1  15
ATOM     15  S   UNL     1       3.208  -8.210  -0.783  0.00  0.00    -0.072 S 
BRANCH  15  16
ATOM     16  C   UNL     1       4.931  -8.569  -0.860  0.00  0.00    +0.209 A 
ATOM     17  N   UNL     1       5.908  -7.787  -0.460  0.00  0.00    -0.121 NA
ATOM     18  N   UNL     1       7.042  -8.357  -0.660  0.00  0.00    -0.126 NA
ATOM     19  C   UNL     1       6.859  -9.541  -1.202  0.00  0.00    +0.188 A 
ATOM     20  N   UNL     1       5.500  -9.715  -1.341  0.00  0.00    -0.223 N 
BRANCH  19  21
ATOM     21  C   UNL     1       7.908 -10.501  -1.582  0.00  0.00    +0.058 A 
ATOM     22  C   UNL     1       9.231 -10.526  -1.219  0.00  0.00    +0.019 A 
ATOM     23  C   UNL     1      10.031 -11.535  -1.705  0.00  0.00    +0.008 A 
ATOM     24  C   UNL     1       9.490 -12.472  -2.526  0.00  0.00    +0.046 A 
ATOM     25  S   UNL     1       7.788 -11.942  -2.630  0.00  0.00    -0.093 S 
ENDBRANCH  19  21
BRANCH  20  26
ATOM     26  N   UNL     1       4.855 -10.804  -1.854  0.00  0.00    -0.295 N 
ATOM     27  H   UNL     1       4.726 -10.711  -2.851  0.00  0.00    +0.163 HD
ATOM     28  H   UNL     1       5.350 -11.655  -1.632  0.00  0.00    +0.163 HD
ENDBRANCH  20  26
ENDBRANCH  15  16
ENDBRANCH   1  15
TORSDOF 7
