REMARK  Name = ZINC35697780
REMARK  11 active torsions:
REMARK  status: ('A' for Active; 'I' for Inactive)
REMARK    1  A    between atoms: C_1  and  C_2
REMARK    2  A    between atoms: C_3  and  C_30
REMARK    3  A    between atoms: C_4  and  C_20
REMARK    4  A    between atoms: C_7  and  C_12
REMARK    5  A    between atoms: C_13  and  N_15
REMARK    6  A    between atoms: C_23  and  O_28
REMARK    7  A    between atoms: C_24  and  O_26
REMARK    8  A    between atoms: O_26  and  C_27
REMARK    9  A    between atoms: O_28  and  C_29
REMARK   10  A    between atoms: C_30  and  O_32
REMARK   11  A    between atoms: O_32  and  C_33
REMARK                            x       y       z     vdW  Elec       q    Type
REMARK                         _______ _______ _______ _____ _____    ______ ____
ROOT
ATOM      1  C   UNL     1      -0.179   1.607   0.359  0.00  0.00    +0.066 C 
ATOM      2  C   UNL     1      -0.129   0.101   0.319  0.00  0.00    +0.053 C 
ATOM      3  C   UNL     1      -1.305  -0.623   0.278  0.00  0.00    +0.082 C 
ATOM      4  C   UNL     1      -1.203  -2.132   0.239  0.00  0.00    +0.150 C 
ATOM      5  N   UNL     1       0.164  -2.718   0.248  0.00  0.00    -0.267 N 
ATOM      6  C   UNL     1       0.494  -4.058   0.217  0.00  0.00    +0.048 C 
ATOM      7  C   UNL     1       1.806  -4.382   0.233  0.00  0.00    +0.072 C 
ATOM      8  S   UNL     1       2.580  -2.778   0.290  0.00  0.00    -0.060 S 
ATOM      9  C   UNL     1       1.198  -1.825   0.291  0.00  0.00    +0.166 C 
ATOM     10  N   UNL     1       1.040  -0.518   0.319  0.00  0.00    -0.230 NA
ENDROOT
BRANCH   4  11
ATOM     11  C   UNL     1      -1.904  -2.612  -1.005  0.00  0.00    -0.018 A 
ATOM     12  C   UNL     1      -1.311  -2.439  -2.242  0.00  0.00    +0.009 A 
ATOM     13  C   UNL     1      -1.950  -2.878  -3.386  0.00  0.00    +0.050 A 
ATOM     14  C   UNL     1      -3.189  -3.494  -3.295  0.00  0.00    +0.162 A 
ATOM     15  C   UNL     1      -3.786  -3.668  -2.050  0.00  0.00    +0.162 A 
ATOM     16  C   UNL     1      -3.137  -3.230  -0.907  0.00  0.00    +0.055 A 
BRANCH  15  17
ATOM     17  O   UNL     1      -5.001  -4.271  -1.956  0.00  0.00    -0.491 OA
ATOM     18  C   UNL     1      -5.601  -4.321  -0.660  0.00  0.00    +0.277 C 
ENDBRANCH  15  17
BRANCH  14  19
ATOM     19  O   UNL     1      -3.819  -3.926  -4.420  0.00  0.00    -0.491 OA
ATOM     20  C   UNL     1      -3.147  -3.713  -5.663  0.00  0.00    +0.277 C 
ENDBRANCH  14  19
ENDBRANCH   4  11
BRANCH   6  21
ATOM     21  C   UNL     1      -0.546  -5.097   0.171  0.00  0.00    +0.091 C 
ATOM     22  C   UNL     1      -0.207  -6.395   0.289  0.00  0.00    +0.241 C 
ATOM     23  O   UNL     1       1.071  -6.737   0.583  0.00  0.00    -0.271 OA
BRANCH  22  24
ATOM     24  N   UNL     1      -1.163  -7.380   0.109  0.00  0.00    -0.298 N 
ATOM     25  C   UNL     1      -2.598  -7.149  -0.114  0.00  0.00    +0.108 C 
ATOM     26  C   UNL     1      -3.271  -8.533  -0.232  0.00  0.00    +0.020 C 
ATOM     27  C   UNL     1      -2.270  -9.470   0.495  0.00  0.00    +0.020 C 
ATOM     28  C   UNL     1      -0.911  -8.832   0.104  0.00  0.00    +0.108 C 
ENDBRANCH  22  24
ENDBRANCH   6  21
BRANCH   3  29
ATOM     29  C   UNL     1      -2.550   0.018   0.273  0.00  0.00    +0.339 C 
ATOM     30  O   UNL     1      -2.608   1.235   0.305  0.00  0.00    -0.245 OA
BRANCH  29  31
ATOM     31  O   UNL     1      -3.686  -0.713   0.232  0.00  0.00    -0.465 OA
ATOM     32  C   UNL     1      -4.920   0.007   0.229  0.00  0.00    +0.280 C 
ENDBRANCH  29  31
ENDBRANCH   3  29
TORSDOF 7
