REMARK  Name = ZINC58949796
REMARK  8 active torsions:
REMARK  status: ('A' for Active; 'I' for Inactive)
REMARK    1  A    between atoms: C_1  and  C_2
REMARK    2  A    between atoms: C_2  and  O_3
REMARK    3  A    between atoms: O_3  and  C_4
REMARK    4  A    between atoms: C_4  and  C_6
REMARK    5  A    between atoms: C_7  and  N_26
REMARK    6  A    between atoms: C_11  and  C_13
REMARK    7  A    between atoms: C_22  and  C_24
REMARK    8  A    between atoms: C_22  and  C_25
REMARK                            x       y       z     vdW  Elec       q    Type
REMARK                         _______ _______ _______ _____ _____    ______ ____
ROOT
ATOM      1  C   UNL     1      -2.787  -2.394   0.011  0.00  0.00    +0.106 C 
ATOM      2  C   UNL     1      -2.944  -3.740  -0.087  0.00  0.00    +0.195 C 
ATOM      3  O   UNL     1      -4.165  -4.297  -0.074  0.00  0.00    -0.446 OA
ATOM      4  C   UNL     1      -5.252  -3.564  -0.382  0.00  0.00    +0.115 C 
ATOM      5  C   UNL     1      -5.232  -2.221  -0.307  0.00  0.00    +0.046 C 
ATOM      6  C   UNL     1      -3.985  -1.495   0.141  0.00  0.00    +0.104 C 
ATOM      7  C   UNL     1      -6.365  -1.453  -0.639  0.00  0.00    +0.164 C 
ATOM      8  O   UNL     1      -6.314  -0.243  -0.543  0.00  0.00    -0.292 OA
ATOM      9  C   UNL     1      -7.637  -2.103  -1.109  0.00  0.00    +0.086 C 
ATOM     10  C   UNL     1      -7.291  -3.429  -1.796  0.00  0.00    -0.021 C 
ATOM     11  C   UNL     1      -6.503  -4.294  -0.812  0.00  0.00    +0.081 C 
ATOM     12  C   UNL     1      -6.440  -3.158  -3.039  0.00  0.00    +0.012 C 
ATOM     13  C   UNL     1      -8.579  -4.151  -2.198  0.00  0.00    +0.012 C 
ENDROOT
BRANCH   6  14
ATOM     14  C   UNL     1      -4.137  -1.071   1.579  0.00  0.00    +0.003 A 
ATOM     15  C   UNL     1      -4.127   0.177   2.107  0.00  0.00    +0.013 A 
ATOM     16  C   UNL     1      -4.286   0.330   3.471  0.00  0.00    +0.023 A 
ATOM     17  C   UNL     1      -4.448  -0.774   4.242  0.00  0.00    +0.055 A 
ATOM     18  S   UNL     1      -4.386  -2.083   3.029  0.00  0.00    -0.085 S 
ATOM     19 BR   UNL     1      -4.687  -0.896   6.114  0.00  0.00    -0.043 Br
ENDBRANCH   6  14
BRANCH   2  20
ATOM     20  N   UNL     1      -1.839  -4.540  -0.202  0.00  0.00    -0.329 N 
ATOM     21  H   UNL     1      -0.951  -4.154  -0.136  0.00  0.00    +0.145 HD
ATOM     22  H   UNL     1      -1.943  -5.493  -0.348  0.00  0.00    +0.145 HD
ENDBRANCH   2  20
BRANCH   1  23
ATOM     23  C   UNL     1      -1.498  -1.839  -0.003  0.00  0.00    +0.341 C 
ATOM     24  O   UNL     1      -1.065  -1.329  -1.021  0.00  0.00    -0.245 OA
BRANCH  23  25
ATOM     25  O   UNL     1      -0.737  -1.872   1.112  0.00  0.00    -0.462 OA
BRANCH  25  27
ATOM     26  C   UNL     1       1.273  -1.419   2.376  0.00  0.00    +0.048 C 
ATOM     27  C   UNL     1       0.565  -1.289   1.026  0.00  0.00    +0.229 C 
ENDBRANCH  25  27
ENDBRANCH  23  25
ENDBRANCH   1  23
TORSDOF 5
