REMARK  Name = ZINC12825170
REMARK  6 active torsions:
REMARK  status: ('A' for Active; 'I' for Inactive)
REMARK    1  A    between atoms: C_4  and  C_7
REMARK    2  A    between atoms: C_17  and  C_19
REMARK    3  A    between atoms: C_25  and  C_27
REMARK    4  A    between atoms: C_27  and  S_28
REMARK    5  A    between atoms: S_28  and  C_29
REMARK    6  A    between atoms: C_32  and  C_34
REMARK                            x       y       z     vdW  Elec       q    Type
REMARK                         _______ _______ _______ _____ _____    ______ ____
ROOT
ATOM      1  C   UNL     1       3.692  -0.680  -0.037  0.00  0.00    +0.013 C 
ATOM      2  C   UNL     1       3.717  -2.025   0.057  0.00  0.00    -0.024 C 
ATOM      3  C   UNL     1       2.428  -2.790   0.059  0.00  0.00    +0.037 C 
ATOM      4  C   UNL     1       2.585  -4.273   0.328  0.00  0.00    +0.005 C 
ATOM      5  C   UNL     1       3.889  -4.854  -0.213  0.00  0.00    +0.012 C 
ATOM      6  C   UNL     1       5.051  -4.174   0.512  0.00  0.00    +0.066 C 
ATOM      7  C   UNL     1       4.960  -2.694   0.147  0.00  0.00    +0.068 C 
ATOM      8  N   UNL     1       6.154  -2.256  -0.057  0.00  0.00    -0.181 NA
ATOM      9  N   UNL     1       7.120  -3.269  -0.106  0.00  0.00    -0.184 N 
ATOM     10  C   UNL     1       6.413  -4.580  -0.079  0.00  0.00    +0.140 C 
ATOM     11  C   UNL     1       8.455  -3.092  -0.152  0.00  0.00    +0.246 C 
ATOM     12  O   UNL     1       9.193  -4.054  -0.193  0.00  0.00    -0.273 OA
ENDROOT
BRANCH   1  16
ATOM     13  C   UNL     1       0.027   1.326  -0.776  0.00  0.00    +0.000 A 
ATOM     14  C   UNL     1       0.909   1.827   0.165  0.00  0.00    +0.001 A 
ATOM     15  C   UNL     1       2.102   1.181   0.411  0.00  0.00    +0.008 A 
ATOM     16  C   UNL     1       2.420   0.016  -0.293  0.00  0.00    -0.025 A 
ATOM     17  C   UNL     1       1.524  -0.484  -1.243  0.00  0.00    +0.008 A 
ATOM     18  C   UNL     1       0.335   0.173  -1.478  0.00  0.00    +0.001 A 
ENDBRANCH   1  16
BRANCH  10  19
ATOM     19  C   UNL     1       6.255  -5.120  -1.477  0.00  0.00    -0.024 A 
ATOM     20  C   UNL     1       6.119  -4.251  -2.543  0.00  0.00    +0.005 A 
ATOM     21  C   UNL     1       5.974  -4.747  -3.825  0.00  0.00    +0.000 A 
ATOM     22  C   UNL     1       5.968  -6.112  -4.042  0.00  0.00    +0.000 A 
ATOM     23  C   UNL     1       6.106  -6.981  -2.976  0.00  0.00    +0.000 A 
ATOM     24  C   UNL     1       6.254  -6.485  -1.694  0.00  0.00    +0.005 A 
ENDBRANCH  10  19
BRANCH  11  25
ATOM     25  C   UNL     1       9.032  -1.700  -0.151  0.00  0.00    +0.176 C 
BRANCH  25  26
ATOM     26  S   UNL     1      10.842  -1.794  -0.218  0.00  0.00    -0.056 S 
BRANCH  26  27
ATOM     27  C   UNL     1      11.358  -0.110  -0.211  0.00  0.00    +0.278 A 
ATOM     28  N   UNL     1      10.574   0.942  -0.160  0.00  0.00    -0.101 NA
ATOM     29  N   UNL     1      11.289   2.011  -0.172  0.00  0.00    -0.105 NA
ATOM     30  C   UNL     1      12.560   1.685  -0.230  0.00  0.00    +0.265 A 
ATOM     31  O   UNL     1      12.629   0.335  -0.250  0.00  0.00    -0.410 OA
BRANCH  30  32
ATOM     32  C   UNL     1      13.698   2.616  -0.261  0.00  0.00    +0.104 A 
ATOM     33  C   UNL     1      15.018   2.272  -0.328  0.00  0.00    +0.032 A 
ATOM     34  C   UNL     1      15.760   3.463  -0.336  0.00  0.00    +0.020 A 
ATOM     35  C   UNL     1      14.887   4.493  -0.275  0.00  0.00    +0.083 A 
ATOM     36  N   UNL     1      13.622   3.988  -0.235  0.00  0.00    -0.357 N 
ATOM     37  H   UNL     1      12.805   4.509  -0.193  0.00  0.00    +0.165 HD
ENDBRANCH  30  32
ENDBRANCH  26  27
ENDBRANCH  25  26
ENDBRANCH  11  25
TORSDOF 6
