REMARK  Name = ZINC12497229
REMARK  10 active torsions:
REMARK  status: ('A' for Active; 'I' for Inactive)
REMARK    1  A    between atoms: C_1  and  C_2
REMARK    2  A    between atoms: C_5  and  N_9
REMARK    3  A    between atoms: C_6  and  C_8
REMARK    4  A    between atoms: N_9  and  S_10
REMARK    5  A    between atoms: S_10  and  C_13
REMARK    6  A    between atoms: C_16  and  N_19
REMARK    7  A    between atoms: N_19  and  C_20
REMARK    8  A    between atoms: C_20  and  N_22
REMARK    9  A    between atoms: C_23  and  C_25
REMARK   10  A    between atoms: C_26  and  C_27
REMARK                            x       y       z     vdW  Elec       q    Type
REMARK                         _______ _______ _______ _____ _____    ______ ____
ROOT
ATOM      1  N   UNL     1      -1.898   1.534   0.487  0.00  0.00    -0.297 N 
ATOM      2  H   UNL     1      -1.226   1.948   1.051  0.00  0.00    +0.154 HD
ENDROOT
BRANCH   1   6
ATOM      3  C   UNL     1      -5.648   3.301   0.073  0.00  0.00    +0.109 A 
ATOM      4  C   UNL     1      -5.547   1.940   0.297  0.00  0.00    +0.030 A 
ATOM      5  C   UNL     1      -4.306   1.351   0.434  0.00  0.00    +0.025 A 
ATOM      6  C   UNL     1      -3.157   2.127   0.348  0.00  0.00    +0.033 A 
ATOM      7  C   UNL     1      -3.262   3.495   0.129  0.00  0.00    +0.025 A 
ATOM      8  C   UNL     1      -4.506   4.077  -0.014  0.00  0.00    +0.030 A 
BRANCH   3   9
ATOM      9  S   UNL     1      -7.234   4.049  -0.102  0.00  0.00    +0.072 S 
ATOM     10  O   UNL     1      -7.040   5.243  -0.847  0.00  0.00    -0.150 OA
ATOM     11  O   UNL     1      -8.121   3.023  -0.524  0.00  0.00    -0.150 OA
BRANCH   9  12
ATOM     12  N   UNL     1      -7.728   4.509   1.410  0.00  0.00    -0.216 N 
ATOM     13  H   UNL     1      -8.556   4.162   1.776  0.00  0.00    +0.174 HD
BRANCH  12  18
ATOM     14  C   UNL     1      -4.578   8.116   4.448  0.00  0.00    +0.044 C 
ATOM     15  C   UNL     1      -5.415   7.157   3.641  0.00  0.00    -0.050 A 
ATOM     16  C   UNL     1      -5.503   7.305   2.268  0.00  0.00    +0.005 A 
ATOM     17  C   UNL     1      -6.269   6.429   1.526  0.00  0.00    +0.025 A 
ATOM     18  C   UNL     1      -6.951   5.397   2.158  0.00  0.00    +0.051 A 
ATOM     19  C   UNL     1      -6.864   5.254   3.537  0.00  0.00    -0.028 A 
ATOM     20  C   UNL     1      -6.092   6.131   4.273  0.00  0.00    +0.008 A 
ATOM     21  C   UNL     1      -7.607   4.140   4.229  0.00  0.00    +0.046 C 
ENDBRANCH  12  18
ENDBRANCH   9  12
ENDBRANCH   3   9
ENDBRANCH   1   6
BRANCH   1  22
ATOM     22  C   UNL     1      -1.618   0.388  -0.164  0.00  0.00    +0.141 C 
ATOM     23  S   UNL     1      -2.836  -0.400  -1.073  0.00  0.00    -0.018 S 
BRANCH  22  24
ATOM     24  N   UNL     1      -0.379  -0.139  -0.099  0.00  0.00    -0.264 N 
ATOM     25  C   UNL     1      -0.100  -1.288  -0.745  0.00  0.00    +0.242 C 
ATOM     26  O   UNL     1      -0.966  -1.848  -1.391  0.00  0.00    -0.270 OA
ATOM     27  H   UNL     1       0.311   0.308   0.416  0.00  0.00    +0.157 HD
BRANCH  25  28
ATOM     28  C   UNL     1       1.242  -1.862  -0.669  0.00  0.00    +0.068 C 
ATOM     29  C   UNL     1       1.521  -3.015  -1.318  0.00  0.00    +0.013 C 
BRANCH  29  30
ATOM     30  C   UNL     1       2.868  -3.591  -1.242  0.00  0.00    -0.017 A 
ATOM     31  C   UNL     1       3.870  -2.963  -0.507  0.00  0.00    +0.008 A 
ATOM     32  C   UNL     1       5.143  -3.511  -0.438  0.00  0.00    +0.001 A 
ATOM     33  C   UNL     1       5.462  -4.670  -1.077  0.00  0.00    +0.008 A 
ATOM     34  C   UNL     1       4.501  -5.359  -1.837  0.00  0.00    -0.017 A 
ATOM     35  C   UNL     1       3.187  -4.841  -1.932  0.00  0.00    -0.011 A 
ATOM     36  C   UNL     1       2.225  -5.527  -2.683  0.00  0.00    +0.009 A 
ATOM     37  C   UNL     1       2.564  -6.690  -3.310  0.00  0.00    +0.001 A 
ATOM     38  C   UNL     1       3.854  -7.205  -3.214  0.00  0.00    +0.001 A 
ATOM     39  C   UNL     1       4.817  -6.557  -2.502  0.00  0.00    +0.008 A 
ENDBRANCH  29  30
ENDBRANCH  25  28
ENDBRANCH  22  24
ENDBRANCH   1  22
TORSDOF 8
