REMARK  Name = ZINC40040991
REMARK  10 active torsions:
REMARK  status: ('A' for Active; 'I' for Inactive)
REMARK    1  A    between atoms: C_1  and  C_2
REMARK    2  A    between atoms: C_2  and  C_3
REMARK    3  A    between atoms: C_17  and  C_19
REMARK    4  A    between atoms: C_22  and  O_25
REMARK    5  A    between atoms: O_25  and  C_26
REMARK    6  A    between atoms: C_26  and  C_27
REMARK    7  A    between atoms: C_33  and  C_35
REMARK    8  A    between atoms: C_35  and  C_36
REMARK    9  A    between atoms: C_36  and  C_37
REMARK   10  A    between atoms: C_36  and  C_38
REMARK                            x       y       z     vdW  Elec       q    Type
REMARK                         _______ _______ _______ _____ _____    ______ ____
ROOT
ATOM      1  C   UNL     1       0.707  -0.490  -1.238  0.00  0.00    -0.047 A 
ATOM      2  C   UNL     1      -0.016  -0.719  -2.400  0.00  0.00    +0.007 A 
ATOM      3  C   UNL     1       0.609  -1.165  -3.543  0.00  0.00    +0.047 A 
ATOM      4  C   UNL     1       1.985  -1.393  -3.544  0.00  0.00    +0.139 A 
ATOM      5  C   UNL     1       2.707  -1.153  -2.364  0.00  0.00    +0.065 A 
ATOM      6  C   UNL     1       2.058  -0.699  -1.216  0.00  0.00    +0.019 A 
ATOM      7  C   UNL     1       4.175  -1.378  -2.359  0.00  0.00    +0.199 A 
ATOM      8  O   UNL     1       4.850  -1.358  -1.345  0.00  0.00    -0.287 OA
ATOM      9  C   UNL     1       4.734  -1.627  -3.691  0.00  0.00    +0.072 A 
ATOM     10  C   UNL     1       3.921  -1.838  -4.769  0.00  0.00    +0.199 A 
ATOM     11  O   UNL     1       2.577  -1.839  -4.675  0.00  0.00    -0.450 OA
ATOM     12  C   UNL     1       4.769  -2.048  -5.954  0.00  0.00    +0.289 C 
ATOM     13  O   UNL     1       4.356  -2.259  -7.077  0.00  0.00    -0.266 OA
ATOM     14  N   UNL     1       6.072  -1.973  -5.612  0.00  0.00    -0.230 N 
ATOM     15  C   UNL     1       6.148  -1.705  -4.166  0.00  0.00    +0.151 C 
ATOM     16  C   UNL     1       7.151  -2.122  -6.472  0.00  0.00    +0.191 A 
ATOM     17  N   UNL     1       8.453  -2.070  -6.225  0.00  0.00    -0.125 NA
ATOM     18  N   UNL     1       9.310  -2.229  -7.136  0.00  0.00    -0.145 NA
ATOM     19  C   UNL     1       8.969  -2.457  -8.389  0.00  0.00    +0.104 A 
ATOM     20  S   UNL     1       7.185  -2.446  -8.233  0.00  0.00    -0.035 S 
ENDROOT
BRANCH  15  21
ATOM     21  C   UNL     1       6.871  -2.828  -3.467  0.00  0.00    -0.022 A 
ATOM     22  C   UNL     1       6.705  -4.130  -3.899  0.00  0.00    +0.009 A 
ATOM     23  C   UNL     1       7.366  -5.161  -3.260  0.00  0.00    +0.046 A 
ATOM     24  C   UNL     1       8.197  -4.888  -2.183  0.00  0.00    +0.121 A 
ATOM     25  C   UNL     1       8.362  -3.580  -1.751  0.00  0.00    +0.046 A 
ATOM     26  C   UNL     1       7.703  -2.552  -2.397  0.00  0.00    +0.009 A 
BRANCH  24  27
ATOM     27  O   UNL     1       8.848  -5.901  -1.552  0.00  0.00    -0.483 OA
BRANCH  27  28
ATOM     28  C   UNL     1       9.687  -5.546  -0.451  0.00  0.00    +0.324 C 
BRANCH  28  29
ATOM     29  C   UNL     1      10.320  -6.789   0.119  0.00  0.00    +0.248 C 
ATOM     30  O   UNL     1      10.077  -7.872  -0.370  0.00  0.00    -0.272 OA
ATOM     31  N   UNL     1      11.157  -6.697   1.171  0.00  0.00    -0.327 N 
ATOM     32  H   UNL     1      11.351  -5.831   1.562  0.00  0.00    +0.145 HD
ATOM     33  H   UNL     1      11.565  -7.497   1.538  0.00  0.00    +0.145 HD
ENDBRANCH  28  29
ENDBRANCH  27  28
ENDBRANCH  24  27
ENDBRANCH  15  21
BRANCH   1  35
ATOM     34  C   UNL     1      -0.019   1.526   0.010  0.00  0.00    +0.009 C 
ATOM     35  C   UNL     1       0.002  -0.004   0.002  0.00  0.00    +0.032 C 
ENDBRANCH   1  35
BRANCH  19  36
ATOM     36  C   UNL     1       9.833  -2.671  -9.605  0.00  0.00    +0.068 C 
BRANCH  36  37
ATOM     37  C   UNL     1      10.133  -4.163  -9.761  0.00  0.00    -0.011 C 
ATOM     38  C   UNL     1      10.905  -4.395 -11.061  0.00  0.00    +0.007 C 
ATOM     39  C   UNL     1      10.975  -4.641  -8.576  0.00  0.00    +0.007 C 
ENDBRANCH  36  37
ENDBRANCH  19  36
TORSDOF 7
