REMARK  Name = ZINC63879054
REMARK  10 active torsions:
REMARK  status: ('A' for Active; 'I' for Inactive)
REMARK    1  A    between atoms: C_1  and  C_2
REMARK    2  A    between atoms: C_2  and  O_3
REMARK    3  A    between atoms: O_3  and  C_4
REMARK    4  A    between atoms: C_6  and  C_15
REMARK    5  A    between atoms: C_9  and  O_10
REMARK    6  A    between atoms: O_10  and  C_11
REMARK    7  A    between atoms: C_11  and  C_12
REMARK    8  A    between atoms: C_12  and  C_13
REMARK    9  A    between atoms: C_12  and  C_14
REMARK   10  A    between atoms: C_27  and  C_31
REMARK                            x       y       z     vdW  Elec       q    Type
REMARK                         _______ _______ _______ _____ _____    ______ ____
ROOT
ATOM      1  C   UNL     1      -0.229  -4.969   0.477  0.00  0.00    +0.111 C 
ATOM      2  C   UNL     1       0.885  -5.483   1.392  0.00  0.00    +0.128 C 
ATOM      3  C   UNL     1       0.247  -6.540   2.287  0.00  0.00    -0.028 C 
ATOM      4  C   UNL     1       0.515  -6.185   3.536  0.00  0.00    -0.000 A 
ATOM      5  C   UNL     1       0.242  -6.843   4.824  0.00  0.00    +0.010 A 
ATOM      6  C   UNL     1       0.652  -6.178   5.936  0.00  0.00    +0.001 A 
ATOM      7  C   UNL     1       1.297  -4.938   5.897  0.00  0.00    +0.002 A 
ATOM      8  C   UNL     1       1.593  -4.263   4.758  0.00  0.00    +0.026 A 
ATOM      9  C   UNL     1       1.217  -4.865   3.522  0.00  0.00    +0.043 A 
ATOM     10  N   UNL     1       1.404  -4.448   2.284  0.00  0.00    -0.376 N 
ATOM     11  C   UNL     1      -0.588  -7.661   1.718  0.00  0.00    +0.061 C 
ATOM     12  C   UNL     1      -1.572  -7.006   0.732  0.00  0.00    +0.094 C 
ATOM     13  N   UNL     1      -0.851  -6.123  -0.190  0.00  0.00    -0.307 NA
ATOM     14  H   UNL     1      -1.448  -5.825  -0.947  0.00  0.00    +0.123 HD
ATOM     15  H   UNL     1       1.805  -3.609   2.008  0.00  0.00    +0.160 HD
ENDROOT
BRANCH   1  18
ATOM     16  C   UNL     1       0.777  -1.811  -1.336  0.00  0.00    +0.162 A 
ATOM     17  C   UNL     1       0.243  -2.669  -0.388  0.00  0.00    +0.054 A 
ATOM     18  C   UNL     1       0.352  -4.037  -0.555  0.00  0.00    -0.024 A 
ATOM     19  C   UNL     1       0.992  -4.552  -1.667  0.00  0.00    +0.009 A 
ATOM     20  C   UNL     1       1.526  -3.702  -2.616  0.00  0.00    +0.050 A 
ATOM     21  C   UNL     1       1.416  -2.330  -2.458  0.00  0.00    +0.162 A 
BRANCH  16  22
ATOM     22  O   UNL     1       0.671  -0.465  -1.174  0.00  0.00    -0.489 OA
BRANCH  22  24
ATOM     23  C   UNL     1      -0.019   1.526   0.010  0.00  0.00    +0.048 C 
ATOM     24  C   UNL     1       0.002  -0.004   0.002  0.00  0.00    +0.226 C 
ENDBRANCH  22  24
ENDBRANCH  16  22
BRANCH  21  25
ATOM     25  O   UNL     1       1.936  -1.492  -3.394  0.00  0.00    -0.488 OA
BRANCH  25  26
ATOM     26  C   UNL     1       2.578  -2.095  -4.520  0.00  0.00    +0.232 C 
BRANCH  26  27
ATOM     27  C   UNL     1       3.096  -1.002  -5.457  0.00  0.00    +0.020 C 
ATOM     28  C   UNL     1       4.190  -0.200  -4.750  0.00  0.00    +0.010 C 
ATOM     29  C   UNL     1       3.672  -1.645  -6.721  0.00  0.00    +0.010 C 
ENDBRANCH  26  27
ENDBRANCH  25  26
ENDBRANCH  21  25
ENDBRANCH   1  18
BRANCH  11  30
ATOM     30  C   UNL     1       0.293  -8.647   0.996  0.00  0.00    -0.039 A 
ATOM     31  C   UNL     1       1.062  -8.232  -0.076  0.00  0.00    +0.004 A 
ATOM     32  C   UNL     1       1.871  -9.137  -0.738  0.00  0.00    +0.000 A 
ATOM     33  C   UNL     1       1.911 -10.457  -0.329  0.00  0.00    +0.000 A 
ATOM     34  C   UNL     1       1.143 -10.872   0.743  0.00  0.00    +0.000 A 
ATOM     35  C   UNL     1       0.338  -9.966   1.408  0.00  0.00    +0.004 A 
ENDBRANCH  11  30
TORSDOF 7
