REMARK  Name = ZINC20573353
REMARK  10 active torsions:
REMARK  status: ('A' for Active; 'I' for Inactive)
REMARK    1  A    between atoms: C_1  and  C_2
REMARK    2  A    between atoms: C_2  and  C_3
REMARK    3  A    between atoms: C_3  and  C_5
REMARK    4  A    between atoms: C_3  and  N_30
REMARK    5  A    between atoms: C_7  and  C_21
REMARK    6  A    between atoms: C_21  and  S_22
REMARK    7  A    between atoms: S_22  and  C_23
REMARK    8  A    between atoms: N_30  and  C_31
REMARK    9  A    between atoms: C_31  and  C_32
REMARK   10  A    between atoms: C_32  and  C_33
REMARK                            x       y       z     vdW  Elec       q    Type
REMARK                         _______ _______ _______ _____ _____    ______ ____
ROOT
ATOM      1  C   UNL     1       0.389  -1.989  -1.548  0.00  0.00    +0.110 C 
ATOM      2  C   UNL     1      -1.089  -2.313  -1.600  0.00  0.00    +0.058 C 
ATOM      3  N   UNL     1      -1.332  -3.119  -0.641  0.00  0.00    -0.178 NA
ATOM      4  N   UNL     1      -0.204  -3.429   0.113  0.00  0.00    -0.135 N 
ATOM      5  C   UNL     1       0.891  -2.791  -0.362  0.00  0.00    +0.248 C 
ATOM      6  O   UNL     1       2.025  -2.847   0.065  0.00  0.00    -0.273 OA
ATOM      7  C   UNL     1      -0.202  -4.280   1.208  0.00  0.00    +0.189 A 
ATOM      8  N   UNL     1       0.802  -4.626   1.980  0.00  0.00    -0.223 NA
ATOM      9  C   UNL     1       0.658  -5.473   3.021  0.00  0.00    +0.080 A 
ATOM     10  C   UNL     1       1.650  -5.924   3.923  0.00  0.00    +0.029 A 
ATOM     11  C   UNL     1       1.333  -6.792   4.935  0.00  0.00    +0.002 A 
ATOM     12  C   UNL     1       0.038  -7.259   5.111  0.00  0.00    +0.001 A 
ATOM     13  C   UNL     1      -0.956  -6.839   4.247  0.00  0.00    +0.017 A 
ATOM     14  C   UNL     1      -0.649  -5.969   3.231  0.00  0.00    +0.041 A 
ATOM     15  S   UNL     1      -1.566  -5.180   1.931  0.00  0.00    -0.050 S 
ENDROOT
BRANCH   1  16
ATOM     16  C   UNL     1       0.605  -0.492  -1.315  0.00  0.00    -0.054 C 
BRANCH  16  17
ATOM     17  N   UNL     1       2.043  -0.196  -1.337  0.00  0.00    +0.382 N 
ATOM     18  H   UNL     1       2.191   0.772  -1.094  0.00  0.00    -0.085 HD
ATOM     19  H   UNL     1       2.519  -0.786  -0.671  0.00  0.00    -0.085 HD
BRANCH  17  20
ATOM     20  C   UNL     1       2.575  -0.449  -2.683  0.00  0.00    -0.076 C 
BRANCH  20  21
ATOM     21  C   UNL     1       4.041  -0.016  -2.742  0.00  0.00    +0.038 C 
BRANCH  21  22
ATOM     22  C   UNL     1       4.587  -0.276  -4.122  0.00  0.00    +0.057 A 
ATOM     23  C   UNL     1       5.182   0.630  -4.922  0.00  0.00    +0.107 A 
ATOM     24  N   UNL     1       5.523  -0.023  -6.075  0.00  0.00    -0.351 N 
ATOM     25  H   UNL     1       5.968   0.364  -6.845  0.00  0.00    +0.166 HD
ATOM     26  C   UNL     1       5.125  -1.306  -5.941  0.00  0.00    +0.196 A 
ATOM     27  N   UNL     1       4.570  -1.451  -4.768  0.00  0.00    -0.241 NA
ENDBRANCH  21  22
ENDBRANCH  20  21
ENDBRANCH  17  20
ENDBRANCH  16  17
BRANCH  16  29
ATOM     28  C   UNL     1       0.121   1.418   0.220  0.00  0.00    +0.002 C 
ATOM     29  C   UNL     1       0.023  -0.099   0.044  0.00  0.00    -0.018 C 
ENDBRANCH  16  29
ENDBRANCH   1  16
BRANCH   2  30
ATOM     30  C   UNL     1      -2.087  -1.783  -2.597  0.00  0.00    +0.127 C 
BRANCH  30  31
ATOM     31  S   UNL     1      -3.727  -2.469  -2.235  0.00  0.00    -0.119 S 
BRANCH  31  32
ATOM     32  C   UNL     1      -4.766  -1.763  -3.471  0.00  0.00    +0.008 A 
ATOM     33  C   UNL     1      -4.232  -0.900  -4.420  0.00  0.00    +0.016 A 
ATOM     34  C   UNL     1      -5.049  -0.348  -5.387  0.00  0.00    +0.021 A 
ATOM     35  C   UNL     1      -6.398  -0.654  -5.412  0.00  0.00    +0.041 A 
ATOM     36  C   UNL     1      -6.933  -1.514  -4.468  0.00  0.00    +0.021 A 
ATOM     37  C   UNL     1      -6.120  -2.073  -3.502  0.00  0.00    +0.016 A 
ATOM     38 CL   UNL     1      -7.422   0.041  -6.628  0.00  0.00    -0.084 Cl
ENDBRANCH  31  32
ENDBRANCH  30  31
ENDBRANCH   2  30
TORSDOF 9
