REMARK  Name = ZINC63383506
REMARK  8 active torsions:
REMARK  status: ('A' for Active; 'I' for Inactive)
REMARK    1  A    between atoms: C_1  and  C_2
REMARK    2  A    between atoms: C_2  and  C_3
REMARK    3  A    between atoms: C_2  and  C_4
REMARK    4  A    between atoms: C_4  and  C_5
REMARK    5  A    between atoms: C_5  and  C_7
REMARK    6  A    between atoms: C_5  and  N_16
REMARK    7  A    between atoms: N_9  and  C_10
REMARK    8  A    between atoms: C_17  and  C_19
REMARK                            x       y       z     vdW  Elec       q    Type
REMARK                         _______ _______ _______ _____ _____    ______ ____
ROOT
ATOM      1  C   UNL     1       2.749   3.291   0.246  0.00  0.00    +0.167 C 
ATOM      2  C   UNL     1       4.109   3.534   0.928  0.00  0.00    +0.065 C 
ATOM      3  C   UNL     1       3.837   4.320   2.187  0.00  0.00    -0.034 C 
ATOM      4  C   UNL     1       4.217   4.098   3.442  0.00  0.00    -0.001 A 
ATOM      5  C   UNL     1       5.105   3.082   4.029  0.00  0.00    +0.010 A 
ATOM      6  C   UNL     1       5.266   3.135   5.378  0.00  0.00    +0.001 A 
ATOM      7  C   UNL     1       4.639   4.084   6.191  0.00  0.00    +0.002 A 
ATOM      8  C   UNL     1       3.812   5.058   5.735  0.00  0.00    +0.026 A 
ATOM      9  C   UNL     1       3.572   5.111   4.331  0.00  0.00    +0.043 A 
ATOM     10  N   UNL     1       2.853   5.937   3.631  0.00  0.00    -0.375 N 
ATOM     11  C   UNL     1       2.996   5.589   2.217  0.00  0.00    +0.131 C 
ATOM     12  C   UNL     1       1.652   5.259   1.569  0.00  0.00    +0.134 C 
ATOM     13  N   UNL     1       1.700   3.858   1.103  0.00  0.00    -0.276 N 
ATOM     14  C   UNL     1       0.640   3.202   1.612  0.00  0.00    +0.248 C 
ATOM     15  O   UNL     1       0.323   2.063   1.327  0.00  0.00    -0.270 OA
ATOM     16  C   UNL     1      -0.075   4.059   2.559  0.00  0.00    +0.042 A 
ATOM     17  C   UNL     1       0.532   5.342   2.553  0.00  0.00    -0.013 A 
ATOM     18  C   UNL     1       0.081   6.372   3.347  0.00  0.00    +0.006 A 
ATOM     19  C   UNL     1      -1.015   6.107   4.163  0.00  0.00    +0.000 A 
ATOM     20  C   UNL     1      -1.629   4.871   4.179  0.00  0.00    +0.001 A 
ATOM     21  C   UNL     1      -1.177   3.796   3.377  0.00  0.00    +0.013 A 
ATOM     22  H   UNL     1       2.313   6.661   3.986  0.00  0.00    +0.160 HD
ENDROOT
BRANCH   1  24
ATOM     23  N   UNL     1       2.496   1.270  -1.157  0.00  0.00    -0.302 N 
ATOM     24  C   UNL     1       2.522   1.811   0.077  0.00  0.00    +0.235 C 
ATOM     25  O   UNL     1       2.363   1.106   1.051  0.00  0.00    -0.274 OA
ATOM     26  H   UNL     1       2.695   1.819  -1.932  0.00  0.00    +0.150 HD
BRANCH  23  27
ATOM     27  C   UNL     1       2.167  -0.147  -1.329  0.00  0.00    +0.159 C 
BRANCH  27  28
ATOM     28  C   UNL     1       2.849  -0.675  -2.566  0.00  0.00    +0.234 C 
ATOM     29  O   UNL     1       3.240   0.095  -3.418  0.00  0.00    -0.274 OA
ATOM     30  N   UNL     1       3.024  -2.002  -2.724  0.00  0.00    -0.311 N 
ATOM     31  H   UNL     1       2.650  -2.621  -2.079  0.00  0.00    +0.149 HD
BRANCH  30  32
ATOM     32  C   UNL     1       3.780  -2.509  -3.872  0.00  0.00    +0.073 C 
ATOM     33  C   UNL     1       2.850  -2.635  -5.080  0.00  0.00    +0.022 C 
ATOM     34  C   UNL     1       3.640  -3.164  -6.279  0.00  0.00    +0.002 C 
ATOM     35  C   UNL     1       4.224  -4.537  -5.939  0.00  0.00    +0.000 C 
ATOM     36  C   UNL     1       5.154  -4.410  -4.731  0.00  0.00    +0.002 C 
ATOM     37  C   UNL     1       4.365  -3.881  -3.532  0.00  0.00    +0.022 C 
ENDBRANCH  30  32
ENDBRANCH  27  28
BRANCH  27  38
ATOM     38  C   UNL     1       0.653  -0.306  -1.475  0.00  0.00    +0.034 C 
BRANCH  38  40
ATOM     39  C   UNL     1       0.605  -2.433  -0.166  0.00  0.00    +0.007 C 
ATOM     40  C   UNL     1       0.297  -1.793  -1.521  0.00  0.00    -0.015 C 
ATOM     41  C   UNL     1      -1.192  -1.952  -1.834  0.00  0.00    +0.007 C 
ENDBRANCH  38  40
ENDBRANCH  27  38
ENDBRANCH  23  27
ENDBRANCH   1  24
TORSDOF 6
