REMARK  Name = ZINC20912513
REMARK  4 active torsions:
REMARK  status: ('A' for Active; 'I' for Inactive)
REMARK    1  A    between atoms: C_1  and  C_2
REMARK    2  A    between atoms: C_3  and  C_8
REMARK    3  A    between atoms: C_14  and  C_17
REMARK    4  A    between atoms: C_17  and  C_18
REMARK                            x       y       z     vdW  Elec       q    Type
REMARK                         _______ _______ _______ _____ _____    ______ ____
ROOT
ATOM      1  C   UNL     1      -0.032   1.249  -0.063  0.00  0.00    +0.285 C 
ATOM      2  O   UNL     1      -0.129   0.046   0.096  0.00  0.00    -0.267 OA
ATOM      3  N   UNL     1      -1.137   1.992  -0.278  0.00  0.00    -0.290 N 
ATOM      4  C   UNL     1      -1.037   3.428  -0.580  0.00  0.00    +0.136 C 
ATOM      5  C   UNL     1      -1.982   4.187   0.360  0.00  0.00    +0.179 C 
ATOM      6  O   UNL     1      -3.287   3.610   0.280  0.00  0.00    -0.373 OA
ATOM      7  C   UNL     1      -3.352   2.247   0.705  0.00  0.00    +0.136 C 
ATOM      8  C   UNL     1      -2.478   1.388  -0.223  0.00  0.00    +0.139 C 
ENDROOT
BRANCH   1  11
ATOM      9  C   UNL     1       1.348   1.583  -2.464  0.00  0.00    +0.089 C 
ATOM     10  C   UNL     1       1.962   2.054  -1.171  0.00  0.00    +0.141 C 
ATOM     11  C   UNL     1       1.284   1.889  -0.027  0.00  0.00    +0.220 C 
ATOM     12  O   UNL     1       1.787   2.308   1.167  0.00  0.00    -0.481 OA
ATOM     13  C   UNL     1       3.196   2.574   1.208  0.00  0.00    +0.270 C 
ATOM     14  C   UNL     1       3.559   3.391  -0.040  0.00  0.00    +0.269 C 
ATOM     15  O   UNL     1       3.183   2.631  -1.194  0.00  0.00    -0.489 OA
ENDBRANCH   1  11
BRANCH   7  16
ATOM     16  C   UNL     1      -4.800   1.758   0.636  0.00  0.00    +0.036 C 
BRANCH  16  17
ATOM     17  C   UNL     1      -5.650   2.536   1.643  0.00  0.00    -0.008 C 
ATOM     18  C   UNL     1      -5.181   2.212   3.063  0.00  0.00    +0.003 C 
ATOM     19  C   UNL     1      -6.030   2.990   4.070  0.00  0.00    +0.000 C 
ATOM     20  C   UNL     1      -7.499   2.591   3.915  0.00  0.00    +0.000 C 
ATOM     21  C   UNL     1      -7.968   2.914   2.495  0.00  0.00    +0.000 C 
ATOM     22  C   UNL     1      -7.119   2.137   1.488  0.00  0.00    +0.003 C 
ENDBRANCH  16  17
ENDBRANCH   7  16
TORSDOF 3
