REMARK  Name = ZINC66147080
REMARK  11 active torsions:
REMARK  status: ('A' for Active; 'I' for Inactive)
REMARK    1  A    between atoms: C_1  and  C_2
REMARK    2  A    between atoms: C_2  and  C_3
REMARK    3  A    between atoms: C_3  and  C_4
REMARK    4  A    between atoms: C_3  and  C_6
REMARK    5  A    between atoms: C_4  and  C_5
REMARK    6  A    between atoms: C_6  and  C_8
REMARK    7  A    between atoms: C_6  and  N_24
REMARK    8  A    between atoms: C_8  and  N_9
REMARK    9  A    between atoms: C_10  and  C_12
REMARK   10  A    between atoms: C_14  and  C_23
REMARK   11  A    between atoms: N_20  and  C_22
REMARK                            x       y       z     vdW  Elec       q    Type
REMARK                         _______ _______ _______ _____ _____    ______ ____
ROOT
ATOM      1  N   UNL     1       1.168  -4.304  -2.138  0.00  0.00    -0.312 N 
ATOM      2  C   UNL     1       1.885  -5.201  -2.844  0.00  0.00    +0.265 C 
ATOM      3  O   UNL     1       2.752  -4.821  -3.606  0.00  0.00    -0.268 OA
ATOM      4  H   UNL     1       0.476  -4.607  -1.529  0.00  0.00    +0.149 HD
ENDROOT
BRANCH   2   5
ATOM      5  C   UNL     1       1.618  -6.645  -2.691  0.00  0.00    +0.158 A 
ATOM      6  C   UNL     1       0.735  -7.338  -3.646  0.00  0.00    +0.081 A 
ATOM      7  C   UNL     1       0.025  -6.974  -4.743  0.00  0.00    +0.144 A 
ATOM      8  O   UNL     1      -0.604  -8.058  -5.214  0.00  0.00    -0.359 OA
ATOM      9  N   UNL     1      -0.298  -9.174  -4.396  0.00  0.00    -0.072 NA
ATOM     10  C   UNL     1       0.503  -8.780  -3.446  0.00  0.00    +0.181 A 
ATOM     11  C   UNL     1       1.174  -9.424  -2.299  0.00  0.00    +0.296 A 
ATOM     12  O   UNL     1       1.023 -10.611  -2.081  0.00  0.00    -0.264 OA
ATOM     13  N   UNL     1       1.958  -8.674  -1.498  0.00  0.00    -0.230 N 
ATOM     14  N   UNL     1       2.167  -7.314  -1.710  0.00  0.00    -0.163 NA
ATOM     15  C   UNL     1       2.621  -9.318  -0.362  0.00  0.00    +0.176 C 
ATOM     16  C   UNL     1      -0.043  -5.588  -5.331  0.00  0.00    +0.090 C 
ENDBRANCH   2   5
BRANCH   1  17
ATOM     17  C   UNL     1       1.433  -2.872  -2.289  0.00  0.00    +0.089 C 
BRANCH  17  18
ATOM     18  C   UNL     1       0.394  -2.074  -1.499  0.00  0.00    -0.048 C 
BRANCH  18  19
ATOM     19  N   UNL     1      -0.926  -2.236  -2.124  0.00  0.00    +0.383 N 
ATOM     20  C   UNL     1      -1.290  -3.674  -2.187  0.00  0.00    -0.078 C 
ATOM     21  C   UNL     1      -2.833  -3.644  -2.313  0.00  0.00    -0.020 C 
ATOM     22  C   UNL     1      -3.232  -2.462  -1.401  0.00  0.00    -0.020 C 
ATOM     23  C   UNL     1      -1.966  -1.593  -1.292  0.00  0.00    -0.078 C 
ATOM     24  H   UNL     1      -0.924  -1.835  -3.050  0.00  0.00    -0.081 HD
ENDBRANCH  18  19
BRANCH  18  25
ATOM     25  C   UNL     1       0.780  -0.593  -1.499  0.00  0.00    -0.024 C 
BRANCH  25  27
ATOM     26  C   UNL     1       1.129   1.415  -2.944  0.00  0.00    +0.004 C 
ATOM     27  C   UNL     1       0.588  -0.016  -2.903  0.00  0.00    -0.002 C 
ENDBRANCH  25  27
BRANCH  25  28
ATOM     28  C   UNL     1      -0.108   0.165  -0.510  0.00  0.00    -0.002 C 
ATOM     29  C   UNL     1       0.097  -0.400   0.897  0.00  0.00    +0.004 C 
ENDBRANCH  25  28
ENDBRANCH  18  25
ENDBRANCH  17  18
ENDBRANCH   1  17
TORSDOF 7
