REMARK  Name = ZINC33365537
REMARK  7 active torsions:
REMARK  status: ('A' for Active; 'I' for Inactive)
REMARK    1  A    between atoms: C_6  and  S_7
REMARK    2  A    between atoms: S_7  and  C_8
REMARK    3  A    between atoms: C_10  and  C_20
REMARK    4  A    between atoms: C_13  and  C_14
REMARK    5  A    between atoms: N_15  and  N_16
REMARK    6  A    between atoms: N_16  and  C_17
REMARK    7  A    between atoms: C_17  and  N_19
REMARK                            x       y       z     vdW  Elec       q    Type
REMARK                         _______ _______ _______ _____ _____    ______ ____
ROOT
ATOM      1  C   UNL     1      -1.005  -2.585  -0.163  0.00  0.00    +0.040 A 
ATOM      2  C   UNL     1       0.346  -2.920  -0.159  0.00  0.00    +0.031 A 
ATOM      3  C   UNL     1       0.696  -4.253  -0.304  0.00  0.00    +0.074 A 
ATOM      4  C   UNL     1      -0.296  -5.208  -0.446  0.00  0.00    +0.124 A 
ATOM      5  N   UNL     1      -1.569  -4.871  -0.447  0.00  0.00    -0.252 NA
ATOM      6  C   UNL     1      -1.957  -3.607  -0.306  0.00  0.00    +0.097 A 
ENDROOT
BRANCH   3   7
ATOM      7  C   UNL     1       2.147  -4.660  -0.306  0.00  0.00    +0.419 C 
ATOM      8  F   UNL     1       2.555  -4.939   1.002  0.00  0.00    -0.166 F 
ATOM      9  F   UNL     1       2.310  -5.802  -1.098  0.00  0.00    -0.166 F 
ATOM     10  F   UNL     1       2.923  -3.618  -0.825  0.00  0.00    -0.166 F 
ENDBRANCH   3   7
BRANCH   6  11
ATOM     11  C   UNL     1      -3.392  -3.277  -0.307  0.00  0.00    +0.159 C 
ATOM     12  N   UNL     1      -4.277  -4.228  -0.322  0.00  0.00    -0.187 NA
BRANCH  12  13
ATOM     13  N   UNL     1      -3.869  -5.562  -0.451  0.00  0.00    -0.219 N 
ATOM     14  H   UNL     1      -2.925  -5.784  -0.446  0.00  0.00    +0.176 HD
BRANCH  13  15
ATOM     15  C   UNL     1      -4.790  -6.538  -0.581  0.00  0.00    +0.147 C 
ATOM     16  S   UNL     1      -4.292  -8.168  -0.738  0.00  0.00    -0.017 S 
BRANCH  15  17
ATOM     17  N   UNL     1      -6.102  -6.230  -0.587  0.00  0.00    -0.339 N 
ATOM     18  H   UNL     1      -6.384  -5.306  -0.498  0.00  0.00    +0.144 HD
ATOM     19  H   UNL     1      -6.765  -6.933  -0.681  0.00  0.00    +0.144 HD
ENDBRANCH  15  17
ENDBRANCH  13  15
ENDBRANCH  12  13
ENDBRANCH   6  11
BRANCH   1  20
ATOM     20  S   UNL     1      -1.513  -0.908   0.018  0.00  0.00    -0.087 S 
BRANCH  20  26
ATOM     21  C   UNL     1       0.586   0.375  -1.183  0.00  0.00    +0.016 A 
ATOM     22  C   UNL     1       1.770   1.084  -1.178  0.00  0.00    +0.021 A 
ATOM     23  C   UNL     1       2.373   1.419   0.022  0.00  0.00    +0.041 A 
ATOM     24  C   UNL     1       1.791   1.045   1.220  0.00  0.00    +0.021 A 
ATOM     25  C   UNL     1       0.606   0.336   1.222  0.00  0.00    +0.016 A 
ATOM     26  C   UNL     1      -0.001  -0.003   0.019  0.00  0.00    +0.013 A 
ATOM     27 CL   UNL     1       3.863   2.311   0.023  0.00  0.00    -0.084 Cl
ENDBRANCH  20  26
ENDBRANCH   1  20
TORSDOF 7
