REMARK  Name = ZINC14459523
REMARK  9 active torsions:
REMARK  status: ('A' for Active; 'I' for Inactive)
REMARK    1  A    between atoms: C_1  and  O_2
REMARK    2  A    between atoms: O_2  and  C_3
REMARK    3  A    between atoms: C_7  and  C_10
REMARK    4  A    between atoms: C_8  and  O_9
REMARK    5  A    between atoms: C_21  and  S_26
REMARK    6  A    between atoms: S_26  and  N_29
REMARK    7  A    between atoms: N_29  and  C_30
REMARK    8  A    between atoms: C_30  and  C_31
REMARK    9  A    between atoms: C_31  and  C_32
REMARK                            x       y       z     vdW  Elec       q    Type
REMARK                         _______ _______ _______ _____ _____    ______ ____
ROOT
ATOM      1  C   UNL     1      -2.620   3.995   0.367  0.00  0.00    +0.109 C 
ATOM      2  C   UNL     1      -2.979   4.023   1.856  0.00  0.00    +0.029 C 
ATOM      3  C   UNL     1      -3.369   2.573   2.266  0.00  0.00    +0.033 C 
ATOM      4  C   UNL     1      -4.817   2.462   1.828  0.00  0.00    -0.030 C 
ATOM      5  C   UNL     1      -5.354   3.652   1.714  0.00  0.00    -0.023 C 
ATOM      6  C   UNL     1      -4.340   4.718   2.054  0.00  0.00    +0.049 C 
ATOM      7  C   UNL     1      -4.508   5.928   1.191  0.00  0.00    -0.018 A 
ATOM      8  C   UNL     1      -5.568   6.788   1.448  0.00  0.00    +0.034 A 
ATOM      9  C   UNL     1      -5.756   7.919   0.681  0.00  0.00    +0.106 A 
ATOM     10  C   UNL     1      -4.889   8.210  -0.356  0.00  0.00    +0.030 A 
ATOM     11  C   UNL     1      -3.832   7.362  -0.623  0.00  0.00    +0.025 A 
ATOM     12  C   UNL     1      -3.643   6.222   0.148  0.00  0.00    +0.031 A 
ATOM     13  N   UNL     1      -2.570   5.372  -0.136  0.00  0.00    -0.336 N 
ATOM     14  H   UNL     1      -1.811   5.685  -0.652  0.00  0.00    +0.147 HD
ENDROOT
BRANCH   1  19
ATOM     15  C   UNL     1       1.121   3.419   0.362  0.00  0.00    +0.162 A 
ATOM     16  C   UNL     1       1.197   2.135  -0.153  0.00  0.00    +0.049 A 
ATOM     17  C   UNL     1       0.042   1.459  -0.497  0.00  0.00    +0.004 A 
ATOM     18  C   UNL     1      -1.191   2.061  -0.329  0.00  0.00    +0.009 A 
ATOM     19  C   UNL     1      -1.274   3.342   0.185  0.00  0.00    +0.018 A 
ATOM     20  C   UNL     1      -0.120   4.023   0.537  0.00  0.00    +0.163 A 
BRANCH  15  22
ATOM     21  C   UNL     1       3.496   3.401   0.499  0.00  0.00    +0.277 C 
ATOM     22  O   UNL     1       2.257   4.086   0.701  0.00  0.00    -0.491 OA
ENDBRANCH  15  22
BRANCH  20  23
ATOM     23  O   UNL     1      -0.200   5.281   1.048  0.00  0.00    -0.503 OA
ATOM     24  H   UNL     1      -0.120   5.980   0.385  0.00  0.00    +0.292 HD
ENDBRANCH  20  23
ENDBRANCH   1  19
BRANCH   9  25
ATOM     25  S   UNL     1      -7.107   8.997   1.024  0.00  0.00    +0.058 S 
ATOM     26  O   UNL     1      -7.453   8.794   2.387  0.00  0.00    -0.153 OA
ATOM     27  O   UNL     1      -6.748  10.273   0.511  0.00  0.00    -0.153 OA
BRANCH  25  28
ATOM     28  N   UNL     1      -8.394   8.470   0.125  0.00  0.00    -0.190 NA
ATOM     29  H   UNL     1      -8.755   9.031  -0.580  0.00  0.00    +0.148 HD
BRANCH  28  30
ATOM     30  C   UNL     1      -8.987   7.158   0.394  0.00  0.00    +0.110 C 
BRANCH  30  31
ATOM     31  C   UNL     1     -10.353   7.066  -0.289  0.00  0.00    +0.052 C 
BRANCH  31  32
ATOM     32  C   UNL     1     -10.964   5.717  -0.012  0.00  0.00    -0.046 A 
ATOM     33  C   UNL     1     -10.727   4.661  -0.873  0.00  0.00    +0.003 A 
ATOM     34  C   UNL     1     -11.283   3.422  -0.616  0.00  0.00    +0.000 A 
ATOM     35  C   UNL     1     -12.084   3.241   0.495  0.00  0.00    +0.000 A 
ATOM     36  C   UNL     1     -12.325   4.297   1.353  0.00  0.00    +0.000 A 
ATOM     37  C   UNL     1     -11.765   5.535   1.099  0.00  0.00    +0.003 A 
ENDBRANCH  31  32
ENDBRANCH  30  31
ENDBRANCH  28  30
ENDBRANCH  25  28
ENDBRANCH   9  25
TORSDOF 8
