REMARK  Name = ZINC45839670
REMARK  12 active torsions:
REMARK  status: ('A' for Active; 'I' for Inactive)
REMARK    1  A    between atoms: C_1  and  C_2
REMARK    2  A    between atoms: C_2  and  C_3
REMARK    3  A    between atoms: C_2  and  C_4
REMARK    4  A    between atoms: C_4  and  C_6
REMARK    5  A    between atoms: C_4  and  N_13
REMARK    6  A    between atoms: C_14  and  C_16
REMARK    7  A    between atoms: C_16  and  S_17
REMARK    8  A    between atoms: S_17  and  C_18
REMARK    9  A    between atoms: C_21  and  C_24
REMARK   10  A    between atoms: N_22  and  N_23
REMARK   11  A    between atoms: C_27  and  O_30
REMARK   12  A    between atoms: O_30  and  C_31
REMARK                            x       y       z     vdW  Elec       q    Type
REMARK                         _______ _______ _______ _____ _____    ______ ____
ROOT
ATOM      1  C   UNL     1      -4.939   3.756  -3.552  0.00  0.00    +0.209 A 
ATOM      2  N   UNL     1      -5.020   3.020  -4.638  0.00  0.00    -0.121 NA
ATOM      3  N   UNL     1      -5.683   3.643  -5.545  0.00  0.00    -0.127 NA
ATOM      4  C   UNL     1      -6.066   4.816  -5.095  0.00  0.00    +0.182 A 
ATOM      5  N   UNL     1      -5.606   4.921  -3.803  0.00  0.00    -0.224 N 
ENDROOT
BRANCH   4   6
ATOM      6  C   UNL     1      -6.848   5.828  -5.835  0.00  0.00    +0.021 A 
ATOM      7  C   UNL     1      -6.915   7.141  -5.365  0.00  0.00    +0.015 A 
ATOM      8  C   UNL     1      -7.644   8.083  -6.059  0.00  0.00    +0.046 A 
ATOM      9  C   UNL     1      -8.313   7.727  -7.223  0.00  0.00    +0.127 A 
ATOM     10  C   UNL     1      -8.249   6.422  -7.693  0.00  0.00    +0.046 A 
ATOM     11  C   UNL     1      -7.516   5.476  -7.009  0.00  0.00    +0.015 A 
BRANCH   9  12
ATOM     12  O   UNL     1      -9.032   8.658  -7.903  0.00  0.00    -0.434 OA
BRANCH  12  13
ATOM     13  C   UNL     1      -9.695   8.224  -9.092  0.00  0.00    +0.541 C 
ATOM     14  F   UNL     1      -8.749   7.740 -10.003  0.00  0.00    -0.166 F 
ATOM     15  F   UNL     1     -10.601   7.206  -8.776  0.00  0.00    -0.166 F 
ENDBRANCH  12  13
ENDBRANCH   9  12
ENDBRANCH   4   6
BRANCH   5  16
ATOM     16  N   UNL     1      -5.777   5.974  -2.949  0.00  0.00    -0.295 N 
ATOM     17  H   UNL     1      -5.026   6.641  -3.041  0.00  0.00    +0.163 HD
ATOM     18  H   UNL     1      -6.673   6.416  -3.095  0.00  0.00    +0.163 HD
ENDBRANCH   5  16
BRANCH   1  19
ATOM     19  S   UNL     1      -4.128   3.317  -2.050  0.00  0.00    -0.075 S 
BRANCH  19  20
ATOM     20  C   UNL     1      -3.456   1.665  -2.381  0.00  0.00    +0.173 C 
BRANCH  20  22
ATOM     21  N   UNL     1      -2.142  -0.048  -1.174  0.00  0.00    -0.308 N 
ATOM     22  C   UNL     1      -2.727   1.166  -1.160  0.00  0.00    +0.224 C 
ATOM     23  O   UNL     1      -2.667   1.857  -0.165  0.00  0.00    -0.275 OA
ATOM     24  H   UNL     1      -2.190  -0.601  -1.970  0.00  0.00    +0.149 HD
BRANCH  21  25
ATOM     25  C   UNL     1      -1.433  -0.534   0.013  0.00  0.00    +0.106 C 
BRANCH  25  26
ATOM     26  C   UNL     1      -1.413  -2.041   0.005  0.00  0.00    -0.027 A 
ATOM     27  C   UNL     1      -1.201  -2.722  -1.179  0.00  0.00    +0.007 A 
ATOM     28  C   UNL     1      -1.182  -4.104  -1.188  0.00  0.00    +0.020 A 
ATOM     29  C   UNL     1      -1.375  -4.805  -0.011  0.00  0.00    +0.041 A 
ATOM     30  C   UNL     1      -1.587  -4.123   1.174  0.00  0.00    +0.020 A 
ATOM     31  C   UNL     1      -1.600  -2.740   1.182  0.00  0.00    +0.007 A 
ATOM     32 CL   UNL     1      -1.352  -6.541  -0.020  0.00  0.00    -0.084 Cl
ENDBRANCH  25  26
BRANCH  25  34
ATOM     33  C   UNL     1      -0.019   1.526   0.010  0.00  0.00    +0.009 C 
ATOM     34  C   UNL     1       0.002  -0.004   0.002  0.00  0.00    +0.008 C 
ATOM     35  C   UNL     1       0.742  -0.511   1.242  0.00  0.00    +0.009 C 
ENDBRANCH  25  34
ENDBRANCH  21  25
ENDBRANCH  20  22
ENDBRANCH  19  20
ENDBRANCH   1  19
TORSDOF 10
