REMARK  Name = ZINC12215980
REMARK  8 active torsions:
REMARK  status: ('A' for Active; 'I' for Inactive)
REMARK    1  A    between atoms: C_1  and  C_2
REMARK    2  A    between atoms: C_7  and  N_12
REMARK    3  A    between atoms: C_9  and  C_11
REMARK    4  A    between atoms: C_16  and  C_18
REMARK    5  A    between atoms: C_18  and  S_19
REMARK    6  A    between atoms: S_19  and  C_20
REMARK    7  A    between atoms: N_24  and  C_25
REMARK    8  A    between atoms: C_25  and  C_26
REMARK                            x       y       z     vdW  Elec       q    Type
REMARK                         _______ _______ _______ _____ _____    ______ ____
ROOT
ATOM      1  S   UNL     1       4.833   3.201   1.758  0.00  0.00    -0.077 S 
ENDROOT
BRANCH   1   2
ATOM      2  C   UNL     1       4.625   1.499   2.163  0.00  0.00    +0.194 A 
ATOM      3  N   UNL     1       4.552   0.998   3.372  0.00  0.00    -0.121 NA
ATOM      4  N   UNL     1       4.393  -0.389   3.256  0.00  0.00    -0.112 NA
ATOM      5  C   UNL     1       4.370  -0.690   1.981  0.00  0.00    +0.221 A 
ATOM      6  N   UNL     1       4.510   0.469   1.271  0.00  0.00    -0.283 N 
ATOM      7  N   UNL     1       4.228  -1.963   1.444  0.00  0.00    -0.300 N 
ATOM      8  C   UNL     1       2.895  -2.140   0.856  0.00  0.00    +0.108 C 
ATOM      9  C   UNL     1       2.824  -3.496   0.149  0.00  0.00    +0.019 C 
ATOM     10  C   UNL     1       3.107  -4.609   1.161  0.00  0.00    +0.003 C 
ATOM     11  C   UNL     1       4.481  -4.374   1.795  0.00  0.00    +0.019 C 
ATOM     12  C   UNL     1       4.504  -2.993   2.454  0.00  0.00    +0.108 C 
BRANCH   6  13
ATOM     13  C   UNL     1       4.537   0.587  -0.189  0.00  0.00    +0.201 C 
BRANCH  13  14
ATOM     14  C   UNL     1       5.967   0.595  -0.665  0.00  0.00    +0.125 A 
ATOM     15  C   UNL     1       6.675  -0.484  -1.045  0.00  0.00    +0.046 A 
ATOM     16  C   UNL     1       7.960  -0.021  -1.414  0.00  0.00    +0.041 A 
ATOM     17  C   UNL     1       7.960   1.312  -1.237  0.00  0.00    +0.195 A 
ATOM     18  O   UNL     1       6.750   1.680  -0.783  0.00  0.00    -0.466 OA
ENDBRANCH  13  14
ENDBRANCH   6  13
ENDBRANCH   1   2
BRANCH   1  19
ATOM     19  C   UNL     1       4.918   4.029   3.370  0.00  0.00    +0.173 C 
BRANCH  19  24
ATOM     20  N   UNL     1       5.436   8.480   5.111  0.00  0.00    -0.296 N 
ATOM     21  C   UNL     1       5.347   7.658   4.046  0.00  0.00    +0.306 C 
ATOM     22  O   UNL     1       5.411   8.113   2.921  0.00  0.00    -0.252 OA
ATOM     23  N   UNL     1       5.186   6.332   4.229  0.00  0.00    -0.239 N 
ATOM     24  C   UNL     1       5.097   5.511   3.165  0.00  0.00    +0.231 C 
ATOM     25  O   UNL     1       5.162   5.964   2.042  0.00  0.00    -0.274 OA
ATOM     26  H   UNL     1       5.384   8.117   6.009  0.00  0.00    +0.151 HD
ATOM     27  H   UNL     1       5.135   5.970   5.128  0.00  0.00    +0.159 HD
BRANCH  20  33
ATOM     28  C   UNL     1       6.088  10.892   8.607  0.00  0.00    +0.008 C 
ATOM     29  C   UNL     1       5.412  10.285   7.375  0.00  0.00    -0.009 C 
ATOM     30  C   UNL     1       4.046  10.941   7.169  0.00  0.00    +0.003 C 
ATOM     31  C   UNL     1       3.370  10.334   5.938  0.00  0.00    +0.002 C 
ATOM     32  C   UNL     1       4.243  10.576   4.705  0.00  0.00    +0.022 C 
ATOM     33  C   UNL     1       5.610   9.921   4.912  0.00  0.00    +0.078 C 
ATOM     34  C   UNL     1       6.286  10.527   6.143  0.00  0.00    +0.009 C 
ATOM     35  C   UNL     1       7.653   9.872   6.350  0.00  0.00    +0.009 C 
ENDBRANCH  20  33
ENDBRANCH  19  24
ENDBRANCH   1  19
TORSDOF 6
