REMARK  Name = ZINC03410941
REMARK  5 active torsions:
REMARK  status: ('A' for Active; 'I' for Inactive)
REMARK    1  A    between atoms: C_1  and  C_2
REMARK    2  A    between atoms: C_2  and  C_4
REMARK    3  A    between atoms: C_2  and  N_10
REMARK    4  A    between atoms: C_13  and  C_17
REMARK    5  A    between atoms: C_13  and  C_23
REMARK                            x       y       z     vdW  Elec       q    Type
REMARK                         _______ _______ _______ _____ _____    ______ ____
ROOT
ATOM      1  N   UNL     1      -1.194  -0.839  -0.146  0.00  0.00    -0.212 N 
ATOM      2  C   UNL     1      -1.909  -1.525  -1.059  0.00  0.00    +0.256 C 
ATOM      3  O   UNL     1      -1.503  -2.009  -2.094  0.00  0.00    -0.272 OA
ATOM      4  C   UNL     1      -3.325  -1.569  -0.522  0.00  0.00    +0.164 C 
ATOM      5  N   UNL     1      -3.236  -0.832   0.751  0.00  0.00    -0.278 N 
ATOM      6  C   UNL     1      -1.953  -0.450   0.885  0.00  0.00    +0.311 C 
ATOM      7  O   UNL     1      -1.532   0.180   1.835  0.00  0.00    -0.252 OA
ATOM      8  H   UNL     1      -3.961  -0.659   1.372  0.00  0.00    +0.152 HD
ENDROOT
BRANCH   4   9
ATOM      9  C   UNL     1      -4.273  -0.878  -1.469  0.00  0.00    -0.011 A 
ATOM     10  C   UNL     1      -5.146   0.083  -0.994  0.00  0.00    +0.006 A 
ATOM     11  C   UNL     1      -6.015   0.717  -1.863  0.00  0.00    +0.000 A 
ATOM     12  C   UNL     1      -6.010   0.390  -3.206  0.00  0.00    +0.000 A 
ATOM     13  C   UNL     1      -5.136  -0.570  -3.681  0.00  0.00    +0.000 A 
ATOM     14  C   UNL     1      -4.264  -1.201  -2.813  0.00  0.00    +0.006 A 
ENDBRANCH   4   9
BRANCH   4  15
ATOM     15  C   UNL     1      -3.758  -2.992  -0.281  0.00  0.00    -0.011 A 
ATOM     16  C   UNL     1      -4.325  -3.347   0.928  0.00  0.00    +0.006 A 
ATOM     17  C   UNL     1      -4.722  -4.652   1.149  0.00  0.00    +0.000 A 
ATOM     18  C   UNL     1      -4.553  -5.603   0.160  0.00  0.00    +0.000 A 
ATOM     19  C   UNL     1      -3.986  -5.248  -1.050  0.00  0.00    +0.000 A 
ATOM     20  C   UNL     1      -3.593  -3.941  -1.272  0.00  0.00    +0.006 A 
ENDBRANCH   4  15
BRANCH   1  22
ATOM     21  C   UNL     1       0.463   0.956  -0.267  0.00  0.00    +0.038 C 
ATOM     22  C   UNL     1       0.239  -0.557  -0.264  0.00  0.00    +0.169 C 
BRANCH  22  23
ATOM     23  C   UNL     1       0.970  -1.171   0.902  0.00  0.00    +0.241 C 
ATOM     24  O   UNL     1       0.354  -1.783   1.749  0.00  0.00    -0.273 OA
ATOM     25  N   UNL     1       2.307  -1.040   1.004  0.00  0.00    -0.239 N 
ATOM     26  C   UNL     1       2.960  -1.589   2.047  0.00  0.00    +0.303 C 
ATOM     27  O   UNL     1       2.343  -2.202   2.896  0.00  0.00    -0.253 OA
ATOM     28  N   UNL     1       4.298  -1.458   2.150  0.00  0.00    -0.313 N 
ATOM     29  H   UNL     1       2.799  -0.550   0.327  0.00  0.00    +0.159 HD
ATOM     30  H   UNL     1       4.790  -0.968   1.472  0.00  0.00    +0.146 HD
ATOM     31  H   UNL     1       4.768  -1.853   2.900  0.00  0.00    +0.146 HD
ENDBRANCH  22  23
ENDBRANCH   1  22
TORSDOF 4
