REMARK  Name = ZINC29335298
REMARK  5 active torsions:
REMARK  status: ('A' for Active; 'I' for Inactive)
REMARK    1  A    between atoms: C_3  and  C_6
REMARK    2  A    between atoms: C_9  and  C_19
REMARK    3  A    between atoms: C_12  and  C_14
REMARK    4  A    between atoms: C_14  and  S_15
REMARK    5  A    between atoms: S_15  and  C_16
REMARK                            x       y       z     vdW  Elec       q    Type
REMARK                         _______ _______ _______ _____ _____    ______ ____
ROOT
ATOM      1  C   UNL     1      -0.018   1.503   0.010  0.00  0.00    +0.173 C 
ATOM      2  C   UNL     1      -0.796   2.028   1.233  0.00  0.00    +0.090 C 
ATOM      3  C   UNL     1      -1.947   2.800   0.629  0.00  0.00    +0.075 C 
ATOM      4  N   UNL     1      -1.873   2.747  -0.659  0.00  0.00    -0.180 NA
ATOM      5  N   UNL     1      -0.783   2.016  -1.137  0.00  0.00    -0.181 N 
ATOM      6  C   UNL     1      -0.480   1.813  -2.435  0.00  0.00    +0.246 C 
ATOM      7  O   UNL     1       0.496   1.157  -2.735  0.00  0.00    -0.273 OA
ENDROOT
BRANCH   1  10
ATOM      8  C   UNL     1       0.624  -2.121   0.208  0.00  0.00    +0.041 A 
ATOM      9  C   UNL     1       1.037  -0.779   0.374  0.00  0.00    +0.046 A 
ATOM     10  C   UNL     1       0.002  -0.004   0.002  0.00  0.00    +0.128 A 
ATOM     11  O   UNL     1      -1.012  -0.801  -0.372  0.00  0.00    -0.466 OA
ATOM     12  C   UNL     1      -0.638  -2.086  -0.255  0.00  0.00    +0.195 A 
ENDBRANCH   1  10
BRANCH   3  13
ATOM     13  C   UNL     1      -2.988   3.500   1.389  0.00  0.00    +0.035 A 
ATOM     14  C   UNL     1      -4.067   4.231   0.922  0.00  0.00    +0.017 A 
ATOM     15  C   UNL     1      -4.919   4.798   1.841  0.00  0.00    +0.008 A 
ATOM     16  C   UNL     1      -4.672   4.634   3.167  0.00  0.00    +0.046 A 
ATOM     17  S   UNL     1      -3.190   3.639   3.158  0.00  0.00    -0.095 S 
ENDBRANCH   3  13
BRANCH   6  18
ATOM     18  C   UNL     1      -1.354   2.400  -3.513  0.00  0.00    +0.174 C 
BRANCH  18  19
ATOM     19  S   UNL     1      -0.690   1.954  -5.137  0.00  0.00    -0.084 S 
BRANCH  19  20
ATOM     20  C   UNL     1      -1.870   2.747  -6.178  0.00  0.00    +0.123 C 
ATOM     21  N   UNL     1      -2.861   3.412  -5.652  0.00  0.00    -0.382 N 
ATOM     22  N   UNL     1      -1.746   2.663  -7.546  0.00  0.00    -0.340 N 
ATOM     23  H   UNL     1      -3.597   3.907  -6.302  0.00  0.00    +0.158 HD
ATOM     24  H   UNL     1      -2.483   3.158  -8.196  0.00  0.00    +0.144 HD
ATOM     25  H   UNL     1      -0.911   2.102  -7.989  0.00  0.00    +0.144 HD
ATOM     26  H   UNL     1      -2.960   3.479  -4.559  0.00  0.00    +0.158 HD
ENDBRANCH  19  20
ENDBRANCH  18  19
ENDBRANCH   6  18
TORSDOF 5
