REMARK  Name = ZINC66174423
REMARK  8 active torsions:
REMARK  status: ('A' for Active; 'I' for Inactive)
REMARK    1  A    between atoms: C_1  and  N_2
REMARK    2  A    between atoms: N_2  and  C_3
REMARK    3  A    between atoms: N_2  and  C_4
REMARK    4  A    between atoms: C_4  and  C_6
REMARK    5  A    between atoms: C_4  and  C_23
REMARK    6  A    between atoms: C_6  and  N_7
REMARK    7  A    between atoms: C_13  and  N_16
REMARK    8  A    between atoms: C_17  and  C_19
REMARK                            x       y       z     vdW  Elec       q    Type
REMARK                         _______ _______ _______ _____ _____    ______ ____
ROOT
ATOM      1  N   UNL     1       0.427  -2.125  -0.212  0.00  0.00    -0.300 N 
ATOM      2  C   UNL     1       0.946  -3.337  -0.492  0.00  0.00    +0.302 C 
ATOM      3  O   UNL     1       0.572  -3.946  -1.475  0.00  0.00    -0.253 OA
ATOM      4  N   UNL     1       1.879  -3.874   0.319  0.00  0.00    -0.286 N 
ATOM      5  C   UNL     1       2.256  -3.206   1.572  0.00  0.00    +0.111 C 
ATOM      6  C   UNL     1       3.776  -3.019   1.594  0.00  0.00    +0.041 C 
ATOM      7  C   UNL     1       4.455  -4.373   1.375  0.00  0.00    +0.076 C 
ATOM      8  C   UNL     1       4.057  -4.930   0.006  0.00  0.00    +0.041 C 
ATOM      9  C   UNL     1       2.536  -5.141  -0.031  0.00  0.00    +0.111 C 
ATOM     10  H   UNL     1       0.775  -1.608   0.531  0.00  0.00    +0.150 HD
ENDROOT
BRANCH   7  11
ATOM     11  N   UNL     1       5.910  -4.204   1.429  0.00  0.00    -0.312 N 
ATOM     12  C   UNL     1       6.697  -5.244   1.765  0.00  0.00    +0.216 C 
ATOM     13  O   UNL     1       6.202  -6.321   2.023  0.00  0.00    -0.276 OA
ATOM     14  H   UNL     1       6.306  -3.343   1.222  0.00  0.00    +0.149 HD
BRANCH  12  15
ATOM     15  C   UNL     1       8.193  -5.070   1.820  0.00  0.00    +0.075 C 
ATOM     16  C   UNL     1       8.694  -4.458   3.139  0.00  0.00    +0.013 C 
ATOM     17  C   UNL     1       8.788  -5.894   3.679  0.00  0.00    +0.001 C 
ATOM     18  C   UNL     1       8.948  -6.349   2.219  0.00  0.00    +0.013 C 
ENDBRANCH  12  15
ENDBRANCH   7  11
BRANCH   1  19
ATOM     19  C   UNL     1      -0.663  -1.588  -1.031  0.00  0.00    +0.095 C 
BRANCH  19  20
ATOM     20  C   UNL     1      -1.154  -0.271  -0.427  0.00  0.00    -0.021 C 
BRANCH  20  21
ATOM     21  C   UNL     1      -1.752  -0.534   0.931  0.00  0.00    -0.059 A 
ATOM     22  C   UNL     1      -3.038  -1.028   1.036  0.00  0.00    +0.002 A 
ATOM     23  C   UNL     1      -3.587  -1.269   2.282  0.00  0.00    +0.000 A 
ATOM     24  C   UNL     1      -2.848  -1.016   3.423  0.00  0.00    +0.000 A 
ATOM     25  C   UNL     1      -1.561  -0.523   3.318  0.00  0.00    +0.000 A 
ATOM     26  C   UNL     1      -1.011  -0.286   2.072  0.00  0.00    +0.002 A 
ENDBRANCH  20  21
BRANCH  20  28
ATOM     27  C   UNL     1      -2.698   1.546  -0.688  0.00  0.00    -0.096 C 
ATOM     28  N   UNL     1      -2.173   0.320  -1.304  0.00  0.00    +0.382 N 
ATOM     29  C   UNL     1      -1.571   0.644  -2.604  0.00  0.00    -0.096 C 
ATOM     30  H   UNL     1      -2.926  -0.338  -1.437  0.00  0.00    -0.082 HD
ENDBRANCH  20  28
ENDBRANCH  19  20
ENDBRANCH   1  19
TORSDOF 6
