REMARK  Name = ZINC44513847
REMARK  8 active torsions:
REMARK  status: ('A' for Active; 'I' for Inactive)
REMARK    1  A    between atoms: C_1  and  C_2
REMARK    2  A    between atoms: C_2  and  C_3
REMARK    3  A    between atoms: C_2  and  C_4
REMARK    4  A    between atoms: C_2  and  C_5
REMARK    5  A    between atoms: C_7  and  C_10
REMARK    6  A    between atoms: C_10  and  N_11
REMARK    7  A    between atoms: C_14  and  C_17
REMARK    8  A    between atoms: C_17  and  N_18
REMARK                            x       y       z     vdW  Elec       q    Type
REMARK                         _______ _______ _______ _____ _____    ______ ____
ROOT
ATOM      1  N   UNL     1       4.426  -1.861  -2.974  0.00  0.00    +0.385 N 
ATOM      2  C   UNL     1       4.719  -1.698  -1.545  0.00  0.00    -0.078 C 
ATOM      3  C   UNL     1       5.536  -2.893  -1.049  0.00  0.00    -0.017 C 
ATOM      4  C   UNL     1       6.848  -2.969  -1.835  0.00  0.00    -0.032 C 
ATOM      5  C   UNL     1       6.531  -3.064  -3.331  0.00  0.00    -0.017 C 
ATOM      6  C   UNL     1       5.677  -1.862  -3.742  0.00  0.00    -0.078 C 
ATOM      7  H   UNL     1       3.942  -2.734  -3.119  0.00  0.00    -0.081 HD
ENDROOT
BRANCH   1   8
ATOM      8  C   UNL     1       3.576  -0.751  -3.427  0.00  0.00    +0.002 C 
BRANCH   8  11
ATOM      9  C   UNL     1       0.707  -0.490  -1.238  0.00  0.00    +0.233 A 
ATOM     10  N   UNL     1       1.943  -0.232  -1.565  0.00  0.00    -0.198 NA
ATOM     11  C   UNL     1       2.243  -0.821  -2.728  0.00  0.00    +0.156 A 
ATOM     12  N   UNL     1       1.196  -1.464  -3.157  0.00  0.00    -0.063 NA
ATOM     13  O   UNL     1       0.175  -1.266  -2.191  0.00  0.00    -0.338 OA
BRANCH   9  15
ATOM     14  C   UNL     1      -0.019   1.526   0.010  0.00  0.00    +0.020 C 
ATOM     15  C   UNL     1       0.002  -0.004   0.002  0.00  0.00    +0.041 C 
ATOM     16  C   UNL     1       0.742  -0.511   1.242  0.00  0.00    +0.020 C 
ATOM     17  C   UNL     1      -1.433  -0.534   0.013  0.00  0.00    +0.020 C 
ENDBRANCH   9  15
ENDBRANCH   8  11
ENDBRANCH   1   8
BRANCH   4  18
ATOM     18  C   UNL     1       7.634  -4.207  -1.400  0.00  0.00    -0.083 C 
BRANCH  18  19
ATOM     19  N   UNL     1       8.944  -4.215  -2.066  0.00  0.00    +0.378 N 
ATOM     20  H   UNL     1       8.812  -4.235  -3.066  0.00  0.00    -0.090 HD
ATOM     21  H   UNL     1       9.456  -3.384  -1.811  0.00  0.00    -0.090 HD
ATOM     22  H   UNL     1       9.462  -5.032  -1.779  0.00  0.00    -0.090 HD
ENDBRANCH  18  19
ENDBRANCH   4  18
TORSDOF 5
