REMARK  Name = ZINC25725480
REMARK  12 active torsions:
REMARK  status: ('A' for Active; 'I' for Inactive)
REMARK    1  A    between atoms: C_1  and  C_2
REMARK    2  A    between atoms: C_2  and  C_3
REMARK    3  A    between atoms: C_3  and  C_4
REMARK    4  A    between atoms: C_4  and  N_5
REMARK    5  A    between atoms: C_6  and  N_29
REMARK    6  A    between atoms: C_7  and  N_14
REMARK    7  A    between atoms: N_14  and  C_15
REMARK    8  A    between atoms: C_15  and  C_16
REMARK    9  A    between atoms: C_16  and  C_17
REMARK   10  A    between atoms: C_18  and  C_20
REMARK   11  A    between atoms: C_23  and  O_27
REMARK   12  A    between atoms: O_27  and  C_28
REMARK                            x       y       z     vdW  Elec       q    Type
REMARK                         _______ _______ _______ _____ _____    ______ ____
ROOT
ATOM      1  N   UNL     1       5.577  -1.238   1.736  0.00  0.00    -0.280 N 
ATOM      2  C   UNL     1       4.412  -0.584   1.408  0.00  0.00    +0.127 A 
ATOM      3  C   UNL     1       3.699  -0.994   0.300  0.00  0.00    +0.140 A 
ATOM      4  C   UNL     1       4.184  -2.075  -0.459  0.00  0.00    +0.277 A 
ATOM      5  O   UNL     1       3.570  -2.462  -1.440  0.00  0.00    -0.266 OA
ATOM      6  N   UNL     1       5.333  -2.679  -0.097  0.00  0.00    -0.273 N 
ATOM      7  H   UNL     1       5.723  -3.519  -0.690  0.00  0.00    +0.173 HD
ATOM      8  C   UNL     1       6.015  -2.266   0.986  0.00  0.00    +0.331 A 
ATOM      9  O   UNL     1       7.047  -2.831   1.293  0.00  0.00    -0.246 OA
ENDROOT
BRANCH   3  10
ATOM     10  N   UNL     1       2.501  -0.343  -0.063  0.00  0.00    -0.260 N 
ATOM     11  C   UNL     1       2.514   0.966  -0.381  0.00  0.00    +0.254 C 
ATOM     12  O   UNL     1       1.480   1.529  -0.688  0.00  0.00    -0.270 OA
BRANCH  11  13
ATOM     13  C   UNL     1       3.783   1.717  -0.357  0.00  0.00    +0.073 A 
ATOM     14  C   UNL     1       4.993   1.058  -0.593  0.00  0.00    +0.019 A 
ATOM     15  C   UNL     1       6.176   1.761  -0.564  0.00  0.00    +0.046 A 
ATOM     16  C   UNL     1       6.169   3.129  -0.312  0.00  0.00    +0.123 A 
ATOM     17  C   UNL     1       4.971   3.791  -0.077  0.00  0.00    +0.084 A 
ATOM     18  C   UNL     1       3.780   3.093  -0.098  0.00  0.00    +0.139 A 
ATOM     19  F   UNL     1       2.615   3.737   0.130  0.00  0.00    -0.205 F 
BRANCH  16  20
ATOM     20  O   UNL     1       7.338   3.818  -0.289  0.00  0.00    -0.495 OA
ATOM     21  C   UNL     1       8.534   3.076  -0.539  0.00  0.00    +0.277 C 
ENDBRANCH  16  20
ENDBRANCH  11  13
BRANCH  10  22
ATOM     22  C   UNL     1       1.241  -1.091  -0.094  0.00  0.00    +0.114 C 
BRANCH  22  23
ATOM     23  C   UNL     1       0.951  -1.543  -1.526  0.00  0.00    +0.016 C 
ATOM     24  C   UNL     1      -0.369  -2.316  -1.560  0.00  0.00    +0.005 C 
ENDBRANCH  22  23
ENDBRANCH  10  22
ENDBRANCH   3  10
BRANCH   2  25
ATOM     25  N   UNL     1       3.964   0.465   2.174  0.00  0.00    -0.343 N 
ATOM     26  H   UNL     1       3.032   0.984   1.906  0.00  0.00    +0.144 HD
ATOM     27  H   UNL     1       4.538   0.787   3.055  0.00  0.00    +0.144 HD
ENDBRANCH   2  25
BRANCH   1  28
ATOM     28  C   UNL     1       6.344  -0.814   2.909  0.00  0.00    +0.128 C 
BRANCH  28  29
ATOM     29  C   UNL     1       5.863  -1.586   4.140  0.00  0.00    +0.021 C 
BRANCH  29  31
ATOM     30  C   UNL     1       6.184  -1.915   6.596  0.00  0.00    +0.004 C 
ATOM     31  C   UNL     1       6.665  -1.143   5.365  0.00  0.00    -0.002 C 
ENDBRANCH  29  31
ENDBRANCH  28  29
ENDBRANCH   1  28
TORSDOF 9
