REMARK  Name = ZINC14625461
REMARK  9 active torsions:
REMARK  status: ('A' for Active; 'I' for Inactive)
REMARK    1  A    between atoms: C_1  and  C_2
REMARK    2  A    between atoms: C_2  and  C_3
REMARK    3  A    between atoms: C_3  and  C_4
REMARK    4  A    between atoms: C_4  and  N_5
REMARK    5  A    between atoms: C_6  and  N_32
REMARK    6  A    between atoms: C_7  and  N_14
REMARK    7  A    between atoms: N_14  and  C_15
REMARK    8  A    between atoms: C_15  and  C_16
REMARK    9  A    between atoms: C_22  and  C_24
REMARK                            x       y       z     vdW  Elec       q    Type
REMARK                         _______ _______ _______ _____ _____    ______ ____
ROOT
ATOM      1  N   UNL     1       3.568  -0.746  -1.404  0.00  0.00    -0.255 N 
ATOM      2  C   UNL     1       4.761  -0.152  -1.606  0.00  0.00    +0.271 C 
ATOM      3  O   UNL     1       5.164   0.684  -0.820  0.00  0.00    -0.268 OA
ENDROOT
BRANCH   1   6
ATOM      4  N   UNL     1       2.708  -4.095  -2.644  0.00  0.00    -0.280 N 
ATOM      5  C   UNL     1       3.121  -3.095  -1.795  0.00  0.00    +0.127 A 
ATOM      6  C   UNL     1       3.150  -1.793  -2.250  0.00  0.00    +0.140 A 
ATOM      7  C   UNL     1       2.749  -1.527  -3.574  0.00  0.00    +0.277 A 
ATOM      8  O   UNL     1       2.760  -0.385  -4.001  0.00  0.00    -0.266 OA
ATOM      9  N   UNL     1       2.359  -2.544  -4.367  0.00  0.00    -0.273 N 
ATOM     10  H   UNL     1       2.082  -2.357  -5.309  0.00  0.00    +0.173 HD
ATOM     11  C   UNL     1       2.337  -3.807  -3.905  0.00  0.00    +0.331 A 
ATOM     12  O   UNL     1       1.975  -4.705  -4.641  0.00  0.00    -0.246 OA
BRANCH   5  13
ATOM     13  N   UNL     1       3.500  -3.390  -0.507  0.00  0.00    -0.343 N 
ATOM     14  H   UNL     1       3.736  -2.675   0.105  0.00  0.00    +0.144 HD
ATOM     15  H   UNL     1       3.532  -4.313  -0.210  0.00  0.00    +0.144 HD
ENDBRANCH   5  13
BRANCH   4  16
ATOM     16  C   UNL     1       2.672  -5.482  -2.174  0.00  0.00    +0.128 C 
BRANCH  16  17
ATOM     17  C   UNL     1       1.320  -5.762  -1.516  0.00  0.00    +0.021 C 
BRANCH  17  19
ATOM     18  C   UNL     1      -0.063  -7.495  -0.362  0.00  0.00    +0.004 C 
ATOM     19  C   UNL     1       1.325  -7.171  -0.918  0.00  0.00    -0.002 C 
ENDBRANCH  17  19
ENDBRANCH  16  17
ENDBRANCH   4  16
ENDBRANCH   1   6
BRANCH   2  20
ATOM     20  C   UNL     1       5.580  -0.516  -2.784  0.00  0.00    +0.146 A 
ATOM     21  C   UNL     1       6.757   0.181  -3.050  0.00  0.00    +0.072 A 
ATOM     22  C   UNL     1       7.514  -0.172  -4.158  0.00  0.00    +0.025 A 
ATOM     23  C   UNL     1       7.067  -1.210  -4.960  0.00  0.00    +0.041 A 
ATOM     24  C   UNL     1       5.885  -1.860  -4.636  0.00  0.00    +0.130 A 
ATOM     25  N   UNL     1       5.189  -1.508  -3.575  0.00  0.00    -0.229 NA
ATOM     26 CL   UNL     1       5.321  -3.160  -5.638  0.00  0.00    -0.062 Cl
ATOM     27 CL   UNL     1       7.270   1.473  -2.010  0.00  0.00    -0.081 Cl
ENDBRANCH   2  20
BRANCH   1  28
ATOM     28  C   UNL     1       2.706  -0.304  -0.305  0.00  0.00    +0.149 C 
BRANCH  28  29
ATOM     29  C   UNL     1       1.733   0.729  -0.813  0.00  0.00    -0.030 A 
ATOM     30  C   UNL     1       0.532   0.331  -1.371  0.00  0.00    +0.005 A 
ATOM     31  C   UNL     1      -0.360   1.279  -1.837  0.00  0.00    +0.000 A 
ATOM     32  C   UNL     1      -0.051   2.623  -1.746  0.00  0.00    +0.000 A 
ATOM     33  C   UNL     1       1.149   3.020  -1.187  0.00  0.00    +0.000 A 
ATOM     34  C   UNL     1       2.042   2.073  -0.721  0.00  0.00    +0.005 A 
ENDBRANCH  28  29
ENDBRANCH   1  28
TORSDOF 8
