REMARK  Name = ZINC00857689
REMARK  7 active torsions:
REMARK  status: ('A' for Active; 'I' for Inactive)
REMARK    1  A    between atoms: C_1  and  C_2
REMARK    2  A    between atoms: C_2  and  C_26
REMARK    3  A    between atoms: C_6  and  C_14
REMARK    4  A    between atoms: C_8  and  C_12
REMARK    5  A    between atoms: C_9  and  N_11
REMARK    6  A    between atoms: C_17  and  O_21
REMARK    7  A    between atoms: O_21  and  C_22
REMARK                            x       y       z     vdW  Elec       q    Type
REMARK                         _______ _______ _______ _____ _____    ______ ____
ROOT
ATOM      1  C   UNL     1       4.030   0.982   1.577  0.00  0.00    +0.012 C 
ATOM      2  C   UNL     1       4.144   2.034   0.471  0.00  0.00    -0.021 C 
ATOM      3  C   UNL     1       3.171   3.181   0.750  0.00  0.00    +0.081 C 
ATOM      4  C   UNL     1       1.754   2.656   0.763  0.00  0.00    +0.115 C 
ATOM      5  C   UNL     1       1.405   1.606  -0.003  0.00  0.00    +0.046 C 
ATOM      6  C   UNL     1      -0.013   1.086   0.008  0.00  0.00    +0.101 C 
ATOM      7  C   UNL     1      -0.730   1.568   1.238  0.00  0.00    +0.098 C 
ATOM      8  C   UNL     1      -0.253   2.625   1.939  0.00  0.00    +0.198 C 
ATOM      9  O   UNL     1       0.860   3.272   1.559  0.00  0.00    -0.445 OA
ATOM     10  C   UNL     1       2.341   0.960  -0.833  0.00  0.00    +0.164 C 
ATOM     11  O   UNL     1       1.983   0.029  -1.525  0.00  0.00    -0.292 OA
ATOM     12  C   UNL     1       3.778   1.405  -0.878  0.00  0.00    +0.086 C 
ATOM     13  C   UNL     1       5.576   2.570   0.417  0.00  0.00    +0.012 C 
ENDROOT
BRANCH   6  14
ATOM     14  C   UNL     1      -0.737   1.583  -1.217  0.00  0.00    -0.033 A 
ATOM     15  C   UNL     1      -0.888   2.941  -1.425  0.00  0.00    +0.008 A 
ATOM     16  C   UNL     1      -1.547   3.400  -2.550  0.00  0.00    +0.047 A 
ATOM     17  C   UNL     1      -2.067   2.496  -3.465  0.00  0.00    +0.134 A 
ATOM     18  C   UNL     1      -1.918   1.133  -3.251  0.00  0.00    +0.060 A 
ATOM     19  C   UNL     1      -1.253   0.679  -2.127  0.00  0.00    +0.023 A 
ATOM     20 BR   UNL     1      -2.624  -0.103  -4.496  0.00  0.00    -0.047 Br
BRANCH  17  21
ATOM     21  O   UNL     1      -2.720   2.945  -4.569  0.00  0.00    -0.494 OA
ATOM     22  C   UNL     1      -2.836   4.360  -4.724  0.00  0.00    +0.277 C 
ENDBRANCH  17  21
ENDBRANCH   6  14
BRANCH   8  23
ATOM     23  N   UNL     1      -0.922   3.044   3.062  0.00  0.00    -0.328 N 
ATOM     24  H   UNL     1      -0.590   3.799   3.572  0.00  0.00    +0.145 HD
ATOM     25  H   UNL     1      -1.728   2.584   3.346  0.00  0.00    +0.145 HD
ENDBRANCH   8  23
BRANCH   7  26
ATOM     26  C   UNL     1      -1.924   0.907   1.671  0.00  0.00    +0.101 C 
ATOM     27  N   UNL     1      -2.871   0.382   2.015  0.00  0.00    -0.191 NA
ENDBRANCH   7  26
TORSDOF 4
