REMARK  Name = ZINC57908199
REMARK  10 active torsions:
REMARK  status: ('A' for Active; 'I' for Inactive)
REMARK    1  A    between atoms: C_1  and  C_2
REMARK    2  A    between atoms: C_2  and  C_3
REMARK    3  A    between atoms: C_2  and  C_4
REMARK    4  A    between atoms: C_4  and  C_6
REMARK    5  A    between atoms: C_4  and  N_12
REMARK    6  A    between atoms: C_13  and  C_15
REMARK    7  A    between atoms: C_15  and  S_16
REMARK    8  A    between atoms: S_16  and  C_17
REMARK    9  A    between atoms: C_20  and  C_23
REMARK   10  A    between atoms: N_21  and  N_22
REMARK                            x       y       z     vdW  Elec       q    Type
REMARK                         _______ _______ _______ _____ _____    ______ ____
ROOT
ATOM      1  C   UNL     1      -3.456   1.665  -2.381  0.00  0.00    +0.173 C 
ENDROOT
BRANCH   1   3
ATOM      2  N   UNL     1      -2.142  -0.048  -1.174  0.00  0.00    -0.308 N 
ATOM      3  C   UNL     1      -2.727   1.166  -1.160  0.00  0.00    +0.224 C 
ATOM      4  O   UNL     1      -2.667   1.857  -0.165  0.00  0.00    -0.275 OA
ATOM      5  H   UNL     1      -2.190  -0.601  -1.970  0.00  0.00    +0.149 HD
BRANCH   2   6
ATOM      6  C   UNL     1      -1.433  -0.534   0.013  0.00  0.00    +0.106 C 
BRANCH   6   7
ATOM      7  C   UNL     1      -1.413  -2.041   0.005  0.00  0.00    -0.027 A 
ATOM      8  C   UNL     1      -1.201  -2.722  -1.179  0.00  0.00    +0.005 A 
ATOM      9  C   UNL     1      -1.183  -4.104  -1.187  0.00  0.00    +0.000 A 
ATOM     10  C   UNL     1      -1.375  -4.805  -0.011  0.00  0.00    +0.000 A 
ATOM     11  C   UNL     1      -1.586  -4.123   1.173  0.00  0.00    +0.000 A 
ATOM     12  C   UNL     1      -1.600  -2.741   1.182  0.00  0.00    +0.005 A 
ENDBRANCH   6   7
BRANCH   6  14
ATOM     13  C   UNL     1      -0.019   1.526   0.010  0.00  0.00    +0.009 C 
ATOM     14  C   UNL     1       0.002  -0.004   0.002  0.00  0.00    +0.008 C 
ATOM     15  C   UNL     1       0.742  -0.511   1.242  0.00  0.00    +0.009 C 
ENDBRANCH   6  14
ENDBRANCH   2   6
ENDBRANCH   1   3
BRANCH   1  16
ATOM     16  S   UNL     1      -4.128   3.317  -2.050  0.00  0.00    -0.075 S 
BRANCH  16  17
ATOM     17  C   UNL     1      -4.939   3.756  -3.552  0.00  0.00    +0.209 A 
ATOM     18  N   UNL     1      -5.021   3.022  -4.638  0.00  0.00    -0.121 NA
ATOM     19  N   UNL     1      -5.684   3.652  -5.541  0.00  0.00    -0.132 NA
ATOM     20  C   UNL     1      -6.062   4.814  -5.090  0.00  0.00    +0.154 A 
ATOM     21  N   UNL     1      -5.606   4.920  -3.805  0.00  0.00    -0.228 N 
BRANCH  20  22
ATOM     22  C   UNL     1      -6.859   5.848  -5.842  0.00  0.00    +0.059 C 
ATOM     23  C   UNL     1      -8.210   5.255  -6.247  0.00  0.00    +0.011 C 
ATOM     24  C   UNL     1      -9.020   6.305  -7.011  0.00  0.00    +0.001 C 
ATOM     25  C   UNL     1      -8.251   6.728  -8.265  0.00  0.00    +0.000 C 
ATOM     26  C   UNL     1      -6.901   7.321  -7.860  0.00  0.00    +0.001 C 
ATOM     27  C   UNL     1      -6.091   6.271  -7.096  0.00  0.00    +0.011 C 
ENDBRANCH  20  22
BRANCH  21  28
ATOM     28  N   UNL     1      -5.779   5.973  -2.952  0.00  0.00    -0.295 N 
ATOM     29  H   UNL     1      -5.027   6.640  -3.044  0.00  0.00    +0.163 HD
ATOM     30  H   UNL     1      -6.674   6.415  -3.099  0.00  0.00    +0.163 HD
ENDBRANCH  21  28
ENDBRANCH  16  17
ENDBRANCH   1  16
TORSDOF 8
