REMARK  Name = ZINC41076265
REMARK  5 active torsions:
REMARK  status: ('A' for Active; 'I' for Inactive)
REMARK    1  A    between atoms: C_4  and  C_7
REMARK    2  A    between atoms: C_7  and  C_8
REMARK    3  A    between atoms: C_14  and  C_15
REMARK    4  A    between atoms: C_18  and  S_20
REMARK    5  A    between atoms: S_20  and  C_21
REMARK                            x       y       z     vdW  Elec       q    Type
REMARK                         _______ _______ _______ _____ _____    ______ ____
ROOT
ATOM      1  C   UNL     1       5.396   1.571   1.593  0.00  0.00    +0.104 C 
ATOM      2  N   UNL     1       4.585   1.474   2.607  0.00  0.00    -0.169 NA
ATOM      3  N   UNL     1       4.854   0.628   3.661  0.00  0.00    -0.152 N 
ATOM      4  C   UNL     1       4.005   0.381   4.761  0.00  0.00    +0.153 C 
ATOM      5  N   UNL     1       2.711   0.581   4.729  0.00  0.00    -0.283 NA
ATOM      6  C   UNL     1       4.722  -0.128   5.958  0.00  0.00    +0.084 C 
ATOM      7  C   UNL     1       4.307   0.187   7.249  0.00  0.00    +0.063 C 
ATOM      8  C   UNL     1       5.900  -0.986   5.707  0.00  0.00    +0.273 C 
ATOM      9  O   UNL     1       6.272  -1.800   6.537  0.00  0.00    -0.268 OA
ATOM     10  N   UNL     1       6.551  -0.844   4.534  0.00  0.00    -0.152 NA
ATOM     11  C   UNL     1       6.050  -0.057   3.616  0.00  0.00    +0.181 C 
ATOM     12  S   UNL     1       6.694   0.423   2.035  0.00  0.00    -0.038 S 
ATOM     13  H   UNL     1       2.291   0.915   3.920  0.00  0.00    +0.188 HD
ENDROOT
BRANCH   7  14
ATOM     14  C   UNL     1       5.214   0.118   8.310  0.00  0.00    +0.130 A 
ATOM     15  C   UNL     1       4.903   0.246   9.660  0.00  0.00    +0.050 A 
ATOM     16  C   UNL     1       6.096   0.113  10.362  0.00  0.00    +0.057 A 
ATOM     17  C   UNL     1       7.095  -0.091   9.431  0.00  0.00    +0.167 A 
ATOM     18  O   UNL     1       6.546  -0.091   8.205  0.00  0.00    -0.449 OA
BRANCH  17  19
ATOM     19  S   UNL     1       8.804  -0.321   9.791  0.00  0.00    -0.051 S 
BRANCH  19  20
ATOM     20  C   UNL     1       9.442   1.318   9.891  0.00  0.00    +0.023 A 
ATOM     21  C   UNL     1       8.639   2.398   9.586  0.00  0.00    +0.016 A 
ATOM     22  C   UNL     1       9.134   3.696   9.662  0.00  0.00    +0.002 A 
ATOM     23  C   UNL     1      10.420   3.938  10.038  0.00  0.00    +0.008 A 
ATOM     24  C   UNL     1      11.271   2.866  10.358  0.00  0.00    -0.017 A 
ATOM     25  C   UNL     1      10.778   1.540  10.290  0.00  0.00    -0.004 A 
ATOM     26  C   UNL     1      11.628   0.471  10.615  0.00  0.00    +0.009 A 
ATOM     27  C   UNL     1      12.911   0.722  10.995  0.00  0.00    +0.001 A 
ATOM     28  C   UNL     1      13.396   2.026  11.068  0.00  0.00    +0.001 A 
ATOM     29  C   UNL     1      12.604   3.086  10.749  0.00  0.00    +0.008 A 
ENDBRANCH  19  20
ENDBRANCH  17  19
ENDBRANCH   7  14
BRANCH   1  30
ATOM     30  C   UNL     1       5.271   2.426   0.359  0.00  0.00    +0.099 C 
BRANCH  30  34
ATOM     31  C   UNL     1       1.668   4.712   0.570  0.00  0.00    +0.000 A 
ATOM     32  C   UNL     1       2.843   5.224   1.088  0.00  0.00    +0.000 A 
ATOM     33  C   UNL     1       4.008   4.484   1.020  0.00  0.00    +0.004 A 
ATOM     34  C   UNL     1       3.999   3.232   0.434  0.00  0.00    -0.041 A 
ATOM     35  C   UNL     1       2.825   2.720  -0.083  0.00  0.00    +0.004 A 
ATOM     36  C   UNL     1       1.659   3.460  -0.017  0.00  0.00    +0.000 A 
ENDBRANCH  30  34
ENDBRANCH   1  30
TORSDOF 5
