REMARK  Name = ZINC65608412
REMARK  5 active torsions:
REMARK  status: ('A' for Active; 'I' for Inactive)
REMARK    1  A    between atoms: C_1  and  C_2
REMARK    2  A    between atoms: C_2  and  C_4
REMARK    3  A    between atoms: C_2  and  N_12
REMARK    4  A    between atoms: C_13  and  C_15
REMARK    5  A    between atoms: C_24  and  C_26
REMARK                            x       y       z     vdW  Elec       q    Type
REMARK                         _______ _______ _______ _____ _____    ______ ____
ROOT
ATOM      1  N   UNL     1      -1.375  -0.505   0.013  0.00  0.00    -0.302 N 
ATOM      2  C   UNL     1      -2.053  -0.638  -1.144  0.00  0.00    +0.245 C 
ATOM      3  O   UNL     1      -1.524  -0.336  -2.197  0.00  0.00    -0.270 OA
ATOM      4  H   UNL     1      -1.796  -0.746   0.853  0.00  0.00    +0.150 HD
ENDROOT
BRANCH   2   5
ATOM      5  C   UNL     1      -3.437  -1.150  -1.134  0.00  0.00    +0.037 A 
ATOM      6  C   UNL     1      -4.051  -1.493   0.074  0.00  0.00    +0.015 A 
ATOM      7  C   UNL     1      -5.340  -1.970   0.080  0.00  0.00    +0.024 A 
ATOM      8  C   UNL     1      -6.048  -2.116  -1.119  0.00  0.00    +0.040 A 
ATOM      9  C   UNL     1      -5.434  -1.774  -2.316  0.00  0.00    -0.024 A 
ATOM     10  C   UNL     1      -4.144  -1.290  -2.330  0.00  0.00    +0.018 A 
ATOM     11  C   UNL     1      -6.409  -2.025  -3.445  0.00  0.00    +0.056 C 
ATOM     12  C   UNL     1      -7.672  -2.559  -2.750  0.00  0.00    +0.118 C 
ATOM     13  N   UNL     1      -7.348  -2.577  -1.322  0.00  0.00    -0.271 N 
ATOM     14  C   UNL     1      -8.185  -2.980  -0.345  0.00  0.00    +0.217 C 
ATOM     15  O   UNL     1      -7.793  -3.046   0.800  0.00  0.00    -0.276 OA
ATOM     16  C   UNL     1      -9.607  -3.351  -0.678  0.00  0.00    +0.109 C 
ENDBRANCH   2   5
BRANCH   1  18
ATOM     17  C   UNL     1      -0.023   1.533   0.010  0.00  0.00    +0.036 C 
ATOM     18  C   UNL     1      -0.001   0.003   0.003  0.00  0.00    +0.138 C 
BRANCH  18  19
ATOM     19  C   UNL     1       0.728  -0.495   1.224  0.00  0.00    +0.154 A 
ATOM     20  N   UNL     1       0.269  -0.514   2.446  0.00  0.00    -0.132 NA
ATOM     21  N   UNL     1       1.158  -1.003   3.235  0.00  0.00    -0.134 NA
ATOM     22  C   UNL     1       2.227  -1.317   2.552  0.00  0.00    +0.134 A 
ATOM     23  N   UNL     1       1.982  -1.011   1.258  0.00  0.00    -0.313 N 
ATOM     24  C   UNL     1       3.131  -1.345   0.408  0.00  0.00    +0.125 C 
ATOM     25  C   UNL     1       4.325  -1.513   1.373  0.00  0.00    +0.029 C 
ATOM     26  C   UNL     1       3.619  -1.894   2.691  0.00  0.00    +0.078 C 
ENDBRANCH  18  19
ENDBRANCH   1  18
TORSDOF 3
