REMARK  Name = ZINC39638612
REMARK  7 active torsions:
REMARK  status: ('A' for Active; 'I' for Inactive)
REMARK    1  A    between atoms: C_1  and  C_2
REMARK    2  A    between atoms: C_2  and  O_3
REMARK    3  A    between atoms: O_3  and  C_4
REMARK    4  A    between atoms: C_9  and  C_10
REMARK    5  A    between atoms: C_10  and  N_11
REMARK    6  A    between atoms: C_12  and  C_14
REMARK    7  A    between atoms: C_25  and  C_27
REMARK                            x       y       z     vdW  Elec       q    Type
REMARK                         _______ _______ _______ _____ _____    ______ ____
ROOT
ATOM      1  C   UNL     1      -5.551   0.325  -2.947  0.00  0.00    +0.100 C 
ATOM      2  C   UNL     1      -5.765  -0.859  -3.916  0.00  0.00    +0.121 C 
ATOM      3  N   UNL     1      -7.235  -1.040  -3.966  0.00  0.00    -0.300 N 
ATOM      4  C   UNL     1      -7.776   0.341  -3.967  0.00  0.00    +0.115 C 
ATOM      5  C   UNL     1      -6.871   1.112  -2.986  0.00  0.00    -0.004 C 
ATOM      6  C   UNL     1      -6.627   2.529  -3.496  0.00  0.00    -0.010 C 
ATOM      7  C   UNL     1      -7.944   3.310  -3.470  0.00  0.00    -0.082 C 
ATOM      8  N   UNL     1      -8.468   3.345  -2.100  0.00  0.00    +0.379 N 
ATOM      9  C   UNL     1      -8.788   1.984  -1.651  0.00  0.00    -0.082 C 
ATOM     10  C   UNL     1      -7.506   1.148  -1.599  0.00  0.00    -0.010 C 
ATOM     11  C   UNL     1      -7.924  -2.197  -4.003  0.00  0.00    +0.219 C 
ATOM     12  O   UNL     1      -9.136  -2.180  -4.043  0.00  0.00    -0.275 OA
ATOM     13  H   UNL     1      -7.775   3.746  -1.486  0.00  0.00    -0.086 HD
ATOM     14  H   UNL     1      -9.303   3.911  -2.075  0.00  0.00    -0.086 HD
ENDROOT
BRANCH   1  16
ATOM     15  N   UNL     1      -4.531   0.551  -0.704  0.00  0.00    -0.311 N 
ATOM     16  C   UNL     1      -5.282  -0.180  -1.552  0.00  0.00    +0.218 C 
ATOM     17  O   UNL     1      -5.741  -1.243  -1.194  0.00  0.00    -0.275 OA
ATOM     18  H   UNL     1      -4.164   1.401  -0.991  0.00  0.00    +0.149 HD
BRANCH  15  19
ATOM     19  C   UNL     1      -4.270   0.060   0.651  0.00  0.00    +0.143 C 
BRANCH  19  25
ATOM     20  C   UNL     1      -3.988   2.188   1.948  0.00  0.00    +0.125 A 
ATOM     21  C   UNL     1      -3.197   3.100   2.631  0.00  0.00    +0.046 A 
ATOM     22  C   UNL     1      -1.838   2.881   2.750  0.00  0.00    +0.004 A 
ATOM     23  C   UNL     1      -1.266   1.755   2.188  0.00  0.00    +0.001 A 
ATOM     24  C   UNL     1      -2.052   0.845   1.506  0.00  0.00    +0.009 A 
ATOM     25  C   UNL     1      -3.413   1.056   1.389  0.00  0.00    +0.011 A 
BRANCH  20  26
ATOM     26  O   UNL     1      -5.325   2.400   1.830  0.00  0.00    -0.492 OA
BRANCH  26  28
ATOM     27  C   UNL     1      -7.359   3.653   2.196  0.00  0.00    +0.048 C 
ATOM     28  C   UNL     1      -5.849   3.587   2.430  0.00  0.00    +0.225 C 
ENDBRANCH  26  28
ENDBRANCH  20  26
ENDBRANCH  19  25
ENDBRANCH  15  19
ENDBRANCH   1  16
BRANCH  11  29
ATOM     29  C   UNL     1      -7.189  -3.513  -3.996  0.00  0.00    +0.075 C 
ATOM     30  C   UNL     1      -6.682  -3.943  -5.382  0.00  0.00    +0.013 C 
ATOM     31  C   UNL     1      -7.101  -5.374  -5.004  0.00  0.00    +0.001 C 
ATOM     32  C   UNL     1      -8.117  -4.738  -4.042  0.00  0.00    +0.013 C 
ENDBRANCH  11  29
TORSDOF 6
