REMARK  Name = ZINC39467375
REMARK  4 active torsions:
REMARK  status: ('A' for Active; 'I' for Inactive)
REMARK    1  A    between atoms: C_4  and  C_7
REMARK    2  A    between atoms: C_7  and  C_8
REMARK    3  A    between atoms: P_24  and  C_27
REMARK    4  A    between atoms: C_32  and  O_33
REMARK                            x       y       z     vdW  Elec       q    Type
REMARK                         _______ _______ _______ _____ _____    ______ ____
ROOT
ATOM      1  C   UNL     1       4.164  -0.959   1.377  0.00  0.00    -0.029 C 
ATOM      2  C   UNL     1       3.892  -2.123   1.970  0.00  0.00    -0.019 C 
ATOM      3  C   UNL     1       4.370  -2.346   3.378  0.00  0.00    +0.005 C 
ATOM      4  C   UNL     1       4.486  -3.829   3.706  0.00  0.00    -0.046 C 
ATOM      5  N   UNL     1       4.914  -3.998   5.106  0.00  0.00    +0.398 N 
ATOM      6  C   UNL     1       6.214  -3.374   5.347  0.00  0.00    -0.020 C 
ATOM      7  C   UNL     1       6.186  -1.881   4.991  0.00  0.00    -0.003 C 
ATOM      8  C   UNL     1       5.761  -1.717   3.535  0.00  0.00    +0.017 C 
ATOM      9  C   UNL     1       5.684  -0.267   3.143  0.00  0.00    -0.003 C 
ATOM     10  C   UNL     1       4.916   0.076   2.109  0.00  0.00    +0.041 C 
ATOM     11 CL   UNL     1       4.797   1.741   1.632  0.00  0.00    -0.084 Cl
ATOM     12  C   UNL     1       6.614  -3.462   6.825  0.00  0.00    +0.157 C 
ATOM     13  O   UNL     1       6.734  -4.845   7.205  0.00  0.00    -0.316 OA
ATOM     14  P   UNL     1       5.502  -5.842   6.836  0.00  0.00    +0.291 P 
ATOM     15  O   UNL     1       4.415  -5.704   7.831  0.00  0.00    -0.269 OA
ATOM     16  N   UNL     1       4.985  -5.358   5.327  0.00  0.00    -0.288 NA
ATOM     17  H   UNL     1       4.730  -5.993   4.639  0.00  0.00    +0.111 HD
ATOM     18  H   UNL     1       4.224  -3.593   5.721  0.00  0.00    -0.055 HD
ENDROOT
BRANCH  14  19
ATOM     19  C   UNL     1       6.079  -7.560   6.772  0.00  0.00    +0.091 A 
ATOM     20  C   UNL     1       6.551  -8.087   5.586  0.00  0.00    +0.018 A 
ATOM     21  C   UNL     1       6.992  -9.397   5.537  0.00  0.00    +0.001 A 
ATOM     22  C   UNL     1       6.961 -10.182   6.674  0.00  0.00    +0.004 A 
ATOM     23  C   UNL     1       6.490  -9.660   7.863  0.00  0.00    +0.046 A 
ATOM     24  C   UNL     1       6.053  -8.344   7.916  0.00  0.00    +0.131 A 
BRANCH  24  25
ATOM     25  O   UNL     1       5.595  -7.826   9.086  0.00  0.00    -0.506 OA
ATOM     26  H   UNL     1       4.645  -7.943   9.223  0.00  0.00    +0.292 HD
ENDBRANCH  24  25
ENDBRANCH  14  19
BRANCH   1  27
ATOM     27  C   UNL     1       3.711  -0.707  -0.038  0.00  0.00    +0.071 C 
BRANCH  27  31
ATOM     28  C   UNL     1      -0.017   1.378   0.010  0.00  0.00    +0.000 A 
ATOM     29  C   UNL     1       1.171   2.086   0.002  0.00  0.00    +0.000 A 
ATOM     30  C   UNL     1       2.377   1.411  -0.013  0.00  0.00    +0.004 A 
ATOM     31  C   UNL     1       2.396   0.029  -0.020  0.00  0.00    -0.043 A 
ATOM     32  C   UNL     1       1.208  -0.679  -0.012  0.00  0.00    +0.004 A 
ATOM     33  C   UNL     1       0.002  -0.004   0.002  0.00  0.00    +0.000 A 
ENDBRANCH  27  31
ENDBRANCH   1  27
TORSDOF 4
