REMARK  Name = ZINC39379875
REMARK  6 active torsions:
REMARK  status: ('A' for Active; 'I' for Inactive)
REMARK    1  A    between atoms: C_1  and  C_2
REMARK    2  A    between atoms: C_5  and  C_9
REMARK    3  A    between atoms: C_7  and  C_8
REMARK    4  A    between atoms: C_13  and  C_15
REMARK    5  A    between atoms: C_15  and  N_16
REMARK    6  A    between atoms: N_19  and  C_23
REMARK                            x       y       z     vdW  Elec       q    Type
REMARK                         _______ _______ _______ _____ _____    ______ ____
ROOT
ATOM      1  C   UNL     1       1.317  -4.913  -2.082  0.00  0.00    -0.063 C 
ENDROOT
BRANCH   1   2
ATOM      2  N   UNL     1       1.240  -5.717  -3.309  0.00  0.00    +0.387 N 
ATOM      3  C   UNL     1       2.488  -5.570  -4.074  0.00  0.00    -0.059 C 
ATOM      4  C   UNL     1       2.495  -6.597  -5.207  0.00  0.00    +0.089 C 
ATOM      5  N   UNL     1       1.246  -6.516  -5.961  0.00  0.00    -0.302 N 
ATOM      6  C   UNL     1       0.152  -5.915  -5.479  0.00  0.00    +0.199 C 
ATOM      7  O   UNL     1      -0.854  -5.910  -6.157  0.00  0.00    -0.278 OA
ATOM      8  C   UNL     1       0.119  -5.248  -4.134  0.00  0.00    +0.019 C 
ATOM      9  H   UNL     1       1.100  -6.687  -3.070  0.00  0.00    -0.081 HD
BRANCH   5  10
ATOM     10  C   UNL     1       1.190  -7.114  -7.297  0.00  0.00    +0.076 C 
ATOM     11  C   UNL     1       0.856  -6.033  -8.326  0.00  0.00    +0.022 C 
ATOM     12  C   UNL     1       0.797  -6.659  -9.722  0.00  0.00    +0.002 C 
ATOM     13  C   UNL     1      -0.283  -7.742  -9.750  0.00  0.00    +0.000 C 
ATOM     14  C   UNL     1       0.051  -8.823  -8.720  0.00  0.00    +0.002 C 
ATOM     15  C   UNL     1       0.110  -8.197  -7.325  0.00  0.00    +0.022 C 
ENDBRANCH   5  10
ENDBRANCH   1   2
BRANCH   1  20
ATOM     16  C   UNL     1       0.059  -4.245  -0.021  0.00  0.00    +0.077 C 
ATOM     17  N   UNL     1       0.069  -5.038   1.015  0.00  0.00    -0.153 NA
ATOM     18  N   UNL     1       0.086  -6.380   0.649  0.00  0.00    -0.161 NA
ATOM     19  C   UNL     1       0.088  -6.544  -0.634  0.00  0.00    +0.115 C 
ATOM     20  C   UNL     1       0.065  -5.153  -1.235  0.00  0.00    +0.066 C 
BRANCH  16  25
ATOM     21  C   UNL     1      -0.018   1.503   0.010  0.00  0.00    +0.044 C 
ATOM     22  C   UNL     1       0.002  -0.004   0.002  0.00  0.00    -0.048 A 
ATOM     23  C   UNL     1       0.006  -0.686  -1.203  0.00  0.00    +0.004 A 
ATOM     24  C   UNL     1       0.024  -2.064  -1.218  0.00  0.00    +0.010 A 
ATOM     25  C   UNL     1       0.040  -2.774  -0.013  0.00  0.00    -0.001 A 
ATOM     26  C   UNL     1       0.036  -2.078   1.199  0.00  0.00    +0.013 A 
ATOM     27  C   UNL     1       0.023  -0.699   1.199  0.00  0.00    -0.047 A 
ATOM     28  C   UNL     1       0.025   0.054   2.504  0.00  0.00    +0.044 C 
ENDBRANCH  16  25
ENDBRANCH   1  20
TORSDOF 4
