REMARK  Name = ZINC40940292
REMARK  4 active torsions:
REMARK  status: ('A' for Active; 'I' for Inactive)
REMARK    1  A    between atoms: C_4  and  C_7
REMARK    2  A    between atoms: C_7  and  N_8
REMARK    3  A    between atoms: N_19  and  N_23
REMARK    4  A    between atoms: C_24  and  C_26
REMARK                            x       y       z     vdW  Elec       q    Type
REMARK                         _______ _______ _______ _____ _____    ______ ____
ROOT
ATOM      1  N   UNL     1       4.182  -0.968   1.326  0.00  0.00    -0.262 N 
ATOM      2  C   UNL     1       4.916  -0.064   2.086  0.00  0.00    +0.045 A 
ATOM      3  C   UNL     1       5.431   1.192   1.785  0.00  0.00    +0.024 A 
ATOM      4  C   UNL     1       6.139   1.897   2.738  0.00  0.00    +0.002 A 
ATOM      5  C   UNL     1       6.345   1.367   4.001  0.00  0.00    +0.001 A 
ATOM      6  C   UNL     1       5.841   0.122   4.319  0.00  0.00    +0.010 A 
ATOM      7  C   UNL     1       5.126  -0.598   3.365  0.00  0.00    +0.010 A 
ATOM      8  C   UNL     1       4.471  -1.922   3.379  0.00  0.00    +0.065 C 
ATOM      9  C   UNL     1       4.412  -2.821   4.426  0.00  0.00    +0.091 C 
ATOM     10  C   UNL     1       5.098  -2.786   5.747  0.00  0.00    +0.276 C 
ATOM     11  O   UNL     1       5.844  -1.878   6.058  0.00  0.00    -0.267 OA
ATOM     12  N   UNL     1       4.850  -3.796   6.563  0.00  0.00    -0.169 N 
ATOM     13  C   UNL     1       4.021  -4.800   6.213  0.00  0.00    +0.138 C 
ATOM     14  S   UNL     1       3.581  -6.180   7.127  0.00  0.00    -0.026 S 
ATOM     15  S   UNL     1       3.486  -4.343   4.573  0.00  0.00    -0.059 S 
ATOM     16  C   UNL     1       3.886  -2.074   2.031  0.00  0.00    +0.253 C 
ATOM     17  O   UNL     1       3.252  -3.031   1.629  0.00  0.00    -0.270 OA
ENDROOT
BRANCH  12  18
ATOM     18  N   UNL     1       5.464  -3.825   7.822  0.00  0.00    -0.222 N 
ATOM     19  C   UNL     1       4.749  -3.532   8.927  0.00  0.00    +0.261 C 
ATOM     20  O   UNL     1       3.572  -3.244   8.831  0.00  0.00    -0.269 OA
ATOM     21  H   UNL     1       6.403  -4.054   7.899  0.00  0.00    +0.174 HD
BRANCH  19  22
ATOM     22  C   UNL     1       5.397  -3.562  10.255  0.00  0.00    +0.038 A 
ATOM     23  C   UNL     1       6.750  -3.887  10.368  0.00  0.00    +0.014 A 
ATOM     24  C   UNL     1       7.349  -3.913  11.609  0.00  0.00    +0.021 A 
ATOM     25  C   UNL     1       6.611  -3.618  12.744  0.00  0.00    +0.041 A 
ATOM     26  C   UNL     1       5.268  -3.295  12.638  0.00  0.00    +0.021 A 
ATOM     27  C   UNL     1       4.660  -3.259  11.401  0.00  0.00    +0.014 A 
ATOM     28 CL   UNL     1       7.372  -3.653  14.304  0.00  0.00    -0.084 Cl
ENDBRANCH  19  22
ENDBRANCH  12  18
BRANCH   1  29
ATOM     29  C   UNL     1       3.777  -0.742  -0.064  0.00  0.00    +0.149 C 
BRANCH  29  33
ATOM     30  C   UNL     1      -0.026   1.201  -0.143  0.00  0.00    +0.000 A 
ATOM     31  C   UNL     1       1.133   1.953  -0.114  0.00  0.00    +0.000 A 
ATOM     32  C   UNL     1       2.364   1.324  -0.088  0.00  0.00    +0.005 A 
ATOM     33  C   UNL     1       2.435  -0.056  -0.091  0.00  0.00    -0.030 A 
ATOM     34  C   UNL     1       1.276  -0.808  -0.119  0.00  0.00    +0.005 A 
ATOM     35  C   UNL     1       0.045  -0.179  -0.146  0.00  0.00    +0.000 A 
ENDBRANCH  29  33
ENDBRANCH   1  29
TORSDOF 4
