REMARK  Name = ZINC09124118
REMARK  7 active torsions:
REMARK  status: ('A' for Active; 'I' for Inactive)
REMARK    1  A    between atoms: C_1  and  C_2
REMARK    2  A    between atoms: C_4  and  C_34
REMARK    3  A    between atoms: C_5  and  O_33
REMARK    4  A    between atoms: C_6  and  C_8
REMARK    5  A    between atoms: N_16  and  C_26
REMARK    6  A    between atoms: C_17  and  C_19
REMARK    7  A    between atoms: C_26  and  C_27
REMARK                            x       y       z     vdW  Elec       q    Type
REMARK                         _______ _______ _______ _____ _____    ______ ____
ROOT
ATOM      1  C   UNL     1       0.052  -2.841   2.463  0.00  0.00    +0.075 A 
ATOM      2  C   UNL     1       1.054  -3.632   2.928  0.00  0.00    +0.035 A 
ATOM      3  C   UNL     1       0.613  -4.128   4.175  0.00  0.00    +0.153 A 
ATOM      4  N   UNL     1      -0.588  -3.625   4.385  0.00  0.00    -0.168 NA
ATOM      5  N   UNL     1      -0.936  -2.868   3.406  0.00  0.00    -0.276 N 
ATOM      6  H   UNL     1      -1.777  -2.389   3.345  0.00  0.00    +0.189 HD
ATOM      7  C   UNL     1       1.674  -4.994   4.719  0.00  0.00    +0.268 C 
ATOM      8  O   UNL     1       1.613  -5.581   5.782  0.00  0.00    -0.268 OA
ATOM      9  N   UNL     1       2.717  -5.045   3.874  0.00  0.00    -0.281 N 
ATOM     10  C   UNL     1       2.424  -4.212   2.702  0.00  0.00    +0.142 C 
ENDROOT
BRANCH   1  16
ATOM     11  C   UNL     1      -0.018   1.503   0.010  0.00  0.00    +0.044 C 
ATOM     12  C   UNL     1       0.002  -0.004   0.002  0.00  0.00    -0.049 A 
ATOM     13  C   UNL     1       0.006  -0.687  -1.202  0.00  0.00    +0.010 A 
ATOM     14  C   UNL     1       0.024  -2.069  -1.221  0.00  0.00    -0.008 A 
ATOM     15  C   UNL     1       0.040  -2.779  -0.031  0.00  0.00    +0.129 A 
ATOM     16  C   UNL     1       0.036  -2.092   1.188  0.00  0.00    +0.042 A 
ATOM     17  C   UNL     1       0.023  -0.698   1.195  0.00  0.00    +0.017 A 
ATOM     18  C   UNL     1       0.028  -2.804  -2.536  0.00  0.00    +0.047 C 
BRANCH  15  19
ATOM     19  O   UNL     1       0.058  -4.137  -0.049  0.00  0.00    -0.506 OA
ATOM     20  H   UNL     1       0.946  -4.519  -0.058  0.00  0.00    +0.292 HD
ENDBRANCH  15  19
ENDBRANCH   1  16
BRANCH  10  21
ATOM     21  C   UNL     1       3.441  -3.107   2.585  0.00  0.00    -0.022 A 
ATOM     22  C   UNL     1       3.937  -2.501   3.724  0.00  0.00    +0.007 A 
ATOM     23  C   UNL     1       4.871  -1.488   3.618  0.00  0.00    +0.015 A 
ATOM     24  C   UNL     1       5.309  -1.079   2.371  0.00  0.00    +0.018 A 
ATOM     25  C   UNL     1       4.812  -1.685   1.231  0.00  0.00    +0.015 A 
ATOM     26  C   UNL     1       3.882  -2.702   1.339  0.00  0.00    +0.007 A 
ATOM     27 BR   UNL     1       6.585   0.308   2.224  0.00  0.00    -0.050 Br
ENDBRANCH  10  21
BRANCH   9  28
ATOM     28  C   UNL     1       3.950  -5.808   4.088  0.00  0.00    +0.145 C 
BRANCH  28  29
ATOM     29  C   UNL     1       3.791  -7.191   3.510  0.00  0.00    -0.012 A 
ATOM     30  C   UNL     1       3.288  -8.223   4.288  0.00  0.00    +0.008 A 
ATOM     31  C   UNL     1       3.160  -9.479   3.715  0.00  0.00    +0.020 A 
ATOM     32  C   UNL     1       3.534  -9.659   2.396  0.00  0.00    +0.111 A 
ATOM     33  N   UNL     1       4.009  -8.654   1.687  0.00  0.00    -0.263 NA
ATOM     34  C   UNL     1       4.139  -7.445   2.198  0.00  0.00    +0.115 A 
ENDBRANCH  28  29
ENDBRANCH   9  28
TORSDOF 5
