REMARK  Name = ZINC39595079
REMARK  6 active torsions:
REMARK  status: ('A' for Active; 'I' for Inactive)
REMARK    1  A    between atoms: C_3  and  C_7
REMARK    2  A    between atoms: C_7  and  C_9
REMARK    3  A    between atoms: C_7  and  N_33
REMARK    4  A    between atoms: C_9  and  N_10
REMARK    5  A    between atoms: C_11  and  C_13
REMARK    6  A    between atoms: C_24  and  C_26
REMARK                            x       y       z     vdW  Elec       q    Type
REMARK                         _______ _______ _______ _____ _____    ______ ____
ROOT
ATOM      1  C   UNL     1       7.671   3.635   2.878  0.00  0.00    +0.100 C 
ATOM      2  C   UNL     1       7.908   5.100   2.448  0.00  0.00    +0.121 C 
ATOM      3  N   UNL     1       7.722   5.889   3.688  0.00  0.00    -0.300 N 
ATOM      4  C   UNL     1       8.348   5.063   4.748  0.00  0.00    +0.115 C 
ATOM      5  C   UNL     1       7.965   3.614   4.387  0.00  0.00    -0.004 C 
ATOM      6  C   UNL     1       9.125   2.670   4.687  0.00  0.00    -0.010 C 
ATOM      7  C   UNL     1       9.360   2.621   6.199  0.00  0.00    -0.082 C 
ATOM      8  N   UNL     1       8.140   2.157   6.871  0.00  0.00    +0.379 N 
ATOM      9  C   UNL     1       7.053   3.119   6.655  0.00  0.00    -0.082 C 
ATOM     10  C   UNL     1       6.720   3.189   5.162  0.00  0.00    -0.010 C 
ATOM     11  C   UNL     1       7.119   7.087   3.823  0.00  0.00    +0.219 C 
ATOM     12  O   UNL     1       6.580   7.605   2.868  0.00  0.00    -0.275 OA
ATOM     13  H   UNL     1       7.872   1.259   6.497  0.00  0.00    -0.086 HD
ATOM     14  H   UNL     1       8.316   2.067   7.861  0.00  0.00    -0.086 HD
ENDROOT
BRANCH  11  15
ATOM     15  C   UNL     1       7.116   7.783   5.160  0.00  0.00    +0.079 C 
ATOM     16  C   UNL     1       6.234   9.036   5.086  0.00  0.00    +0.017 C 
ATOM     17  C   UNL     1       6.106   9.621   6.494  0.00  0.00    +0.027 C 
ATOM     18  C   UNL     1       7.461   9.747   7.127  0.00  0.00    -0.031 C 
ATOM     19  C   UNL     1       8.518   9.131   6.706  0.00  0.00    -0.030 C 
ATOM     20  C   UNL     1       8.541   8.209   5.521  0.00  0.00    +0.039 C 
ENDBRANCH  11  15
BRANCH   1  22
ATOM     21  N   UNL     1       5.942   1.953   2.329  0.00  0.00    -0.316 N 
ATOM     22  C   UNL     1       6.242   3.235   2.615  0.00  0.00    +0.218 C 
ATOM     23  O   UNL     1       5.361   4.068   2.662  0.00  0.00    -0.275 OA
ATOM     24  H   UNL     1       6.647   1.287   2.293  0.00  0.00    +0.149 HD
BRANCH  21  25
ATOM     25  C   UNL     1       4.553   1.564   2.075  0.00  0.00    +0.093 C 
BRANCH  25  26
ATOM     26  C   UNL     1       4.472   0.047   1.897  0.00  0.00    -0.019 C 
BRANCH  26  29
ATOM     27  C   UNL     1       7.210  -1.234  -0.361  0.00  0.00    +0.020 A 
ATOM     28  C   UNL     1       6.532  -0.874   0.794  0.00  0.00    +0.005 A 
ATOM     29  C   UNL     1       5.251  -0.358   0.672  0.00  0.00    -0.041 A 
ATOM     30  C   UNL     1       4.697  -0.220  -0.587  0.00  0.00    +0.112 A 
ATOM     31  N   UNL     1       5.371  -0.573  -1.663  0.00  0.00    -0.263 NA
ATOM     32  C   UNL     1       6.592  -1.067  -1.585  0.00  0.00    +0.111 A 
ENDBRANCH  26  29
BRANCH  26  33
ATOM     33  N   UNL     1       3.067  -0.353   1.739  0.00  0.00    +0.385 N 
ATOM     34  C   UNL     1       2.954  -1.834   1.732  0.00  0.00    -0.078 C 
ATOM     35  C   UNL     1       1.476  -2.079   2.127  0.00  0.00    -0.020 C 
ATOM     36  C   UNL     1       1.211  -0.974   3.175  0.00  0.00    -0.020 C 
ATOM     37  C   UNL     1       2.272   0.107   2.898  0.00  0.00    -0.078 C 
ATOM     38  H   UNL     1       2.690   0.029   0.885  0.00  0.00    -0.081 HD
ENDBRANCH  26  33
ENDBRANCH  25  26
ENDBRANCH  21  25
ENDBRANCH   1  22
TORSDOF 6
