REMARK  Name = ZINC49106275
REMARK  11 active torsions:
REMARK  status: ('A' for Active; 'I' for Inactive)
REMARK    1  A    between atoms: C_1  and  C_2
REMARK    2  A    between atoms: C_2  and  C_3
REMARK    3  A    between atoms: C_3  and  C_5
REMARK    4  A    between atoms: C_3  and  C_6
REMARK    5  A    between atoms: C_6  and  C_8
REMARK    6  A    between atoms: C_6  and  N_9
REMARK    7  A    between atoms: N_9  and  S_10
REMARK    8  A    between atoms: S_10  and  C_13
REMARK    9  A    between atoms: C_16  and  C_20
REMARK   10  A    between atoms: C_21  and  C_22
REMARK   11  A    between atoms: C_22  and  N_23
REMARK                            x       y       z     vdW  Elec       q    Type
REMARK                         _______ _______ _______ _____ _____    ______ ____
ROOT
ATOM      1  C   UNL     1      -0.921  -3.202  -3.972  0.00  0.00    +0.124 A 
ATOM      2  C   UNL     1      -1.155  -3.236  -5.335  0.00  0.00    +0.031 A 
ATOM      3  C   UNL     1      -2.360  -2.794  -5.842  0.00  0.00    +0.019 A 
ATOM      4  C   UNL     1      -3.344  -2.312  -4.978  0.00  0.00    +0.026 A 
ATOM      5  C   UNL     1      -3.102  -2.280  -3.604  0.00  0.00    +0.038 A 
ATOM      6  C   UNL     1      -1.895  -2.730  -3.108  0.00  0.00    +0.068 A 
ATOM      7 CL   UNL     1      -1.594  -2.698  -1.399  0.00  0.00    -0.081 Cl
ENDROOT
BRANCH   1   8
ATOM      8  S   UNL     1       0.620  -3.769  -3.332  0.00  0.00    +0.060 S 
ATOM      9  O   UNL     1       1.410  -4.146  -4.451  0.00  0.00    -0.153 OA
ATOM     10  O   UNL     1       0.314  -4.670  -2.277  0.00  0.00    -0.153 OA
BRANCH   8  11
ATOM     11  N   UNL     1       1.371  -2.466  -2.639  0.00  0.00    -0.187 NA
ATOM     12  H   UNL     1       1.527  -2.448  -1.682  0.00  0.00    +0.148 HD
BRANCH  11  13
ATOM     13  C   UNL     1       1.800  -1.339  -3.473  0.00  0.00    +0.076 C 
ATOM     14  C   UNL     1       0.729  -0.247  -3.446  0.00  0.00    +0.026 C 
BRANCH  13  15
ATOM     15  C   UNL     1       3.116  -0.777  -2.931  0.00  0.00    +0.004 C 
ATOM     16  C   UNL     1       2.912  -0.298  -1.492  0.00  0.00    +0.009 C 
BRANCH  15  18
ATOM     17  C   UNL     1       4.940   0.882  -3.336  0.00  0.00    +0.004 C 
ATOM     18  C   UNL     1       3.564   0.399  -3.801  0.00  0.00    +0.001 C 
ENDBRANCH  15  18
ENDBRANCH  13  15
ENDBRANCH  11  13
ENDBRANCH   8  11
ENDBRANCH   1   8
BRANCH   4  19
ATOM     19  C   UNL     1      -4.595  -1.851  -5.499  0.00  0.00    -0.068 C 
ATOM     20  C   UNL     1      -5.622  -1.473  -5.926  0.00  0.00    -0.117 C 
BRANCH  20  21
ATOM     21  C   UNL     1      -6.908  -1.000  -6.462  0.00  0.00    +0.005 C 
BRANCH  21  22
ATOM     22  N   UNL     1      -7.763  -0.547  -5.355  0.00  0.00    +0.385 N 
ATOM     23  H   UNL     1      -7.924  -1.315  -4.720  0.00  0.00    -0.089 HD
ATOM     24  H   UNL     1      -7.305   0.206  -4.864  0.00  0.00    -0.089 HD
ATOM     25  H   UNL     1      -8.645  -0.223  -5.722  0.00  0.00    -0.089 HD
ENDBRANCH  21  22
ENDBRANCH  20  21
ENDBRANCH   4  19
TORSDOF 8
