REMARK  Name = ZINC12596360
REMARK  8 active torsions:
REMARK  status: ('A' for Active; 'I' for Inactive)
REMARK    1  A    between atoms: C_1  and  C_2
REMARK    2  A    between atoms: C_2  and  C_3
REMARK    3  A    between atoms: C_6  and  C_9
REMARK    4  A    between atoms: C_13  and  S_15
REMARK    5  A    between atoms: S_15  and  C_16
REMARK    6  A    between atoms: C_16  and  C_17
REMARK    7  A    between atoms: N_22  and  S_25
REMARK    8  A    between atoms: S_25  and  C_28
REMARK                            x       y       z     vdW  Elec       q    Type
REMARK                         _______ _______ _______ _____ _____    ______ ____
ROOT
ATOM      1  C   UNL     1       8.389  -3.085  -5.615  0.00  0.00    +0.226 C 
ATOM      2  O   UNL     1       8.636  -3.461  -6.742  0.00  0.00    -0.275 OA
ATOM      3  N   UNL     1       9.380  -2.983  -4.707  0.00  0.00    -0.298 N 
ATOM      4  C   UNL     1       9.095  -2.535  -3.337  0.00  0.00    +0.125 C 
ATOM      5  C   UNL     1       9.615  -3.594  -2.357  0.00  0.00    +0.128 C 
ATOM      6  N   UNL     1      11.000  -3.929  -2.719  0.00  0.00    -0.174 NA
ATOM      7  C   UNL     1      11.284  -4.377  -4.089  0.00  0.00    +0.128 C 
ATOM      8  C   UNL     1      10.763  -3.324  -5.068  0.00  0.00    +0.125 C 
ENDROOT
BRANCH   6   9
ATOM      9  S   UNL     1      12.217  -3.804  -1.603  0.00  0.00    +0.061 S 
ATOM     10  O   UNL     1      13.423  -3.637  -2.335  0.00  0.00    -0.153 OA
ATOM     11  O   UNL     1      11.780  -2.865  -0.630  0.00  0.00    -0.153 OA
BRANCH   9  12
ATOM     12  C   UNL     1      12.336  -5.359  -0.785  0.00  0.00    +0.106 A 
ATOM     13  C   UNL     1      11.588  -5.600   0.353  0.00  0.00    +0.030 A 
ATOM     14  C   UNL     1      11.681  -6.821   0.996  0.00  0.00    +0.022 A 
ATOM     15  C   UNL     1      12.522  -7.801   0.500  0.00  0.00    +0.041 A 
ATOM     16  C   UNL     1      13.270  -7.559  -0.639  0.00  0.00    +0.022 A 
ATOM     17  C   UNL     1      13.172  -6.340  -1.284  0.00  0.00    +0.030 A 
ATOM     18 CL   UNL     1      12.639  -9.334   1.307  0.00  0.00    -0.084 Cl
ENDBRANCH   9  12
ENDBRANCH   6   9
BRANCH   1  19
ATOM     19  C   UNL     1       6.976  -2.732  -5.231  0.00  0.00    +0.173 C 
BRANCH  19  20
ATOM     20  S   UNL     1       5.883  -2.972  -6.659  0.00  0.00    -0.077 S 
BRANCH  20  25
ATOM     21  C   UNL     1       2.698  -1.863  -4.736  0.00  0.00    +0.182 A 
ATOM     22  N   UNL     1       2.126  -2.110  -5.893  0.00  0.00    -0.152 NA
ATOM     23  H   UNL     1       3.033  -2.797  -7.695  0.00  0.00    +0.191 HD
ATOM     24  N   UNL     1       3.139  -2.540  -6.766  0.00  0.00    -0.253 N 
ATOM     25  C   UNL     1       4.289  -2.523  -6.056  0.00  0.00    +0.185 A 
ATOM     26  N   UNL     1       4.012  -2.109  -4.840  0.00  0.00    -0.201 NA
BRANCH  21  30
ATOM     27  C   UNL     1       0.707  -0.490  -1.238  0.00  0.00    -0.048 A 
ATOM     28  C   UNL     1      -0.013  -0.718  -2.396  0.00  0.00    +0.004 A 
ATOM     29  C   UNL     1       0.627  -1.163  -3.534  0.00  0.00    +0.012 A 
ATOM     30  C   UNL     1       2.003  -1.383  -3.515  0.00  0.00    +0.021 A 
ATOM     31  C   UNL     1       2.724  -1.152  -2.346  0.00  0.00    +0.012 A 
ATOM     32  C   UNL     1       2.074  -0.701  -1.215  0.00  0.00    +0.004 A 
BRANCH  27  34
ATOM     33  C   UNL     1      -0.019   1.526   0.010  0.00  0.00    +0.009 C 
ATOM     34  C   UNL     1       0.002  -0.004   0.002  0.00  0.00    +0.032 C 
ENDBRANCH  27  34
ENDBRANCH  21  30
ENDBRANCH  20  25
ENDBRANCH  19  20
ENDBRANCH   1  19
TORSDOF 7
