REMARK  Name = ZINC35926612
REMARK  5 active torsions:
REMARK  status: ('A' for Active; 'I' for Inactive)
REMARK    1  A    between atoms: C_3  and  C_6
REMARK    2  A    between atoms: C_20  and  C_22
REMARK    3  A    between atoms: C_22  and  N_23
REMARK    4  A    between atoms: N_26  and  C_29
REMARK    5  A    between atoms: C_29  and  C_30
REMARK                            x       y       z     vdW  Elec       q    Type
REMARK                         _______ _______ _______ _____ _____    ______ ____
ROOT
ATOM      1  C   UNL     1       3.696   1.677  -2.414  0.00  0.00    +0.253 C 
ATOM      2  O   UNL     1       2.551   1.331  -2.191  0.00  0.00    -0.269 OA
ATOM      3  N   UNL     1       4.669   0.751  -2.530  0.00  0.00    -0.294 N 
ATOM      4  C   UNL     1       6.083   1.151  -2.558  0.00  0.00    +0.127 C 
ATOM      5  C   UNL     1       6.828   0.394  -1.452  0.00  0.00    +0.127 C 
ATOM      6  N   UNL     1       6.494  -1.033  -1.552  0.00  0.00    -0.298 N 
ATOM      7  C   UNL     1       5.080  -1.433  -1.525  0.00  0.00    +0.127 C 
ATOM      8  C   UNL     1       4.335  -0.677  -2.625  0.00  0.00    +0.127 C 
ATOM      9  C   UNL     1       7.482  -1.973  -1.670  0.00  0.00    +0.198 A 
ATOM     10  N   UNL     1       8.784  -1.592  -1.566  0.00  0.00    -0.295 N 
ATOM     11  H   UNL     1       9.007  -0.661  -1.410  0.00  0.00    +0.172 HD
ATOM     12  C   UNL     1       9.764  -2.513  -1.681  0.00  0.00    +0.253 A 
ATOM     13  O   UNL     1      10.936  -2.188  -1.589  0.00  0.00    -0.268 OA
ATOM     14  C   UNL     1       9.407  -3.854  -1.907  0.00  0.00    +0.091 A 
ATOM     15  C   UNL     1       8.085  -4.178  -2.002  0.00  0.00    +0.034 A 
ATOM     16  N   UNL     1       7.155  -3.234  -1.877  0.00  0.00    -0.223 NA
ENDROOT
BRANCH   1  19
ATOM     17  C   UNL     1       3.799   5.428  -2.551  0.00  0.00    +0.008 A 
ATOM     18  C   UNL     1       3.212   4.205  -2.329  0.00  0.00    +0.021 A 
ATOM     19  C   UNL     1       4.018   3.100  -2.557  0.00  0.00    +0.074 A 
ATOM     20  S   UNL     1       5.546   3.861  -3.068  0.00  0.00    -0.092 S 
ATOM     21  C   UNL     1       5.089   5.474  -2.966  0.00  0.00    +0.046 A 
ENDBRANCH   1  19
BRANCH  15  22
ATOM     22  C   UNL     1       7.676  -5.608  -2.244  0.00  0.00    -0.022 C 
BRANCH  22  23
ATOM     23  N   UNL     1       6.939  -6.111  -1.077  0.00  0.00    +0.385 N 
ATOM     24  C   UNL     1       7.835  -6.153   0.086  0.00  0.00    -0.063 C 
ATOM     25  C   UNL     1       7.062  -6.659   1.307  0.00  0.00    +0.066 C 
ATOM     26  N   UNL     1       6.533  -8.001   1.026  0.00  0.00    -0.302 NA
ATOM     27  C   UNL     1       5.654  -7.979  -0.151  0.00  0.00    +0.066 C 
ATOM     28  C   UNL     1       6.438  -7.463  -1.360  0.00  0.00    -0.063 C 
ATOM     29  H   UNL     1       6.162  -5.499  -0.881  0.00  0.00    -0.081 HD
BRANCH  26  30
ATOM     30  C   UNL     1       5.832  -8.545   2.197  0.00  0.00    +0.119 C 
BRANCH  30  31
ATOM     31  C   UNL     1       5.519 -10.001   1.963  0.00  0.00    -0.033 A 
ATOM     32  C   UNL     1       4.328 -10.364   1.362  0.00  0.00    +0.006 A 
ATOM     33  C   UNL     1       4.041 -11.699   1.147  0.00  0.00    +0.020 A 
ATOM     34  C   UNL     1       4.946 -12.672   1.533  0.00  0.00    +0.041 A 
ATOM     35  C   UNL     1       6.138 -12.308   2.134  0.00  0.00    +0.020 A 
ATOM     36  C   UNL     1       6.427 -10.972   2.343  0.00  0.00    +0.006 A 
ATOM     37 CL   UNL     1       4.586 -14.348   1.264  0.00  0.00    -0.084 Cl
ENDBRANCH  30  31
ENDBRANCH  26  30
ENDBRANCH  22  23
ENDBRANCH  15  22
TORSDOF 5
