REMARK  Name = ZINC53945247
REMARK  4 active torsions:
REMARK  status: ('A' for Active; 'I' for Inactive)
REMARK    1  A    between atoms: C_4  and  C_7
REMARK    2  A    between atoms: C_7  and  C_9
REMARK    3  A    between atoms: C_7  and  S_23
REMARK    4  A    between atoms: S_23  and  C_24
REMARK                            x       y       z     vdW  Elec       q    Type
REMARK                         _______ _______ _______ _____ _____    ______ ____
ROOT
ATOM      1  C   UNL     1       3.790  -1.566  -1.273  0.00  0.00    +0.233 C 
ATOM      2  O   UNL     1       3.558  -2.755  -1.201  0.00  0.00    -0.274 OA
ATOM      3  N   UNL     1       4.121  -1.015  -2.458  0.00  0.00    -0.300 N 
ATOM      4  C   UNL     1       4.090  -1.815  -3.689  0.00  0.00    +0.110 C 
ATOM      5  C   UNL     1       3.211  -1.097  -4.720  0.00  0.00    +0.054 C 
ATOM      6  C   UNL     1       3.706   0.335  -4.897  0.00  0.00    +0.115 C 
ATOM      7  C   UNL     1       3.639   1.098  -3.578  0.00  0.00    +0.054 C 
ATOM      8  C   UNL     1       4.514   0.399  -2.540  0.00  0.00    +0.110 C 
ATOM      9  C   UNL     1       2.898   1.045  -5.959  0.00  0.00    +0.244 C 
ATOM     10  O   UNL     1       1.708   1.271  -5.947  0.00  0.00    -0.273 OA
ATOM     11  N   UNL     1       3.783   1.375  -6.924  0.00  0.00    -0.238 N 
ATOM     12  C   UNL     1       5.022   0.973  -6.615  0.00  0.00    +0.307 C 
ATOM     13  O   UNL     1       5.989   1.156  -7.328  0.00  0.00    -0.252 OA
ATOM     14  N   UNL     1       5.076   0.344  -5.426  0.00  0.00    -0.285 N 
ATOM     15  H   UNL     1       3.549   1.844  -7.740  0.00  0.00    +0.159 HD
ATOM     16  H   UNL     1       5.865  -0.030  -5.002  0.00  0.00    +0.151 HD
ENDROOT
BRANCH   1  17
ATOM     17  C   UNL     1       3.708  -0.707  -0.038  0.00  0.00    +0.167 C 
BRANCH  17  21
ATOM     18  C   UNL     1      -0.038   1.347   0.018  0.00  0.00    +0.000 A 
ATOM     19  C   UNL     1       1.143   2.064   0.006  0.00  0.00    +0.000 A 
ATOM     20  C   UNL     1       2.356   1.400  -0.012  0.00  0.00    +0.005 A 
ATOM     21  C   UNL     1       2.386   0.018  -0.018  0.00  0.00    -0.025 A 
ATOM     22  C   UNL     1       1.205  -0.700  -0.005  0.00  0.00    +0.005 A 
ATOM     23  C   UNL     1      -0.007  -0.035   0.012  0.00  0.00    +0.000 A 
ENDBRANCH  17  21
BRANCH  17  24
ATOM     24  S   UNL     1       3.847  -1.753   1.437  0.00  0.00    -0.108 S 
BRANCH  24  25
ATOM     25  C   UNL     1       3.883  -0.604   2.772  0.00  0.00    +0.009 A 
ATOM     26  C   UNL     1       3.802   0.761   2.520  0.00  0.00    +0.015 A 
ATOM     27  C   UNL     1       3.830   1.658   3.569  0.00  0.00    +0.001 A 
ATOM     28  C   UNL     1       3.939   1.201   4.870  0.00  0.00    +0.000 A 
ATOM     29  C   UNL     1       4.020  -0.156   5.125  0.00  0.00    +0.001 A 
ATOM     30  C   UNL     1       3.986  -1.060   4.081  0.00  0.00    +0.015 A 
ENDBRANCH  24  25
ENDBRANCH  17  24
ENDBRANCH   1  17
TORSDOF 4
