REMARK  Name = ZINC04336178
REMARK  7 active torsions:
REMARK  status: ('A' for Active; 'I' for Inactive)
REMARK    1  A    between atoms: C_1  and  C_2
REMARK    2  A    between atoms: C_5  and  S_8
REMARK    3  A    between atoms: S_8  and  N_11
REMARK    4  A    between atoms: N_11  and  N_12
REMARK    5  A    between atoms: C_24  and  C_26
REMARK    6  A    between atoms: C_26  and  C_27
REMARK    7  A    between atoms: C_27  and  C_28
REMARK                            x       y       z     vdW  Elec       q    Type
REMARK                         _______ _______ _______ _____ _____    ______ ____
ROOT
ATOM      1  N   UNL     1      -2.064   1.644  -1.229  0.00  0.00    -0.175 NA
ATOM      2  C   UNL     1      -0.800   1.806  -1.111  0.00  0.00    +0.041 C 
ATOM      3  C   UNL     1      -0.116   1.474   0.190  0.00  0.00    +0.053 C 
ATOM      4  C   UNL     1      -0.823   2.198   1.337  0.00  0.00    +0.006 C 
ATOM      5  C   UNL     1       0.169   3.122   2.046  0.00  0.00    +0.000 C 
ATOM      6  C   UNL     1      -0.432   4.524   2.162  0.00  0.00    +0.000 C 
ATOM      7  C   UNL     1       0.552   5.549   1.596  0.00  0.00    +0.000 C 
ATOM      8  C   UNL     1      -0.150   6.396   0.532  0.00  0.00    +0.000 C 
ATOM      9  C   UNL     1       0.673   6.378  -0.758  0.00  0.00    +0.000 C 
ATOM     10  C   UNL     1      -0.219   5.956  -1.927  0.00  0.00    +0.000 C 
ATOM     11  C   UNL     1       0.415   4.765  -2.648  0.00  0.00    +0.001 C 
ATOM     12  C   UNL     1      -0.612   3.638  -2.772  0.00  0.00    +0.009 C 
ATOM     13  C   UNL     1       0.005   2.329  -2.273  0.00  0.00    +0.036 C 
ENDROOT
BRANCH   1  14
ATOM     14  N   UNL     1      -2.700   1.953  -2.439  0.00  0.00    -0.137 N 
ATOM     15  H   UNL     1      -2.182   2.290  -3.187  0.00  0.00    +0.197 HD
BRANCH  14  16
ATOM     16  S   UNL     1      -4.335   1.744  -2.592  0.00  0.00    +0.086 S 
ATOM     17  O   UNL     1      -4.696   2.272  -3.861  0.00  0.00    -0.149 OA
ATOM     18  O   UNL     1      -4.609   0.399  -2.221  0.00  0.00    -0.149 OA
BRANCH  16  23
ATOM     19  C   UNL     1      -6.977   5.247   1.549  0.00  0.00    +0.044 C 
ATOM     20  C   UNL     1      -6.318   4.372   0.515  0.00  0.00    -0.050 A 
ATOM     21  C   UNL     1      -6.056   4.871  -0.748  0.00  0.00    +0.005 A 
ATOM     22  C   UNL     1      -5.451   4.068  -1.696  0.00  0.00    +0.029 A 
ATOM     23  C   UNL     1      -5.107   2.767  -1.383  0.00  0.00    +0.110 A 
ATOM     24  C   UNL     1      -5.373   2.266  -0.122  0.00  0.00    +0.029 A 
ATOM     25  C   UNL     1      -5.974   3.070   0.828  0.00  0.00    +0.005 A 
ENDBRANCH  16  23
ENDBRANCH  14  16
ENDBRANCH   1  14
BRANCH  13  26
ATOM     26  C   UNL     1       1.445   2.583  -1.823  0.00  0.00    +0.024 C 
BRANCH  26  27
ATOM     27  C   UNL     1       2.137   1.246  -1.549  0.00  0.00    +0.119 C 
BRANCH  27  28
ATOM     28  C   UNL     1       3.476   1.492  -0.989  0.00  0.00    +0.063 C 
ATOM     29  N   UNL     1       4.509   1.683  -0.557  0.00  0.00    -0.197 NA
ENDBRANCH  27  28
ENDBRANCH  26  27
ENDBRANCH  13  26
TORSDOF 6
