REMARK  Name = ZINC20509631
REMARK  5 active torsions:
REMARK  status: ('A' for Active; 'I' for Inactive)
REMARK    1  A    between atoms: C_4  and  C_7
REMARK    2  A    between atoms: C_7  and  C_9
REMARK    3  A    between atoms: C_7  and  N_21
REMARK    4  A    between atoms: C_12  and  C_14
REMARK    5  A    between atoms: C_24  and  C_27
REMARK                            x       y       z     vdW  Elec       q    Type
REMARK                         _______ _______ _______ _____ _____    ______ ____
ROOT
ATOM      1  C   UNL     1       4.510   6.897  -0.003  0.00  0.00    +0.052 C 
ENDROOT
BRANCH   1   2
ATOM      2  N   UNL     1       5.620   6.920   0.959  0.00  0.00    +0.390 N 
ATOM      3  C   UNL     1       6.684   5.992   0.558  0.00  0.00    -0.077 C 
ATOM      4  C   UNL     1       7.881   6.148   1.499  0.00  0.00    -0.006 C 
ATOM      5  C   UNL     1       7.437   5.854   2.934  0.00  0.00    +0.071 C 
ATOM      6  C   UNL     1       6.295   6.802   3.311  0.00  0.00    -0.006 C 
ATOM      7  C   UNL     1       5.144   6.627   2.317  0.00  0.00    -0.077 C 
ATOM      8  H   UNL     1       6.044   7.935   0.965  0.00  0.00    -0.080 HD
BRANCH   5   9
ATOM      9  C   UNL     1       8.596   6.064   3.874  0.00  0.00    +0.213 C 
ATOM     10  O   UNL     1       8.518   6.889   4.759  0.00  0.00    -0.276 OA
ATOM     11  N   UNL     1       9.719   5.333   3.732  0.00  0.00    -0.329 N 
ATOM     12  H   UNL     1      10.565   5.486   4.418  0.00  0.00    +0.145 HD
ATOM     13  H   UNL     1       9.790   4.584   2.930  0.00  0.00    +0.145 HD
ENDBRANCH   5   9
ENDBRANCH   1   2
BRANCH   1  17
ATOM     14  C   UNL     1       5.984   7.849  -3.898  0.00  0.00    +0.000 A 
ATOM     15  C   UNL     1       5.029   6.861  -3.743  0.00  0.00    +0.000 A 
ATOM     16  C   UNL     1       4.552   6.553  -2.482  0.00  0.00    +0.002 A 
ATOM     17  C   UNL     1       5.030   7.232  -1.377  0.00  0.00    -0.052 A 
ATOM     18  C   UNL     1       5.981   8.224  -1.533  0.00  0.00    +0.002 A 
ATOM     19  C   UNL     1       6.461   8.529  -2.793  0.00  0.00    +0.000 A 
ENDBRANCH   1  17
BRANCH   1  20
ATOM     20  C   UNL     1       3.890   5.523  -0.022  0.00  0.00    +0.209 A 
ATOM     21  N   UNL     1       4.533   4.389  -0.056  0.00  0.00    -0.113 NA
ATOM     22  N   UNL     1       3.690   3.417  -0.057  0.00  0.00    -0.107 NA
ATOM     23  C   UNL     1       2.470   3.902  -0.034  0.00  0.00    +0.250 A 
ATOM     24  O   UNL     1       2.575   5.246  -0.008  0.00  0.00    -0.422 OA
BRANCH  23  25
ATOM     25  C   UNL     1       1.216   3.120  -0.030  0.00  0.00    +0.057 A 
ATOM     26  C   UNL     1       1.259   1.726  -0.060  0.00  0.00    +0.015 A 
ATOM     27  C   UNL     1       0.085   1.002  -0.056  0.00  0.00    +0.001 A 
ATOM     28  C   UNL     1      -1.135   1.655  -0.028  0.00  0.00    +0.001 A 
ATOM     29  C   UNL     1      -1.186   3.037   0.006  0.00  0.00    +0.021 A 
ATOM     30  C   UNL     1      -0.018   3.774   0.003  0.00  0.00    +0.053 A 
ATOM     31 CL   UNL     1      -0.083   5.508   0.040  0.00  0.00    -0.083 Cl
ENDBRANCH  23  25
ENDBRANCH   1  20
TORSDOF 5
