REMARK  Name = ZINC11423932
REMARK  11 active torsions:
REMARK  status: ('A' for Active; 'I' for Inactive)
REMARK    1  A    between atoms: C_1  and  C_2
REMARK    2  A    between atoms: C_2  and  C_3
REMARK    3  A    between atoms: C_2  and  N_4
REMARK    4  A    between atoms: N_4  and  S_5
REMARK    5  A    between atoms: S_5  and  C_8
REMARK    6  A    between atoms: C_12  and  C_14
REMARK    7  A    between atoms: N_16  and  C_17
REMARK    8  A    between atoms: C_19  and  C_24
REMARK    9  A    between atoms: C_19  and  C_25
REMARK   10  A    between atoms: C_20  and  C_22
REMARK   11  A    between atoms: C_20  and  C_23
REMARK                            x       y       z     vdW  Elec       q    Type
REMARK                         _______ _______ _______ _____ _____    ______ ____
ROOT
ATOM      1  C   UNL     1      -5.162  -1.928   2.011  0.00  0.00    +0.246 C 
ATOM      2  O   UNL     1      -6.256  -1.697   2.488  0.00  0.00    -0.270 OA
ATOM      3  N   UNL     1      -4.998  -2.974   1.178  0.00  0.00    -0.309 N 
ATOM      4  H   UNL     1      -4.125  -3.158   0.797  0.00  0.00    +0.149 HD
ENDROOT
BRANCH   3   5
ATOM      5  C   UNL     1      -6.140  -3.835   0.846  0.00  0.00    +0.071 C 
ATOM      6  C   UNL     1      -6.273  -4.926   1.908  0.00  0.00    +0.009 C 
ATOM      7  C   UNL     1      -7.442  -5.850   1.577  0.00  0.00    -0.072 C 
ATOM      8  C   UNL     1      -7.054  -5.423  -0.868  0.00  0.00    -0.072 C 
ATOM      9  C   UNL     1      -5.891  -4.502  -0.507  0.00  0.00    +0.009 C 
ATOM     10  C   UNL     1      -8.254  -4.581  -1.317  0.00  0.00    -0.010 C 
ATOM     11  C   UNL     1      -6.614  -6.274  -2.079  0.00  0.00    -0.010 C 
ATOM     12  C   UNL     1      -8.763  -5.140   1.896  0.00  0.00    -0.010 C 
ATOM     13  C   UNL     1      -7.345  -7.077   2.511  0.00  0.00    -0.010 C 
ATOM     14  N   UNL     1      -7.437  -6.394   0.192  0.00  0.00    +0.386 N 
ATOM     15  H   UNL     1      -8.382  -6.738  -0.018  0.00  0.00    -0.084 HD
ATOM     16  H   UNL     1      -6.773  -7.177   0.161  0.00  0.00    -0.084 HD
ENDBRANCH   3   5
BRANCH   1  21
ATOM     17  C   UNL     1      -1.686  -0.511   2.115  0.00  0.00    +0.106 A 
ATOM     18  C   UNL     1      -1.857   0.560   2.976  0.00  0.00    +0.030 A 
ATOM     19  C   UNL     1      -3.100   0.829   3.516  0.00  0.00    +0.022 A 
ATOM     20  C   UNL     1      -4.180   0.024   3.209  0.00  0.00    +0.053 A 
ATOM     21  C   UNL     1      -4.013  -1.061   2.345  0.00  0.00    +0.057 A 
ATOM     22  C   UNL     1      -2.755  -1.323   1.799  0.00  0.00    +0.043 A 
ATOM     23 CL   UNL     1      -5.739   0.360   3.893  0.00  0.00    -0.083 Cl
BRANCH  17  24
ATOM     24  S   UNL     1      -0.098  -0.841   1.427  0.00  0.00    +0.059 S 
ATOM     25  O   UNL     1      -0.081  -2.221   1.089  0.00  0.00    -0.153 OA
ATOM     26  O   UNL     1       0.855  -0.260   2.307  0.00  0.00    -0.153 OA
BRANCH  24  27
ATOM     27  N   UNL     1       0.002  -0.004   0.002  0.00  0.00    -0.187 NA
ATOM     28  H   UNL     1       0.074  -0.483  -0.838  0.00  0.00    +0.148 HD
BRANCH  27  30
ATOM     29  C   UNL     1       1.418   1.990  -0.001  0.00  0.00    +0.025 C 
ATOM     30  C   UNL     1      -0.018   1.461   0.010  0.00  0.00    +0.070 C 
ATOM     31  C   UNL     1      -0.758   1.968  -1.230  0.00  0.00    +0.025 C 
ENDBRANCH  27  30
ENDBRANCH  24  27
ENDBRANCH  17  24
ENDBRANCH   1  21
TORSDOF 5
