REMARK  Name = ZINC35099861
REMARK  7 active torsions:
REMARK  status: ('A' for Active; 'I' for Inactive)
REMARK    1  A    between atoms: C_1  and  C_2
REMARK    2  A    between atoms: C_2  and  N_3
REMARK    3  A    between atoms: N_3  and  C_4
REMARK    4  A    between atoms: C_4  and  C_5
REMARK    5  A    between atoms: C_16  and  C_18
REMARK    6  A    between atoms: C_19  and  C_21
REMARK    7  A    between atoms: C_25  and  N_27
REMARK                            x       y       z     vdW  Elec       q    Type
REMARK                         _______ _______ _______ _____ _____    ______ ____
ROOT
ATOM      1  N   UNL     1      -1.425  -0.062   0.038  0.00  0.00    -0.289 N 
ATOM      2  C   UNL     1      -2.063  -0.555   1.117  0.00  0.00    +0.247 C 
ATOM      3  O   UNL     1      -1.450  -0.756   2.147  0.00  0.00    -0.270 OA
ENDROOT
BRANCH   2   4
ATOM      4  C   UNL     1      -3.510  -0.852   1.049  0.00  0.00    +0.039 A 
ATOM      5  C   UNL     1      -4.025  -1.582  -0.024  0.00  0.00    +0.014 A 
ATOM      6  C   UNL     1      -5.375  -1.856  -0.083  0.00  0.00    +0.023 A 
ATOM      7  C   UNL     1      -6.220  -1.409   0.920  0.00  0.00    +0.071 A 
ATOM      8  C   UNL     1      -5.714  -0.684   1.987  0.00  0.00    +0.145 A 
ATOM      9  C   UNL     1      -4.364  -0.409   2.060  0.00  0.00    +0.047 A 
ATOM     10 CL   UNL     1      -7.918  -1.758   0.840  0.00  0.00    -0.081 Cl
BRANCH   8  11
ATOM     11  N   UNL     1      -6.623  -0.210   3.055  0.00  0.00    +0.058 N 
ATOM     12  O   UNL     1      -6.183   0.423   3.986  0.00  0.00    -0.126 OA
ATOM     13  O   UNL     1      -7.805  -0.455   2.995  0.00  0.00    -0.126 OA
ENDBRANCH   8  11
ENDBRANCH   2   4
BRANCH   1  15
ATOM     14  C   UNL     1       0.321   1.594   0.476  0.00  0.00    +0.024 C 
ATOM     15  C   UNL     1       0.025   0.147   0.076  0.00  0.00    +0.105 C 
ENDBRANCH   1  15
BRANCH   1  16
ATOM     16  C   UNL     1      -2.181   0.266  -1.173  0.00  0.00    +0.203 C 
BRANCH  16  17
ATOM     17  C   UNL     1      -2.084  -0.877  -2.151  0.00  0.00    +0.233 C 
ATOM     18  O   UNL     1      -1.447  -1.868  -1.863  0.00  0.00    -0.274 OA
ATOM     19  N   UNL     1      -2.706  -0.798  -3.344  0.00  0.00    -0.293 N 
ATOM     20  C   UNL     1      -3.482   0.394  -3.725  0.00  0.00    +0.113 C 
ATOM     21  C   UNL     1      -2.793   1.037  -4.928  0.00  0.00    +0.054 C 
ATOM     22  C   UNL     1      -2.462   0.004  -5.972  0.00  0.00    -0.041 A 
ATOM     23  C   UNL     1      -2.236   0.449  -7.269  0.00  0.00    +0.004 A 
ATOM     24  C   UNL     1      -1.919  -0.443  -8.272  0.00  0.00    +0.000 A 
ATOM     25  C   UNL     1      -1.823  -1.792  -7.986  0.00  0.00    +0.000 A 
ATOM     26  C   UNL     1      -2.050  -2.237  -6.700  0.00  0.00    +0.006 A 
ATOM     27  C   UNL     1      -2.375  -1.341  -5.691  0.00  0.00    -0.024 A 
ATOM     28  C   UNL     1      -2.632  -1.893  -4.316  0.00  0.00    +0.103 C 
ATOM     29  C   UNL     1      -3.955  -2.661  -4.321  0.00  0.00    +0.033 C 
ENDBRANCH  16  17
ENDBRANCH   1  16
TORSDOF 5
