REMARK  Name = ZINC12623902
REMARK  5 active torsions:
REMARK  status: ('A' for Active; 'I' for Inactive)
REMARK    1  A    between atoms: C_1  and  C_2
REMARK    2  A    between atoms: C_4  and  C_25
REMARK    3  A    between atoms: C_8  and  C_12
REMARK    4  A    between atoms: C_8  and  O_24
REMARK    5  A    between atoms: C_13  and  C_18
REMARK                            x       y       z     vdW  Elec       q    Type
REMARK                         _______ _______ _______ _____ _____    ______ ____
ROOT
ATOM      1  C   UNL     1      -2.979   0.096  -1.291  0.00  0.00    +0.044 C 
ATOM      2  C   UNL     1      -1.881   1.129  -1.287  0.00  0.00    -0.050 A 
ATOM      3  C   UNL     1      -2.158   2.437  -1.640  0.00  0.00    +0.008 A 
ATOM      4  C   UNL     1      -1.157   3.385  -1.644  0.00  0.00    -0.029 A 
ATOM      5  C   UNL     1       0.143   3.032  -1.286  0.00  0.00    +0.043 A 
ATOM      6  C   UNL     1       0.407   1.716  -0.928  0.00  0.00    +0.020 A 
ATOM      7  C   UNL     1      -0.594   0.772  -0.924  0.00  0.00    +0.012 A 
ATOM      8  C   UNL     1       1.881   1.653  -0.599  0.00  0.00    +0.202 C 
ATOM      9  C   UNL     1       2.369   3.069  -0.821  0.00  0.00    +0.259 C 
ATOM     10  O   UNL     1       3.503   3.472  -0.671  0.00  0.00    -0.272 OA
ATOM     11  N   UNL     1       1.309   3.795  -1.214  0.00  0.00    -0.282 N 
ATOM     12  C   UNL     1      -1.468   4.806  -2.038  0.00  0.00    +0.045 C 
ATOM     13  H   UNL     1       1.349   4.742  -1.422  0.00  0.00    +0.155 HD
ENDROOT
BRANCH   8  14
ATOM     14  C   UNL     1       2.588   0.697  -1.525  0.00  0.00    +0.064 A 
ATOM     15  C   UNL     1       2.447  -0.655  -1.655  0.00  0.00    +0.087 A 
ATOM     16  N   UNL     1       3.183  -1.304  -2.554  0.00  0.00    -0.225 NA
ATOM     17  C   UNL     1       4.053  -0.664  -3.313  0.00  0.00    +0.156 A 
ATOM     18  S   UNL     1       3.849   1.020  -2.751  0.00  0.00    -0.053 S 
ATOM     19  N   UNL     1       4.901  -1.165  -4.288  0.00  0.00    -0.337 N 
ATOM     20  H   UNL     1       5.493  -0.567  -4.770  0.00  0.00    +0.144 HD
ATOM     21  H   UNL     1       4.902  -2.115  -4.488  0.00  0.00    +0.144 HD
BRANCH  15  22
ATOM     22  C   UNL     1       1.480  -1.392  -0.805  0.00  0.00    +0.001 A 
ATOM     23  C   UNL     1       1.509  -1.241   0.580  0.00  0.00    +0.010 A 
ATOM     24  C   UNL     1       0.605  -1.926   1.366  0.00  0.00    +0.001 A 
ATOM     25  C   UNL     1      -0.324  -2.769   0.781  0.00  0.00    +0.000 A 
ATOM     26  C   UNL     1      -0.354  -2.927  -0.593  0.00  0.00    +0.001 A 
ATOM     27  C   UNL     1       0.543  -2.243  -1.389  0.00  0.00    +0.010 A 
ENDBRANCH  15  22
ENDBRANCH   8  14
BRANCH   8  28
ATOM     28  O   UNL     1       2.074   1.264   0.762  0.00  0.00    -0.371 OA
ATOM     29  H   UNL     1       3.002   1.208   1.027  0.00  0.00    +0.212 HD
ENDBRANCH   8  28
TORSDOF 3
