REMARK  Name = ZINC60277792
REMARK  12 active torsions:
REMARK  status: ('A' for Active; 'I' for Inactive)
REMARK    1  A    between atoms: C_1  and  C_2
REMARK    2  A    between atoms: C_4  and  N_15
REMARK    3  A    between atoms: N_5  and  C_7
REMARK    4  A    between atoms: C_16  and  C_18
REMARK    5  A    between atoms: C_18  and  N_19
REMARK    6  A    between atoms: C_24  and  C_26
REMARK    7  A    between atoms: C_26  and  N_27
REMARK    8  A    between atoms: C_28  and  O_30
REMARK    9  A    between atoms: O_30  and  C_31
REMARK   10  A    between atoms: C_31  and  C_32
REMARK   11  A    between atoms: C_31  and  C_33
REMARK   12  A    between atoms: C_31  and  C_34
REMARK                            x       y       z     vdW  Elec       q    Type
REMARK                         _______ _______ _______ _____ _____    ______ ____
ROOT
ATOM      1  C   UNL     1      -0.096  -4.153  -3.837  0.00  0.00    +0.019 C 
ENDROOT
BRANCH   1   2
ATOM      2  N   UNL     1      -0.039  -3.836  -5.271  0.00  0.00    +0.388 N 
ATOM      3  C   UNL     1       1.140  -3.004  -5.540  0.00  0.00    -0.078 C 
ATOM      4  C   UNL     1       1.160  -2.604  -7.017  0.00  0.00    -0.019 C 
ATOM      5  C   UNL     1       1.216  -3.867  -7.882  0.00  0.00    -0.003 C 
ATOM      6  C   UNL     1       0.021  -4.762  -7.539  0.00  0.00    -0.014 C 
ATOM      7  C   UNL     1       0.043  -5.082  -6.043  0.00  0.00    -0.050 C 
ATOM      8  H   UNL     1      -0.872  -3.332  -5.536  0.00  0.00    -0.081 HD
BRANCH   7   9
ATOM      9  C   UNL     1      -1.149  -5.976  -5.695  0.00  0.00    +0.092 C 
BRANCH   9  10
ATOM     10  N   UNL     1      -2.394  -5.233  -5.904  0.00  0.00    -0.283 N 
ATOM     11  C   UNL     1      -3.575  -5.787  -5.565  0.00  0.00    +0.401 C 
ATOM     12  O   UNL     1      -3.607  -6.904  -5.087  0.00  0.00    -0.226 OA
ATOM     13  H   UNL     1      -2.369  -4.341  -6.285  0.00  0.00    +0.152 HD
BRANCH  11  14
ATOM     14  O   UNL     1      -4.719  -5.104  -5.757  0.00  0.00    -0.445 OA
BRANCH  14  15
ATOM     15  C   UNL     1      -5.934  -5.753  -5.376  0.00  0.00    +0.107 C 
ATOM     16  C   UNL     1      -5.892  -6.075  -3.880  0.00  0.00    +0.055 C 
ATOM     17  C   UNL     1      -7.118  -4.830  -5.666  0.00  0.00    +0.055 C 
ATOM     18  C   UNL     1      -6.091  -7.050  -6.172  0.00  0.00    +0.055 C 
ENDBRANCH  14  15
ENDBRANCH  11  14
ENDBRANCH   9  10
ENDBRANCH   7   9
ENDBRANCH   1   2
BRANCH   1  20
ATOM     19  N   UNL     1      -0.430  -2.937  -1.709  0.00  0.00    -0.272 N 
ATOM     20  C   UNL     1      -0.340  -2.889  -3.053  0.00  0.00    +0.202 C 
ATOM     21  O   UNL     1      -0.456  -1.829  -3.631  0.00  0.00    -0.278 OA
ATOM     22  H   UNL     1      -0.338  -3.785  -1.247  0.00  0.00    +0.156 HD
BRANCH  19  26
ATOM     23  C   UNL     1      -1.225   1.851  -0.547  0.00  0.00    +0.067 C 
ATOM     24  C   UNL     1      -1.013   0.364  -0.434  0.00  0.00    +0.062 A 
ATOM     25  C   UNL     1      -0.805  -0.517  -1.499  0.00  0.00    +0.068 A 
ATOM     26  C   UNL     1      -0.656  -1.768  -0.983  0.00  0.00    +0.124 A 
ATOM     27  N   UNL     1      -0.768  -1.671   0.361  0.00  0.00    -0.246 N 
ATOM     28  N   UNL     1      -0.986  -0.324   0.679  0.00  0.00    -0.175 NA
BRANCH  27  29
ATOM     29  C   UNL     1      -0.673  -2.777   1.316  0.00  0.00    +0.132 C 
ATOM     30  C   UNL     1      -1.971  -2.870   2.135  0.00  0.00    +0.051 C 
ATOM     31  C   UNL     1      -1.764  -3.810   3.347  0.00  0.00    +0.168 C 
ATOM     32  S   UNL     1       0.036  -3.645   3.684  0.00  0.00    -0.029 S 
ATOM     33  O   UNL     1       0.214  -2.960   4.917  0.00  0.00    -0.174 OA
ATOM     34  O   UNL     1       0.661  -4.906   3.488  0.00  0.00    -0.174 OA
ATOM     35  C   UNL     1       0.503  -2.521   2.301  0.00  0.00    +0.192 C 
ENDBRANCH  27  29
ENDBRANCH  19  26
ENDBRANCH   1  20
TORSDOF 8
