REMARK  Name = ZINC19731126
REMARK  8 active torsions:
REMARK  status: ('A' for Active; 'I' for Inactive)
REMARK    1  A    between atoms: C_1  and  C_2
REMARK    2  A    between atoms: C_3  and  C_22
REMARK    3  A    between atoms: N_9  and  C_12
REMARK    4  A    between atoms: C_12  and  C_14
REMARK    5  A    between atoms: C_12  and  C_15
REMARK    6  A    between atoms: C_15  and  C_16
REMARK    7  A    between atoms: C_16  and  N_17
REMARK    8  A    between atoms: C_24  and  C_27
REMARK                            x       y       z     vdW  Elec       q    Type
REMARK                         _______ _______ _______ _____ _____    ______ ____
ROOT
ATOM      1  C   UNL     1      -3.440  -1.966   0.040  0.00  0.00    +0.066 C 
ATOM      2  C   UNL     1      -2.721  -3.290   0.017  0.00  0.00    +0.049 A 
ATOM      3  C   UNL     1      -1.329  -3.320  -0.003  0.00  0.00    +0.047 A 
ATOM      4  C   UNL     1      -0.680  -4.559  -0.015  0.00  0.00    -0.034 A 
ATOM      5  C   UNL     1      -1.446  -5.705  -0.013  0.00  0.00    -0.042 A 
ATOM      6  C   UNL     1      -2.828  -5.591  -0.001  0.00  0.00    +0.113 A 
ATOM      7  N   UNL     1      -3.414  -4.410   0.011  0.00  0.00    -0.259 NA
ATOM      8  C   UNL     1      -0.824  -7.075  -0.021  0.00  0.00    -0.041 C 
ATOM      9  N   UNL     1       0.579  -6.997  -0.445  0.00  0.00    +0.384 N 
ATOM     10  C   UNL     1       1.304  -6.003   0.363  0.00  0.00    -0.073 C 
ATOM     11  C   UNL     1       0.823  -4.607  -0.035  0.00  0.00    +0.017 C 
ATOM     12  H   UNL     1       0.602  -6.674  -1.496  0.00  0.00    -0.081 HD
ENDROOT
BRANCH   3  13
ATOM     13  C   UNL     1      -0.546  -2.059  -0.004  0.00  0.00    +0.204 A 
ATOM     14  N   UNL     1      -1.050  -0.808   0.008  0.00  0.00    -0.186 NA
ATOM     15  C   UNL     1       0.002  -0.004   0.002  0.00  0.00    +0.275 A 
ATOM     16  O   UNL     1       1.091  -0.791  -0.018  0.00  0.00    -0.331 OA
ATOM     17  N   UNL     1       0.758  -1.957  -0.016  0.00  0.00    -0.056 NA
BRANCH  15  18
ATOM     18  C   UNL     1      -0.018   1.465   0.010  0.00  0.00    +0.105 A 
ATOM     19  C   UNL     1      -1.133   2.256   0.019  0.00  0.00    +0.032 A 
ATOM     20  C   UNL     1      -0.699   3.587   0.027  0.00  0.00    +0.020 A 
ATOM     21  C   UNL     1       0.654   3.580   0.014  0.00  0.00    +0.083 A 
ATOM     22  N   UNL     1       1.081   2.290   0.004  0.00  0.00    -0.357 N 
ATOM     23  H   UNL     1       2.093   1.859  -0.007  0.00  0.00    +0.165 HD
ENDBRANCH  15  18
ENDBRANCH   3  13
BRANCH   9  24
ATOM     24  C   UNL     1       1.226  -8.313  -0.368  0.00  0.00    -0.070 C 
ATOM     25  C   UNL     1       1.248  -8.786   1.087  0.00  0.00    -0.013 C 
BRANCH  24  26
ATOM     26  C   UNL     1       0.446  -9.316  -1.219  0.00  0.00    +0.008 C 
BRANCH  26  27
ATOM     27  C   UNL     1       0.529  -8.910  -2.691  0.00  0.00    +0.142 C 
BRANCH  27  28
ATOM     28  N   UNL     1      -0.218  -9.871  -3.506  0.00  0.00    -0.272 N 
ATOM     29  C   UNL     1      -1.213  -9.576  -4.369  0.00  0.00    +0.108 A 
ATOM     30  C   UNL     1      -1.639 -10.736  -4.920  0.00  0.00    +0.041 A 
ATOM     31  C   UNL     1      -0.879 -11.776  -4.375  0.00  0.00    +0.134 A 
ATOM     32  N   UNL     1      -0.023 -11.258  -3.532  0.00  0.00    -0.180 NA
ENDBRANCH  27  28
ENDBRANCH  26  27
ENDBRANCH  24  26
ENDBRANCH   9  24
TORSDOF 6
