REMARK  Name = ZINC32772373
REMARK  7 active torsions:
REMARK  status: ('A' for Active; 'I' for Inactive)
REMARK    1  A    between atoms: C_4  and  C_7
REMARK    2  A    between atoms: C_7  and  C_9
REMARK    3  A    between atoms: C_7  and  N_28
REMARK    4  A    between atoms: C_9  and  N_10
REMARK    5  A    between atoms: C_11  and  C_13
REMARK    6  A    between atoms: N_15  and  C_22
REMARK    7  A    between atoms: C_16  and  C_19
REMARK                            x       y       z     vdW  Elec       q    Type
REMARK                         _______ _______ _______ _____ _____    ______ ____
ROOT
ATOM      1  N   UNL     1      -4.326   0.173   1.450  0.00  0.00    -0.312 N 
ATOM      2  C   UNL     1      -4.962  -0.073   2.613  0.00  0.00    +0.260 C 
ATOM      3  O   UNL     1      -4.443   0.240   3.668  0.00  0.00    -0.269 OA
ATOM      4  H   UNL     1      -4.794  -0.111   0.496  0.00  0.00    +0.149 HD
ENDROOT
BRANCH   2   5
ATOM      5  C   UNL     1      -6.275  -0.717   2.605  0.00  0.00    +0.123 C 
ATOM      6  N   UNL     1      -6.921  -1.087   1.546  0.00  0.00    -0.178 NA
ATOM      7  N   UNL     1      -8.153  -1.681   1.812  0.00  0.00    -0.212 N 
ATOM      8  C   UNL     1      -8.367  -1.704   3.268  0.00  0.00    +0.189 C 
ATOM      9  C   UNL     1      -7.092  -1.048   3.834  0.00  0.00    +0.096 C 
BRANCH   7  10
ATOM     10  C   UNL     1      -9.042  -2.170   0.853  0.00  0.00    +0.052 A 
ATOM     11  C   UNL     1     -10.245  -2.743   1.247  0.00  0.00    +0.025 A 
ATOM     12  C   UNL     1     -11.125  -3.220   0.295  0.00  0.00    +0.002 A 
ATOM     13  C   UNL     1     -10.804  -3.139  -1.048  0.00  0.00    +0.000 A 
ATOM     14  C   UNL     1      -9.605  -2.574  -1.443  0.00  0.00    +0.002 A 
ATOM     15  C   UNL     1      -8.724  -2.089  -0.497  0.00  0.00    +0.025 A 
ENDBRANCH   7  10
BRANCH   8  16
ATOM     16  C   UNL     1      -8.500  -3.120   3.764  0.00  0.00    +0.233 C 
ATOM     17  O   UNL     1      -8.172  -4.046   3.052  0.00  0.00    -0.274 OA
ATOM     18  N   UNL     1      -8.983  -3.359   5.000  0.00  0.00    -0.328 N 
ATOM     19  H   UNL     1      -9.080  -4.393   5.362  0.00  0.00    +0.145 HD
ATOM     20  H   UNL     1      -9.280  -2.520   5.646  0.00  0.00    +0.145 HD
ENDBRANCH   8  16
ENDBRANCH   2   5
BRANCH   1  21
ATOM     21  C   UNL     1      -3.010   0.817   1.458  0.00  0.00    +0.094 C 
BRANCH  21  22
ATOM     22  C   UNL     1      -2.514   0.980   0.019  0.00  0.00    -0.020 C 
BRANCH  22  26
ATOM     23  C   UNL     1       1.157   3.164   0.021  0.00  0.00    +0.000 A 
ATOM     24  C   UNL     1       0.153   3.500   0.910  0.00  0.00    +0.000 A 
ATOM     25  C   UNL     1      -1.037   2.795   0.906  0.00  0.00    +0.002 A 
ATOM     26  C   UNL     1      -1.219   1.751   0.019  0.00  0.00    -0.059 A 
ATOM     27  C   UNL     1      -0.217   1.419  -0.873  0.00  0.00    +0.002 A 
ATOM     28  C   UNL     1       0.972   2.124  -0.870  0.00  0.00    +0.000 A 
ENDBRANCH  22  26
BRANCH  22  29
ATOM     29  N   UNL     1      -3.519   1.708  -0.766  0.00  0.00    +0.385 N 
ATOM     30  C   UNL     1      -3.635   3.116  -0.308  0.00  0.00    -0.078 C 
ATOM     31  C   UNL     1      -4.287   3.830  -1.518  0.00  0.00    -0.020 C 
ATOM     32  C   UNL     1      -3.625   3.134  -2.729  0.00  0.00    -0.020 C 
ATOM     33  C   UNL     1      -3.128   1.779  -2.191  0.00  0.00    -0.078 C 
ATOM     34  H   UNL     1      -4.461   1.155  -0.633  0.00  0.00    -0.081 HD
ENDBRANCH  22  29
ENDBRANCH  21  22
ENDBRANCH   1  21
TORSDOF 7
