REMARK  Name = ZINC36116761
REMARK  15 active torsions:
REMARK  status: ('A' for Active; 'I' for Inactive)
REMARK    1  A    between atoms: C_1  and  C_2
REMARK    2  A    between atoms: C_2  and  C_3
REMARK    3  A    between atoms: C_3  and  C_5
REMARK    4  A    between atoms: C_3  and  N_6
REMARK    5  A    between atoms: N_6  and  C_7
REMARK    6  A    between atoms: C_7  and  C_8
REMARK    7  A    between atoms: C_18  and  C_20
REMARK    8  A    between atoms: C_20  and  O_21
REMARK    9  A    between atoms: O_21  and  C_22
REMARK   10  A    between atoms: C_25  and  C_28
REMARK   11  A    between atoms: C_28  and  C_29
REMARK   12  A    between atoms: C_28  and  C_30
REMARK   13  A    between atoms: C_31  and  C_33
REMARK   14  A    between atoms: C_33  and  C_34
REMARK   15  A    between atoms: C_33  and  C_35
REMARK                            x       y       z     vdW  Elec       q    Type
REMARK                         _______ _______ _______ _____ _____    ______ ____
ROOT
ATOM      1  C   UNL     1      -2.592   2.438  -2.031  0.00  0.00    +0.234 C 
ATOM      2  O   UNL     1      -1.476   2.624  -2.470  0.00  0.00    -0.274 OA
ATOM      3  N   UNL     1      -3.509   3.424  -2.082  0.00  0.00    -0.289 N 
ATOM      4  C   UNL     1      -4.862   3.211  -1.547  0.00  0.00    +0.114 C 
ATOM      5  C   UNL     1      -5.860   3.290  -2.713  0.00  0.00    +0.061 C 
ATOM      6  C   UNL     1      -5.485   4.442  -3.587  0.00  0.00    -0.004 A 
ATOM      7  C   UNL     1      -4.304   5.117  -3.619  0.00  0.00    -0.014 A 
ATOM      8  C   UNL     1      -4.204   6.158  -4.541  0.00  0.00    +0.013 A 
ATOM      9  C   UNL     1      -5.252   6.456  -5.342  0.00  0.00    +0.046 A 
ATOM     10  S   UNL     1      -6.465   5.251  -4.825  0.00  0.00    -0.101 S 
ATOM     11  C   UNL     1      -3.170   4.728  -2.667  0.00  0.00    +0.144 C 
ENDROOT
BRANCH   1  12
ATOM     12  C   UNL     1      -2.951   1.104  -1.428  0.00  0.00    +0.203 C 
BRANCH  12  13
ATOM     13  N   UNL     1      -1.759   0.255  -1.376  0.00  0.00    -0.290 N 
ATOM     14  C   UNL     1      -1.395  -0.464  -2.456  0.00  0.00    +0.219 C 
ATOM     15  O   UNL     1      -2.019  -0.360  -3.491  0.00  0.00    -0.275 OA
BRANCH  14  16
ATOM     16  C   UNL     1      -0.215  -1.398  -2.378  0.00  0.00    +0.069 C 
ATOM     17  C   UNL     1      -0.686  -2.777  -1.910  0.00  0.00    +0.017 C 
ATOM     18  C   UNL     1       0.430  -1.521  -3.759  0.00  0.00    +0.017 C 
ENDBRANCH  14  16
BRANCH  13  19
ATOM     19  C   UNL     1      -0.961   0.187  -0.149  0.00  0.00    +0.073 C 
ATOM     20  C   UNL     1      -0.320   1.550   0.118  0.00  0.00    +0.028 C 
BRANCH  19  22
ATOM     21  C   UNL     1      -2.430  -1.595   0.804  0.00  0.00    +0.005 C 
ATOM     22  C   UNL     1      -1.864  -0.191   1.027  0.00  0.00    +0.019 C 
ENDBRANCH  19  22
ENDBRANCH  13  19
ENDBRANCH  12  13
ENDBRANCH   1  12
BRANCH  11  23
ATOM     23  C   UNL     1      -3.037   5.774  -1.558  0.00  0.00    +0.256 C 
BRANCH  23  24
ATOM     24  O   UNL     1      -4.305   5.965  -0.929  0.00  0.00    -0.490 OA
BRANCH  24  25
ATOM     25  C   UNL     1      -4.361   6.869   0.085  0.00  0.00    +0.121 A 
ATOM     26  C   UNL     1      -3.220   7.562   0.462  0.00  0.00    +0.046 A 
ATOM     27  C   UNL     1      -3.280   8.480   1.492  0.00  0.00    +0.007 A 
ATOM     28  C   UNL     1      -4.475   8.708   2.148  0.00  0.00    -0.045 A 
ATOM     29  C   UNL     1      -5.614   8.019   1.774  0.00  0.00    +0.007 A 
ATOM     30  C   UNL     1      -5.561   7.104   0.741  0.00  0.00    +0.046 A 
BRANCH  28  31
ATOM     31  C   UNL     1      -4.537   9.710   3.272  0.00  0.00    +0.013 C 
ATOM     32  C   UNL     1      -5.538  10.812   2.918  0.00  0.00    +0.012 C 
ATOM     33  C   UNL     1      -4.984   9.009   4.556  0.00  0.00    +0.012 C 
ENDBRANCH  28  31
ENDBRANCH  24  25
ENDBRANCH  23  24
ENDBRANCH  11  23
TORSDOF 9
