REMARK  Name = ZINC38681508
REMARK  16 active torsions:
REMARK  status: ('A' for Active; 'I' for Inactive)
REMARK    1  A    between atoms: C_1  and  C_2
REMARK    2  A    between atoms: C_2  and  C_3
REMARK    3  A    between atoms: C_3  and  O_4
REMARK    4  A    between atoms: O_4  and  C_5
REMARK    5  A    between atoms: C_10  and  C_11
REMARK    6  A    between atoms: C_16  and  O_25
REMARK    7  A    between atoms: C_20  and  N_24
REMARK    8  A    between atoms: C_21  and  C_22
REMARK    9  A    between atoms: O_25  and  C_26
REMARK   10  A    between atoms: C_26  and  C_28
REMARK   11  A    between atoms: C_30  and  O_38
REMARK   12  A    between atoms: C_31  and  O_36
REMARK   13  A    between atoms: C_32  and  O_34
REMARK   14  A    between atoms: O_34  and  C_35
REMARK   15  A    between atoms: O_36  and  C_37
REMARK   16  A    between atoms: O_38  and  C_39
REMARK                            x       y       z     vdW  Elec       q    Type
REMARK                         _______ _______ _______ _____ _____    ______ ____
ROOT
ATOM      1  C   UNL     1      -1.355  -4.746   0.017  0.00  0.00    +0.101 C 
ATOM      2  C   UNL     1      -1.310  -5.625   1.239  0.00  0.00    +0.008 A 
ATOM      3  C   UNL     1      -0.895  -5.091   2.446  0.00  0.00    +0.012 A 
ATOM      4  C   UNL     1      -0.848  -5.882   3.577  0.00  0.00    +0.047 A 
ATOM      5  C   UNL     1      -1.218  -7.218   3.506  0.00  0.00    +0.135 A 
ATOM      6  C   UNL     1      -1.634  -7.755   2.299  0.00  0.00    +0.093 A 
ATOM      7  C   UNL     1      -1.681  -6.958   1.162  0.00  0.00    +0.138 A 
ATOM      8  O   UNL     1      -2.090  -7.499  -0.012  0.00  0.00    -0.441 OA
ATOM      9  C   UNL     1      -1.785  -6.893  -1.172  0.00  0.00    +0.199 C 
ATOM     10  C   UNL     1      -1.431  -5.590  -1.224  0.00  0.00    +0.098 C 
ENDROOT
BRANCH   1  16
ATOM     11  C   UNL     1      -2.413  -2.474   0.099  0.00  0.00    +0.125 A 
ATOM     12  C   UNL     1      -3.530  -1.654   0.159  0.00  0.00    +0.046 A 
ATOM     13  C   UNL     1      -4.793  -2.212   0.213  0.00  0.00    +0.004 A 
ATOM     14  C   UNL     1      -4.943  -3.587   0.208  0.00  0.00    +0.001 A 
ATOM     15  C   UNL     1      -3.831  -4.406   0.149  0.00  0.00    +0.008 A 
ATOM     16  C   UNL     1      -2.566  -3.853   0.088  0.00  0.00    +0.007 A 
BRANCH  11  17
ATOM     17  O   UNL     1      -1.169  -1.927   0.045  0.00  0.00    -0.492 OA
BRANCH  17  18
ATOM     18  C   UNL     1      -1.087  -0.501   0.060  0.00  0.00    +0.229 C 
BRANCH  18  20
ATOM     19  C   UNL     1       0.469   1.453   0.009  0.00  0.00    +0.007 C 
ATOM     20  C   UNL     1       0.381  -0.074  -0.007  0.00  0.00    +0.038 C 
ENDBRANCH  18  20
ENDBRANCH  17  18
ENDBRANCH  11  17
ENDBRANCH   1  16
BRANCH   9  21
ATOM     21  N   UNL     1      -1.837  -7.618  -2.336  0.00  0.00    -0.328 N 
ATOM     22  H   UNL     1      -2.091  -8.554  -2.314  0.00  0.00    +0.145 HD
ATOM     23  H   UNL     1      -1.620  -7.194  -3.181  0.00  0.00    +0.145 HD
ENDBRANCH   9  21
BRANCH  10  24
ATOM     24  C   UNL     1      -1.120  -5.003  -2.492  0.00  0.00    +0.101 C 
ATOM     25  N   UNL     1      -0.873  -4.537  -3.498  0.00  0.00    -0.191 NA
ENDBRANCH  10  24
BRANCH   5  26
ATOM     26  O   UNL     1      -1.172  -7.997   4.618  0.00  0.00    -0.422 OA
BRANCH  26  27
ATOM     27  C   UNL     1      -2.063  -7.754   5.599  0.00  0.00    +0.345 C 
ATOM     28  O   UNL     1      -2.941  -6.931   5.431  0.00  0.00    -0.245 OA
BRANCH  27  29
ATOM     29  C   UNL     1      -1.973  -8.487   6.875  0.00  0.00    +0.067 A 
ATOM     30  C   UNL     1      -0.960  -9.429   7.072  0.00  0.00    +0.064 A 
ATOM     31  C   UNL     1      -0.877 -10.114   8.269  0.00  0.00    +0.166 A 
ATOM     32  C   UNL     1      -1.802  -9.866   9.280  0.00  0.00    +0.204 A 
ATOM     33  C   UNL     1      -2.812  -8.927   9.087  0.00  0.00    +0.166 A 
ATOM     34  C   UNL     1      -2.897  -8.235   7.894  0.00  0.00    +0.064 A 
BRANCH  33  35
ATOM     35  O   UNL     1      -3.714  -8.687  10.077  0.00  0.00    -0.491 OA
ATOM     36  C   UNL     1      -4.724  -7.711   9.811  0.00  0.00    +0.277 C 
ENDBRANCH  33  35
BRANCH  32  37
ATOM     37  O   UNL     1      -1.719 -10.541  10.456  0.00  0.00    -0.488 OA
ATOM     38  C   UNL     1      -0.922  -9.953  11.487  0.00  0.00    +0.277 C 
ENDBRANCH  32  37
BRANCH  31  39
ATOM     39  O   UNL     1       0.108 -11.032   8.460  0.00  0.00    -0.491 OA
ATOM     40  C   UNL     1       1.022 -11.237   7.381  0.00  0.00    +0.277 C 
ENDBRANCH  31  39
ENDBRANCH  27  29
ENDBRANCH  26  27
ENDBRANCH   5  26
TORSDOF 12
