REMARK  Name = ZINC15945357
REMARK  9 active torsions:
REMARK  status: ('A' for Active; 'I' for Inactive)
REMARK    1  A    between atoms: C_1  and  O_2
REMARK    2  A    between atoms: O_2  and  C_3
REMARK    3  A    between atoms: C_6  and  C_9
REMARK    4  A    between atoms: C_9  and  O_11
REMARK    5  A    between atoms: O_11  and  C_12
REMARK    6  A    between atoms: C_15  and  C_20
REMARK    7  A    between atoms: C_17  and  O_18
REMARK    8  A    between atoms: O_18  and  C_19
REMARK    9  A    between atoms: C_32  and  O_34
REMARK                            x       y       z     vdW  Elec       q    Type
REMARK                         _______ _______ _______ _____ _____    ______ ____
ROOT
ATOM      1  C   UNL     1      -6.273  -4.457   0.036  0.00  0.00    +0.173 A 
ATOM      2  C   UNL     1      -7.357  -3.595  -0.019  0.00  0.00    +0.050 A 
ATOM      3  C   UNL     1      -8.643  -4.100  -0.017  0.00  0.00    +0.011 A 
ATOM      4  C   UNL     1      -8.853  -5.466   0.040  0.00  0.00    -0.002 A 
ATOM      5  C   UNL     1      -7.777  -6.332   0.096  0.00  0.00    +0.056 A 
ATOM      6  C   UNL     1      -6.484  -5.832   0.088  0.00  0.00    +0.163 A 
ENDROOT
BRANCH   4   7
ATOM      7  C   UNL     1     -10.257  -6.011   0.043  0.00  0.00    +0.224 C 
ATOM      8  N   UNL     1     -11.157  -5.020   0.661  0.00  0.00    -0.313 N 
ATOM      9  C   UNL     1     -11.220  -5.028   2.036  0.00  0.00    +0.080 A 
ATOM     10  C   UNL     1     -10.918  -6.171   2.785  0.00  0.00    +0.068 A 
ATOM     11  C   UNL     1     -11.015  -6.024   4.225  0.00  0.00    -0.023 A 
ATOM     12  C   UNL     1     -11.395  -4.793   4.639  0.00  0.00    -0.005 A 
ATOM     13  S   UNL     1     -11.614  -3.862   3.147  0.00  0.00    -0.078 S 
ATOM     14  C   UNL     1     -11.584  -4.337   6.052  0.00  0.00    +0.043 C 
ATOM     15  C   UNL     1     -11.647  -5.576   6.956  0.00  0.00    +0.005 C 
ATOM     16  C   UNL     1     -10.485  -6.508   6.600  0.00  0.00    +0.005 C 
ATOM     17  C   UNL     1     -10.723  -7.134   5.224  0.00  0.00    +0.037 C 
ATOM     18  C   UNL     1     -10.542  -7.399   2.038  0.00  0.00    +0.220 C 
ATOM     19  N   UNL     1     -10.275  -7.276   0.767  0.00  0.00    -0.223 NA
ATOM     20  H   UNL     1     -11.676  -4.397   0.128  0.00  0.00    +0.149 HD
BRANCH  18  21
ATOM     21  O   UNL     1     -10.479  -8.602   2.654  0.00  0.00    -0.492 OA
ATOM     22  H   UNL     1     -10.225  -9.330   2.070  0.00  0.00    +0.294 HD
ENDBRANCH  18  21
ENDBRANCH   4   7
BRANCH   6  23
ATOM     23  O   UNL     1      -5.424  -6.683   0.137  0.00  0.00    -0.491 OA
ATOM     24  C   UNL     1      -5.716  -8.080   0.188  0.00  0.00    +0.277 C 
ENDBRANCH   6  23
BRANCH   1  25
ATOM     25  O   UNL     1      -5.007  -3.962   0.035  0.00  0.00    -0.419 OA
BRANCH  25  26
ATOM     26  C   UNL     1      -4.367  -3.865  -1.147  0.00  0.00    +0.345 C 
ATOM     27  O   UNL     1      -4.885  -4.301  -2.156  0.00  0.00    -0.245 OA
BRANCH  26  31
ATOM     28  C   UNL     1      -0.539  -2.040  -1.346  0.00  0.00    +0.120 A 
ATOM     29  C   UNL     1      -1.130  -2.538  -2.501  0.00  0.00    +0.046 A 
ATOM     30  C   UNL     1      -2.371  -3.131  -2.441  0.00  0.00    +0.018 A 
ATOM     31  C   UNL     1      -3.037  -3.232  -1.216  0.00  0.00    +0.060 A 
ATOM     32  C   UNL     1      -2.439  -2.729  -0.057  0.00  0.00    +0.018 A 
ATOM     33  C   UNL     1      -1.195  -2.143  -0.124  0.00  0.00    +0.046 A 
BRANCH  28  35
ATOM     34  C   UNL     1       1.302  -1.383  -2.696  0.00  0.00    +0.277 C 
ATOM     35  O   UNL     1       0.685  -1.456  -1.409  0.00  0.00    -0.495 OA
ENDBRANCH  28  35
ENDBRANCH  26  31
ENDBRANCH  25  26
ENDBRANCH   1  25
TORSDOF 7
