REMARK  Name = ZINC36818266
REMARK  6 active torsions:
REMARK  status: ('A' for Active; 'I' for Inactive)
REMARK    1  A    between atoms: C_5  and  C_7
REMARK    2  A    between atoms: C_10  and  S_17
REMARK    3  A    between atoms: N_11  and  C_12
REMARK    4  A    between atoms: S_17  and  C_18
REMARK    5  A    between atoms: C_18  and  C_19
REMARK    6  A    between atoms: C_24  and  C_27
REMARK                            x       y       z     vdW  Elec       q    Type
REMARK                         _______ _______ _______ _____ _____    ______ ____
ROOT
ATOM      1  C   UNL     1       1.241  -2.163  -0.098  0.00  0.00    +0.167 A 
ATOM      2  N   UNL     1       2.310  -2.921  -0.168  0.00  0.00    -0.128 NA
ATOM      3  N   UNL     1       1.979  -4.158  -0.052  0.00  0.00    -0.122 NA
ATOM      4  C   UNL     1       0.678  -4.264   0.099  0.00  0.00    +0.193 A 
ATOM      5  N   UNL     1       0.163  -2.999   0.081  0.00  0.00    -0.299 N 
ENDROOT
BRANCH   1  10
ATOM      6  C   UNL     1       0.250   1.317  -1.105  0.00  0.00    +0.001 A 
ATOM      7  C   UNL     1       1.132   2.076  -0.357  0.00  0.00    +0.001 A 
ATOM      8  C   UNL     1       2.051   1.461   0.475  0.00  0.00    +0.021 A 
ATOM      9  C   UNL     1       2.092   0.084   0.564  0.00  0.00    +0.052 A 
ATOM     10  C   UNL     1       1.203  -0.688  -0.188  0.00  0.00    +0.038 A 
ATOM     11  C   UNL     1       0.280  -0.060  -1.025  0.00  0.00    +0.013 A 
ATOM     12 CL   UNL     1       3.245  -0.687   1.608  0.00  0.00    -0.083 Cl
ENDBRANCH   1  10
BRANCH   5  13
ATOM     13  C   UNL     1      -1.243  -2.613   0.220  0.00  0.00    +0.091 C 
ATOM     14  C   UNL     1      -1.803  -3.132   1.560  0.00  0.00    +0.025 C 
ATOM     15  C   UNL     1      -3.258  -3.549   1.228  0.00  0.00    +0.002 C 
ATOM     16  C   UNL     1      -3.123  -4.164  -0.186  0.00  0.00    +0.002 C 
ATOM     17  C   UNL     1      -2.082  -3.269  -0.891  0.00  0.00    +0.025 C 
ENDBRANCH   5  13
BRANCH   4  18
ATOM     18  S   UNL     1      -0.233  -5.760   0.296  0.00  0.00    -0.077 S 
BRANCH  18  19
ATOM     19  C   UNL     1       1.035  -7.056   0.239  0.00  0.00    +0.173 C 
BRANCH  19  20
ATOM     20  C   UNL     1       0.382  -8.405   0.398  0.00  0.00    +0.226 C 
ATOM     21  O   UNL     1      -0.820  -8.484   0.536  0.00  0.00    -0.275 OA
ATOM     22  N   UNL     1       1.134  -9.523   0.386  0.00  0.00    -0.301 N 
ATOM     23  C   UNL     1       2.592  -9.443   0.226  0.00  0.00    +0.108 C 
ATOM     24  C   UNL     1       3.011 -10.346  -0.939  0.00  0.00    +0.032 C 
ATOM     25  C   UNL     1       2.482 -11.761  -0.698  0.00  0.00    +0.078 C 
ATOM     26  C   UNL     1       0.953 -11.732  -0.634  0.00  0.00    +0.032 C 
ATOM     27  C   UNL     1       0.512 -10.845   0.540  0.00  0.00    +0.108 C 
BRANCH  25  28
ATOM     28  C   UNL     1       2.920 -12.660  -1.826  0.00  0.00    +0.214 C 
ATOM     29  O   UNL     1       3.590 -12.212  -2.732  0.00  0.00    -0.276 OA
ATOM     30  N   UNL     1       2.568 -13.961  -1.826  0.00  0.00    -0.329 N 
ATOM     31  H   UNL     1       2.033 -14.319  -1.101  0.00  0.00    +0.145 HD
ATOM     32  H   UNL     1       2.851 -14.539  -2.552  0.00  0.00    +0.145 HD
ENDBRANCH  25  28
ENDBRANCH  19  20
ENDBRANCH  18  19
ENDBRANCH   4  18
TORSDOF 6
