REMARK  Name = ZINC57739516
REMARK  8 active torsions:
REMARK  status: ('A' for Active; 'I' for Inactive)
REMARK    1  A    between atoms: C_1  and  N_2
REMARK    2  A    between atoms: N_2  and  C_3
REMARK    3  A    between atoms: N_2  and  C_4
REMARK    4  A    between atoms: C_4  and  C_6
REMARK    5  A    between atoms: C_4  and  C_21
REMARK    6  A    between atoms: C_6  and  N_7
REMARK    7  A    between atoms: C_8  and  C_10
REMARK    8  A    between atoms: C_12  and  C_16
REMARK                            x       y       z     vdW  Elec       q    Type
REMARK                         _______ _______ _______ _____ _____    ______ ____
ROOT
ATOM      1  N   UNL     1      -0.700  -2.599  -0.643  0.00  0.00    -0.311 N 
ATOM      2  C   UNL     1      -0.540  -3.936  -0.588  0.00  0.00    +0.264 C 
ATOM      3  O   UNL     1      -1.046  -4.572   0.317  0.00  0.00    -0.268 OA
ATOM      4  H   UNL     1      -0.295  -2.092  -1.365  0.00  0.00    +0.149 HD
ENDROOT
BRANCH   2   5
ATOM      5  C   UNL     1       0.251  -4.630  -1.625  0.00  0.00    +0.147 A 
ATOM      6  C   UNL     1       0.498  -6.017  -1.700  0.00  0.00    +0.065 A 
ATOM      7  C   UNL     1       1.268  -6.191  -2.819  0.00  0.00    +0.101 A 
ATOM      8  N   UNL     1       1.455  -4.952  -3.363  0.00  0.00    -0.273 N 
ATOM      9  H   UNL     1       1.965  -4.769  -4.168  0.00  0.00    +0.189 HD
ATOM     10  N   UNL     1       0.851  -4.067  -2.655  0.00  0.00    -0.169 NA
BRANCH   7  11
ATOM     11  C   UNL     1       1.794  -7.466  -3.335  0.00  0.00    +0.152 A 
ATOM     12  C   UNL     1       2.564  -7.622  -4.447  0.00  0.00    +0.051 A 
ATOM     13  C   UNL     1       2.835  -8.999  -4.563  0.00  0.00    +0.042 A 
ATOM     14  C   UNL     1       2.225  -9.611  -3.529  0.00  0.00    +0.196 A 
ATOM     15  O   UNL     1       1.602  -8.681  -2.785  0.00  0.00    -0.461 OA
ENDBRANCH   7  11
ENDBRANCH   2   5
BRANCH   1  16
ATOM     16  C   UNL     1      -1.484  -1.911   0.385  0.00  0.00    +0.094 C 
BRANCH  16  17
ATOM     17  C   UNL     1      -1.403  -0.400   0.163  0.00  0.00    -0.020 C 
BRANCH  17  18
ATOM     18  C   UNL     1      -2.080  -0.046  -1.136  0.00  0.00    -0.041 A 
ATOM     19  C   UNL     1      -1.334   0.070  -2.295  0.00  0.00    +0.003 A 
ATOM     20  C   UNL     1      -1.955   0.395  -3.486  0.00  0.00    +0.000 A 
ATOM     21  C   UNL     1      -3.321   0.602  -3.521  0.00  0.00    +0.001 A 
ATOM     22  C   UNL     1      -4.068   0.485  -2.364  0.00  0.00    +0.020 A 
ATOM     23  C   UNL     1      -3.448   0.155  -1.171  0.00  0.00    +0.043 A 
ATOM     24 CL   UNL     1      -4.386   0.002   0.281  0.00  0.00    -0.083 Cl
ENDBRANCH  17  18
BRANCH  17  26
ATOM     25  C   UNL     1       0.083   1.470  -0.061  0.00  0.00    -0.096 C 
ATOM     26  N   UNL     1       0.006   0.013   0.109  0.00  0.00    +0.382 N 
ATOM     27  C   UNL     1       0.676  -0.371   1.359  0.00  0.00    -0.096 C 
ATOM     28  H   UNL     1       0.460  -0.441  -0.669  0.00  0.00    -0.082 HD
ENDBRANCH  17  26
ENDBRANCH  16  17
ENDBRANCH   1  16
TORSDOF 6
