REMARK  Name = ZINC09714582
REMARK  10 active torsions:
REMARK  status: ('A' for Active; 'I' for Inactive)
REMARK    1  A    between atoms: C_1  and  C_2
REMARK    2  A    between atoms: C_2  and  O_3
REMARK    3  A    between atoms: O_3  and  C_4
REMARK    4  A    between atoms: C_4  and  C_5
REMARK    5  A    between atoms: C_5  and  N_6
REMARK    6  A    between atoms: N_14  and  C_28
REMARK    7  A    between atoms: C_23  and  C_24
REMARK    8  A    between atoms: C_23  and  N_54
REMARK    9  A    between atoms: C_24  and  O_26
REMARK   10  A    between atoms: O_26  and  C_27
REMARK                            x       y       z     vdW  Elec       q    Type
REMARK                         _______ _______ _______ _____ _____    ______ ____
ROOT
ATOM      1  N   UNL     1      -1.142   2.158   0.047  0.00  0.00    -0.304 N 
ATOM      2  C   UNL     1      -0.735   3.484  -0.028  0.00  0.00    +0.153 A 
ATOM      3  C   UNL     1      -1.407   4.717  -0.087  0.00  0.00    +0.280 A 
ATOM      4  O   UNL     1      -2.625   4.756  -0.070  0.00  0.00    -0.265 OA
ATOM      5  N   UNL     1      -0.690   5.857  -0.163  0.00  0.00    -0.273 N 
ATOM      6  H   UNL     1      -1.165   6.736  -0.206  0.00  0.00    +0.173 HD
ATOM      7  C   UNL     1       0.654   5.829  -0.183  0.00  0.00    +0.331 A 
ATOM      8  O   UNL     1       1.268   6.877  -0.251  0.00  0.00    -0.246 OA
ATOM      9  N   UNL     1       1.337   4.670  -0.128  0.00  0.00    -0.280 N 
ATOM     10  C   UNL     1       0.655   3.466  -0.050  0.00  0.00    +0.170 A 
ATOM     11  N   UNL     1       1.043   2.192   0.016  0.00  0.00    -0.196 NA
ATOM     12  C   UNL     1      -0.011   1.403   0.077  0.00  0.00    +0.201 A 
ATOM     13  N   UNL     1       0.026   0.030   0.152  0.00  0.00    -0.304 N 
ATOM     14  C   UNL     1       0.738  -0.412   1.359  0.00  0.00    +0.089 C 
ATOM     15  C   UNL     1       0.689  -1.939   1.448  0.00  0.00    -0.059 C 
ATOM     16  C   UNL     1       0.584  -2.075  -0.967  0.00  0.00    -0.059 C 
ATOM     17  C   UNL     1       0.633  -0.548  -1.055  0.00  0.00    +0.089 C 
ATOM     18  C   UNL     1       2.801   4.682  -0.151  0.00  0.00    +0.155 C 
ATOM     19  N   UNL     1       1.322  -2.507   0.238  0.00  0.00    +0.389 N 
ATOM     20  H   UNL     1       2.289  -2.167   0.177  0.00  0.00    -0.081 HD
ENDROOT
BRANCH   1  21
ATOM     21  C   UNL     1      -2.521   1.668   0.090  0.00  0.00    +0.153 C 
BRANCH  21  22
ATOM     22  C   UNL     1      -2.999   1.615   1.543  0.00  0.00    +0.181 C 
BRANCH  22  23
ATOM     23  O   UNL     1      -4.308   1.044   1.593  0.00  0.00    -0.378 OA
BRANCH  23  25
ATOM     24  C   UNL     1      -6.246   0.325   2.846  0.00  0.00    +0.034 C 
ATOM     25  C   UNL     1      -4.850   0.948   2.912  0.00  0.00    +0.156 C 
ENDBRANCH  23  25
ENDBRANCH  22  23
ENDBRANCH  21  22
ENDBRANCH   1  21
BRANCH  19  26
ATOM     26  C   UNL     1       1.336  -3.983   0.321  0.00  0.00    +0.044 C 
BRANCH  26  27
ATOM     27  C   UNL     1       2.273  -4.400   1.425  0.00  0.00    +0.290 C 
ATOM     28  O   UNL     1       2.849  -3.562   2.077  0.00  0.00    -0.253 OA
BRANCH  27  29
ATOM     29  O   UNL     1       2.469  -5.703   1.683  0.00  0.00    -0.469 OA
ATOM     30  C   UNL     1       3.385  -6.031   2.760  0.00  0.00    +0.280 C 
ENDBRANCH  27  29
ENDBRANCH  26  27
ENDBRANCH  19  26
TORSDOF 7
