REMARK  Name = ZINC39631453
REMARK  12 active torsions:
REMARK  status: ('A' for Active; 'I' for Inactive)
REMARK    1  A    between atoms: C_1  and  C_2
REMARK    2  A    between atoms: C_2  and  C_4
REMARK    3  A    between atoms: C_2  and  N_11
REMARK    4  A    between atoms: C_4  and  C_5
REMARK    5  A    between atoms: C_5  and  C_6
REMARK    6  A    between atoms: C_6  and  C_7
REMARK    7  A    between atoms: C_7  and  C_8
REMARK    8  A    between atoms: C_7  and  C_9
REMARK    9  A    between atoms: C_7  and  O_10
REMARK   10  A    between atoms: C_12  and  C_14
REMARK   11  A    between atoms: C_25  and  C_27
REMARK   12  A    between atoms: C_29  and  C_34
REMARK                            x       y       z     vdW  Elec       q    Type
REMARK                         _______ _______ _______ _____ _____    ______ ____
ROOT
ATOM      1  C   UNL     1       0.365  -1.556   3.229  0.00  0.00    +0.100 C 
ATOM      2  C   UNL     1       1.069  -2.932   3.217  0.00  0.00    +0.121 C 
ATOM      3  N   UNL     1       0.898  -3.451   4.594  0.00  0.00    -0.296 N 
ATOM      4  C   UNL     1      -0.481  -3.057   4.968  0.00  0.00    +0.115 C 
ATOM      5  C   UNL     1      -0.652  -1.643   4.379  0.00  0.00    -0.004 C 
ATOM      6  C   UNL     1      -0.343  -0.589   5.438  0.00  0.00    -0.010 C 
ATOM      7  C   UNL     1      -1.400  -0.657   6.543  0.00  0.00    -0.082 C 
ATOM      8  N   UNL     1      -2.729  -0.424   5.966  0.00  0.00    +0.379 N 
ATOM      9  C   UNL     1      -3.058  -1.494   5.015  0.00  0.00    -0.082 C 
ATOM     10  C   UNL     1      -2.070  -1.461   3.846  0.00  0.00    -0.010 C 
ATOM     11  C   UNL     1       1.794  -4.130   5.338  0.00  0.00    +0.247 C 
ATOM     12  O   UNL     1       2.934  -4.268   4.941  0.00  0.00    -0.270 OA
ATOM     13  H   UNL     1      -3.417  -0.409   6.704  0.00  0.00    -0.086 HD
ATOM     14  H   UNL     1      -2.735   0.464   5.486  0.00  0.00    -0.086 HD
ENDROOT
BRANCH  11  15
ATOM     15  C   UNL     1       1.389  -4.707   6.638  0.00  0.00    +0.040 A 
ATOM     16  C   UNL     1       2.354  -5.014   7.599  0.00  0.00    +0.025 A 
ATOM     17  C   UNL     1       1.971  -5.551   8.811  0.00  0.00    +0.058 A 
ATOM     18  C   UNL     1       0.634  -5.786   9.076  0.00  0.00    +0.050 A 
ATOM     19  C   UNL     1      -0.330  -5.485   8.127  0.00  0.00    +0.125 A 
ATOM     20  C   UNL     1       0.041  -4.941   6.912  0.00  0.00    +0.051 A 
ATOM     21  F   UNL     1      -1.634  -5.718   8.392  0.00  0.00    -0.205 F 
BRANCH  17  22
ATOM     22  C   UNL     1       3.013  -5.883   9.848  0.00  0.00    +0.418 C 
ATOM     23  F   UNL     1       3.221  -4.772  10.672  0.00  0.00    -0.166 F 
ATOM     24  F   UNL     1       2.572  -6.961  10.623  0.00  0.00    -0.166 F 
ATOM     25  F   UNL     1       4.212  -6.224   9.213  0.00  0.00    -0.166 F 
ENDBRANCH  17  22
ENDBRANCH  11  15
BRANCH   1  27
ATOM     26  N   UNL     1      -0.489  -0.062   1.452  0.00  0.00    -0.312 N 
ATOM     27  C   UNL     1      -0.342  -1.317   1.920  0.00  0.00    +0.218 C 
ATOM     28  O   UNL     1      -0.779  -2.255   1.287  0.00  0.00    -0.275 OA
ATOM     29  H   UNL     1      -0.139   0.688   1.958  0.00  0.00    +0.149 HD
BRANCH  26  31
ATOM     30  C   UNL     1      -2.686   0.240   0.421  0.00  0.00    +0.028 C 
ATOM     31  C   UNL     1      -1.176   0.170   0.179  0.00  0.00    +0.070 C 
BRANCH  31  32
ATOM     32  C   UNL     1      -0.695   1.490  -0.427  0.00  0.00    +0.022 C 
BRANCH  32  33
ATOM     33  C   UNL     1       0.789   1.376  -0.784  0.00  0.00    +0.005 C 
BRANCH  33  34
ATOM     34  C   UNL     1       1.270   2.696  -1.390  0.00  0.00    +0.034 C 
BRANCH  34  35
ATOM     35  C   UNL     1       2.754   2.582  -1.747  0.00  0.00    +0.061 C 
ATOM     36  C   UNL     1       3.266   3.938  -2.237  0.00  0.00    +0.041 C 
ATOM     37  C   UNL     1       3.545   2.155  -0.508  0.00  0.00    +0.041 C 
BRANCH  35  38
ATOM     38  O   UNL     1       2.922   1.607  -2.778  0.00  0.00    -0.389 OA
ATOM     39  H   UNL     1       3.841   1.483  -3.055  0.00  0.00    +0.210 HD
ENDBRANCH  35  38
ENDBRANCH  34  35
ENDBRANCH  33  34
ENDBRANCH  32  33
ENDBRANCH  31  32
ENDBRANCH  26  31
ENDBRANCH   1  27
TORSDOF 9
