REMARK  Name = ZINC36550974
REMARK  9 active torsions:
REMARK  status: ('A' for Active; 'I' for Inactive)
REMARK    1  A    between atoms: C_1  and  O_2
REMARK    2  A    between atoms: O_2  and  C_3
REMARK    3  A    between atoms: C_5  and  C_13
REMARK    4  A    between atoms: C_7  and  O_11
REMARK    5  A    between atoms: C_8  and  O_9
REMARK    6  A    between atoms: O_9  and  C_10
REMARK    7  A    between atoms: O_11  and  C_12
REMARK    8  A    between atoms: C_24  and  S_29
REMARK    9  A    between atoms: S_29  and  N_32
REMARK                            x       y       z     vdW  Elec       q    Type
REMARK                         _______ _______ _______ _____ _____    ______ ____
ROOT
ATOM      1  C   UNL     1       2.402   0.386  -4.230  0.00  0.00    +0.105 C 
ATOM      2  C   UNL     1       3.893   0.544  -3.994  0.00  0.00    +0.029 C 
ATOM      3  C   UNL     1       4.332   1.096  -2.631  0.00  0.00    +0.033 C 
ATOM      4  C   UNL     1       5.703   0.440  -2.459  0.00  0.00    -0.030 C 
ATOM      5  C   UNL     1       5.755  -0.690  -3.155  0.00  0.00    -0.023 C 
ATOM      6  C   UNL     1       4.446  -0.905  -3.843  0.00  0.00    +0.049 C 
ATOM      7  C   UNL     1       4.326  -1.575  -5.156  0.00  0.00    -0.018 A 
ATOM      8  C   UNL     1       5.254  -2.487  -5.609  0.00  0.00    +0.034 A 
ATOM      9  C   UNL     1       5.091  -3.096  -6.840  0.00  0.00    +0.109 A 
ATOM     10  C   UNL     1       3.990  -2.792  -7.620  0.00  0.00    +0.030 A 
ATOM     11  C   UNL     1       3.058  -1.877  -7.178  0.00  0.00    +0.025 A 
ATOM     12  C   UNL     1       3.216  -1.253  -5.946  0.00  0.00    +0.031 A 
ATOM     13  N   UNL     1       2.273  -0.300  -5.535  0.00  0.00    -0.336 N 
ATOM     14  H   UNL     1       1.525  -0.085  -6.114  0.00  0.00    +0.147 HD
ENDROOT
BRANCH   1  17
ATOM     15  C   UNL     1       1.137  -2.599  -2.287  0.00  0.00    +0.165 A 
ATOM     16  C   UNL     1       1.701  -1.824  -3.289  0.00  0.00    +0.055 A 
ATOM     17  C   UNL     1       1.787  -0.452  -3.139  0.00  0.00    -0.020 A 
ATOM     18  C   UNL     1       1.312   0.152  -1.990  0.00  0.00    +0.055 A 
ATOM     19  C   UNL     1       0.747  -0.615  -0.983  0.00  0.00    +0.165 A 
ATOM     20  C   UNL     1       0.653  -1.994  -1.133  0.00  0.00    +0.204 A 
BRANCH  15  22
ATOM     21  C   UNL     1       1.570  -4.501  -3.647  0.00  0.00    +0.277 C 
ATOM     22  O   UNL     1       1.052  -3.948  -2.436  0.00  0.00    -0.491 OA
ENDBRANCH  15  22
BRANCH  20  23
ATOM     23  O   UNL     1       0.093  -2.750  -0.149  0.00  0.00    -0.488 OA
ATOM     24  C   UNL     1       0.968  -3.243   0.867  0.00  0.00    +0.277 C 
ENDBRANCH  20  23
BRANCH  19  25
ATOM     25  O   UNL     1       0.280  -0.020   0.147  0.00  0.00    -0.491 OA
ATOM     26  C   UNL     1       0.405   1.401   0.230  0.00  0.00    +0.277 C 
ENDBRANCH  19  25
ENDBRANCH   1  17
BRANCH   9  27
ATOM     27  S   UNL     1       6.284  -4.259  -7.412  0.00  0.00    +0.075 S 
ATOM     28  O   UNL     1       6.184  -4.279  -8.830  0.00  0.00    -0.150 OA
ATOM     29  O   UNL     1       7.498  -3.961  -6.738  0.00  0.00    -0.150 OA
BRANCH  27  30
ATOM     30  N   UNL     1       5.804  -5.753  -6.884  0.00  0.00    -0.202 N 
ATOM     31  C   UNL     1       6.190  -6.355  -5.604  0.00  0.00    +0.136 C 
ATOM     32  C   UNL     1       5.499  -7.728  -5.580  0.00  0.00    +0.058 C 
ATOM     33  C   UNL     1       4.750  -7.799  -6.892  0.00  0.00    -0.023 A 
ATOM     34  C   UNL     1       4.968  -6.621  -7.589  0.00  0.00    +0.054 A 
ATOM     35  C   UNL     1       4.368  -6.451  -8.838  0.00  0.00    +0.025 A 
ATOM     36  C   UNL     1       3.567  -7.442  -9.365  0.00  0.00    +0.002 A 
ATOM     37  C   UNL     1       3.352  -8.612  -8.660  0.00  0.00    +0.000 A 
ATOM     38  C   UNL     1       3.950  -8.791  -7.426  0.00  0.00    +0.005 A 
ENDBRANCH  27  30
ENDBRANCH   9  27
TORSDOF 6
