REMARK  Name = ZINC33374516
REMARK  11 active torsions:
REMARK  status: ('A' for Active; 'I' for Inactive)
REMARK    1  A    between atoms: C_1  and  C_2
REMARK    2  A    between atoms: C_2  and  C_3
REMARK    3  A    between atoms: C_3  and  C_4
REMARK    4  A    between atoms: C_4  and  O_5
REMARK    5  A    between atoms: O_5  and  C_6
REMARK    6  A    between atoms: C_10  and  C_12
REMARK    7  A    between atoms: C_14  and  C_15
REMARK    8  A    between atoms: C_15  and  C_16
REMARK    9  A    between atoms: C_30  and  C_36
REMARK   10  A    between atoms: C_31  and  C_33
REMARK   11  A    between atoms: C_33  and  C_35
REMARK                            x       y       z     vdW  Elec       q    Type
REMARK                         _______ _______ _______ _____ _____    ______ ____
ROOT
ATOM      1  C   UNL     1      -0.090   1.258  -0.165  0.00  0.00    +0.152 C 
ATOM      2  C   UNL     1       1.350   1.688  -0.009  0.00  0.00    +0.077 C 
ATOM      3  C   UNL     1       2.090   0.507   0.191  0.00  0.00    +0.250 C 
ATOM      4  O   UNL     1       3.294   0.439   0.359  0.00  0.00    -0.282 OA
ATOM      5  C   UNL     1       1.145  -0.641   0.162  0.00  0.00    +0.293 C 
ATOM      6  O   UNL     1       1.460  -1.805   0.304  0.00  0.00    -0.266 OA
ATOM      7  N   UNL     1      -0.108  -0.203  -0.043  0.00  0.00    -0.232 N 
ATOM      8  C   UNL     1      -1.233  -1.000  -0.125  0.00  0.00    +0.169 A 
ATOM      9  N   UNL     1      -2.492  -0.639  -0.326  0.00  0.00    -0.229 NA
ATOM     10  C   UNL     1      -3.456  -1.516  -0.381  0.00  0.00    +0.058 A 
ATOM     11  C   UNL     1      -3.119  -2.859  -0.221  0.00  0.00    +0.078 A 
ATOM     12  S   UNL     1      -1.350  -2.728  -0.001  0.00  0.00    -0.049 S 
ATOM     13  C   UNL     1      -4.884  -1.093  -0.608  0.00  0.00    +0.067 C 
ENDROOT
BRANCH   1  18
ATOM     14  C   UNL     1      -2.033   3.043  -2.870  0.00  0.00    +0.121 A 
ATOM     15  C   UNL     1      -1.553   2.417  -4.011  0.00  0.00    +0.045 A 
ATOM     16  C   UNL     1      -0.603   1.420  -3.903  0.00  0.00    +0.004 A 
ATOM     17  C   UNL     1      -0.127   1.050  -2.659  0.00  0.00    +0.006 A 
ATOM     18  C   UNL     1      -0.607   1.668  -1.520  0.00  0.00    -0.019 A 
ATOM     19  C   UNL     1      -1.557   2.666  -1.623  0.00  0.00    +0.051 A 
BRANCH  14  20
ATOM     20  O   UNL     1      -2.967   4.024  -2.974  0.00  0.00    -0.492 OA
BRANCH  20  21
ATOM     21  C   UNL     1      -3.411   4.361  -4.290  0.00  0.00    +0.229 C 
BRANCH  21  22
ATOM     22  C   UNL     1      -4.455   5.477  -4.207  0.00  0.00    +0.041 C 
BRANCH  22  24
ATOM     23  C   UNL     1      -5.973   6.953  -5.532  0.00  0.00    +0.004 C 
ATOM     24  C   UNL     1      -4.930   5.837  -5.615  0.00  0.00    -0.000 C 
ENDBRANCH  22  24
ENDBRANCH  21  22
ENDBRANCH  20  21
ENDBRANCH  14  20
ENDBRANCH   1  18
BRANCH  11  25
ATOM     25  C   UNL     1      -3.942  -4.003  -0.234  0.00  0.00    +0.168 C 
ATOM     26  O   UNL     1      -5.139  -3.887  -0.406  0.00  0.00    -0.292 OA
ATOM     27  C   UNL     1      -3.338  -5.369  -0.037  0.00  0.00    +0.092 C 
ENDBRANCH  11  25
BRANCH   2  28
ATOM     28  C   UNL     1       1.839   2.974  -0.053  0.00  0.00    +0.195 C 
ATOM     29  O   UNL     1       3.171   3.191  -0.025  0.00  0.00    -0.287 OA
BRANCH  28  30
ATOM     30  C   UNL     1       0.906   4.116  -0.132  0.00  0.00    +0.025 A 
ATOM     31  C   UNL     1       1.094   5.136  -1.074  0.00  0.00    +0.031 A 
ATOM     32  C   UNL     1       0.194   6.182  -1.114  0.00  0.00    +0.111 A 
ATOM     33  N   UNL     1      -0.822   6.235  -0.276  0.00  0.00    -0.263 NA
ATOM     34  C   UNL     1      -1.033   5.299   0.630  0.00  0.00    +0.111 A 
ATOM     35  C   UNL     1      -0.187   4.214   0.738  0.00  0.00    +0.031 A 
ENDBRANCH  28  30
ENDBRANCH   2  28
TORSDOF 8
