REMARK  Name = ZINC57460804
REMARK  7 active torsions:
REMARK  status: ('A' for Active; 'I' for Inactive)
REMARK    1  A    between atoms: C_1  and  C_2
REMARK    2  A    between atoms: C_7  and  N_8
REMARK    3  A    between atoms: N_10  and  C_29
REMARK    4  A    between atoms: C_13  and  C_16
REMARK    5  A    between atoms: C_16  and  C_17
REMARK    6  A    between atoms: N_19  and  C_20
REMARK    7  A    between atoms: C_24  and  N_26
REMARK                            x       y       z     vdW  Elec       q    Type
REMARK                         _______ _______ _______ _____ _____    ______ ____
ROOT
ATOM      1  N   UNL     1      -0.001  -0.037   2.391  0.00  0.00    -0.226 NA
ATOM      2  C   UNL     1      -0.092  -0.700   3.520  0.00  0.00    +0.164 C 
ATOM      3  N   UNL     1      -0.209  -0.194   4.798  0.00  0.00    -0.247 N 
ATOM      4  C   UNL     1      -0.294  -0.972   5.864  0.00  0.00    +0.235 C 
ATOM      5  O   UNL     1      -0.398  -0.520   6.984  0.00  0.00    -0.274 OA
ATOM      6  C   UNL     1      -0.253  -2.468   5.597  0.00  0.00    +0.149 C 
ATOM      7  S   UNL     1      -0.100  -2.470   3.763  0.00  0.00    -0.077 S 
ENDROOT
BRANCH   1  14
ATOM      8  C   UNL     1       2.017   0.601   0.495  0.00  0.00    +0.046 C 
ATOM      9  C   UNL     1       0.956  -0.437   0.231  0.00  0.00    -0.025 A 
ATOM     10  C   UNL     1       0.943  -1.123  -0.966  0.00  0.00    +0.005 A 
ATOM     11  C   UNL     1      -0.030  -2.076  -1.210  0.00  0.00    +0.000 A 
ATOM     12  C   UNL     1      -0.996  -2.348  -0.257  0.00  0.00    +0.002 A 
ATOM     13  C   UNL     1      -0.994  -1.670   0.944  0.00  0.00    +0.028 A 
ATOM     14  C   UNL     1      -0.012  -0.710   1.199  0.00  0.00    +0.069 A 
ENDBRANCH   1  14
BRANCH   3  15
ATOM     15  C   UNL     1      -0.243   1.259   4.981  0.00  0.00    +0.084 C 
ATOM     16  C   UNL     1      -0.492   2.121   3.742  0.00  0.00    +0.025 C 
ATOM     17  C   UNL     1       0.901   2.074   4.373  0.00  0.00    +0.025 C 
ENDBRANCH   3  15
BRANCH   6  18
ATOM     18  C   UNL     1       0.963  -3.117   6.262  0.00  0.00    +0.120 C 
BRANCH  18  19
ATOM     19  C   UNL     1       0.899  -4.611   6.077  0.00  0.00    +0.219 C 
ATOM     20  O   UNL     1      -0.028  -5.108   5.472  0.00  0.00    -0.275 OA
ATOM     21  N   UNL     1       1.871  -5.395   6.582  0.00  0.00    -0.285 N 
ATOM     22  H   UNL     1       2.647  -4.994   7.004  0.00  0.00    +0.155 HD
BRANCH  21  23
ATOM     23  C   UNL     1       1.762  -6.787   6.500  0.00  0.00    +0.036 A 
ATOM     24  C   UNL     1       2.229  -7.585   7.536  0.00  0.00    +0.023 A 
ATOM     25  C   UNL     1       2.120  -8.959   7.451  0.00  0.00    +0.004 A 
ATOM     26  C   UNL     1       1.545  -9.541   6.335  0.00  0.00    +0.033 A 
ATOM     27  C   UNL     1       1.079  -8.749   5.302  0.00  0.00    +0.128 A 
ATOM     28  C   UNL     1       1.180  -7.374   5.384  0.00  0.00    +0.056 A 
BRANCH  27  29
ATOM     29  N   UNL     1       0.465  -9.376   4.109  0.00  0.00    +0.056 N 
ATOM     30  O   UNL     1       0.372 -10.579   4.040  0.00  0.00    -0.126 OA
ATOM     31  O   UNL     1       0.058  -8.684   3.205  0.00  0.00    -0.126 OA
ENDBRANCH  27  29
ENDBRANCH  21  23
ENDBRANCH  18  19
ENDBRANCH   6  18
TORSDOF 6
