REMARK  Name = ZINC07559933
REMARK  8 active torsions:
REMARK  status: ('A' for Active; 'I' for Inactive)
REMARK    1  A    between atoms: C_1  and  C_2
REMARK    2  A    between atoms: C_2  and  C_3
REMARK    3  A    between atoms: C_2  and  C_4
REMARK    4  A    between atoms: C_7  and  N_10
REMARK    5  A    between atoms: C_11  and  S_15
REMARK    6  A    between atoms: S_15  and  C_16
REMARK    7  A    between atoms: C_16  and  C_17
REMARK    8  A    between atoms: C_17  and  C_19
REMARK                            x       y       z     vdW  Elec       q    Type
REMARK                         _______ _______ _______ _____ _____    ______ ____
ROOT
ATOM      1  S   UNL     1      -5.739  -1.867  -2.715  0.00  0.00    -0.076 S 
ENDROOT
BRANCH   1   3
ATOM      2  N   UNL     1      -5.323  -1.969   0.042  0.00  0.00    -0.187 N 
ATOM      3  C   UNL     1      -6.136  -2.170  -1.026  0.00  0.00    +0.214 A 
ATOM      4  N   UNL     1      -7.276  -2.634  -0.560  0.00  0.00    -0.101 NA
ATOM      5  N   UNL     1      -7.231  -2.736   0.719  0.00  0.00    -0.022 NA
ATOM      6  N   UNL     1      -6.081  -2.358   1.161  0.00  0.00    -0.038 NA
BRANCH   2  10
ATOM      7  C   UNL     1      -1.412  -0.526   0.013  0.00  0.00    -0.045 A 
ATOM      8  C   UNL     1      -2.258  -0.203   1.058  0.00  0.00    +0.006 A 
ATOM      9  C   UNL     1      -3.555  -0.680   1.070  0.00  0.00    +0.028 A 
ATOM     10  C   UNL     1      -4.008  -1.483   0.032  0.00  0.00    +0.070 A 
ATOM     11  C   UNL     1      -3.155  -1.805  -1.016  0.00  0.00    +0.028 A 
ATOM     12  C   UNL     1      -1.862  -1.321  -1.025  0.00  0.00    +0.006 A 
BRANCH   7  14
ATOM     13  C   UNL     1      -0.019   1.526   0.010  0.00  0.00    +0.012 C 
ATOM     14  C   UNL     1       0.002  -0.004   0.002  0.00  0.00    +0.013 C 
ATOM     15  C   UNL     1       0.742  -0.511   1.242  0.00  0.00    +0.012 C 
ENDBRANCH   7  14
ENDBRANCH   2  10
ENDBRANCH   1   3
BRANCH   1  16
ATOM     16  C   UNL     1      -7.244  -2.340  -3.611  0.00  0.00    +0.157 C 
BRANCH  16  17
ATOM     17  C   UNL     1      -7.038  -2.126  -5.088  0.00  0.00    +0.173 C 
ATOM     18  O   UNL     1      -5.980  -1.697  -5.497  0.00  0.00    -0.291 OA
BRANCH  17  19
ATOM     19  C   UNL     1      -8.118  -2.438  -6.033  0.00  0.00    +0.020 A 
ATOM     20  C   UNL     1      -9.343  -2.927  -5.563  0.00  0.00    +0.015 A 
ATOM     21  C   UNL     1     -10.356  -3.219  -6.449  0.00  0.00    +0.048 A 
ATOM     22  C   UNL     1     -10.167  -3.028  -7.810  0.00  0.00    +0.142 A 
ATOM     23  C   UNL     1      -8.947  -2.540  -8.288  0.00  0.00    +0.076 A 
ATOM     24  C   UNL     1      -7.928  -2.240  -7.407  0.00  0.00    +0.038 A 
ATOM     25  N   UNL     1      -8.777  -2.355  -9.668  0.00  0.00    -0.280 N 
ATOM     26  C   UNL     1      -9.866  -2.344 -10.466  0.00  0.00    +0.255 C 
ATOM     27  O   UNL     1      -9.741  -2.216 -11.666  0.00  0.00    -0.272 OA
ATOM     28  C   UNL     1     -11.238  -2.493  -9.860  0.00  0.00    +0.325 C 
ATOM     29  O   UNL     1     -11.161  -3.313  -8.691  0.00  0.00    -0.481 OA
ATOM     30  H   UNL     1      -7.890  -2.236 -10.043  0.00  0.00    +0.155 HD
ENDBRANCH  17  19
ENDBRANCH  16  17
ENDBRANCH   1  16
TORSDOF 6
