REMARK  Name = ZINC08157256
REMARK  6 active torsions:
REMARK  status: ('A' for Active; 'I' for Inactive)
REMARK    1  A    between atoms: C_4  and  N_23
REMARK    2  A    between atoms: C_5  and  N_7
REMARK    3  A    between atoms: C_8  and  C_10
REMARK    4  A    between atoms: C_10  and  N_56
REMARK    5  A    between atoms: N_13  and  C_16
REMARK    6  A    between atoms: C_21  and  O_22
REMARK                            x       y       z     vdW  Elec       q    Type
REMARK                         _______ _______ _______ _____ _____    ______ ____
ROOT
ATOM      1  C   UNL     1       3.509   2.020   1.203  0.00  0.00    +0.019 C 
ENDROOT
BRANCH   1   7
ATOM      2  C   UNL     1       1.426   2.006  -0.032  0.00  0.00    -0.059 C 
ATOM      3  C   UNL     1      -0.010   1.476  -0.025  0.00  0.00    +0.086 C 
ATOM      4  N   UNL     1       0.013   0.006  -0.050  0.00  0.00    -0.331 N 
ATOM      5  C   UNL     1       0.735  -0.526   1.114  0.00  0.00    +0.086 C 
ATOM      6  C   UNL     1       2.171   0.004   1.107  0.00  0.00    -0.059 C 
ATOM      7  N   UNL     1       2.133   1.481   1.155  0.00  0.00    +0.387 N 
ATOM      8  H   UNL     1       1.630   1.775   2.001  0.00  0.00    -0.081 HD
BRANCH   4   9
ATOM      9  C   UNL     1      -1.284  -0.514  -0.118  0.00  0.00    +0.072 A 
ATOM     10  C   UNL     1      -2.197  -0.240   0.890  0.00  0.00    +0.027 A 
ATOM     11  C   UNL     1      -3.479  -0.751   0.819  0.00  0.00    +0.002 A 
ATOM     12  C   UNL     1      -3.852  -1.545  -0.250  0.00  0.00    +0.004 A 
ATOM     13  C   UNL     1      -2.946  -1.828  -1.255  0.00  0.00    +0.047 A 
ATOM     14  C   UNL     1      -1.660  -1.315  -1.194  0.00  0.00    +0.138 A 
BRANCH  14  15
ATOM     15  O   UNL     1      -0.768  -1.593  -2.182  0.00  0.00    -0.505 OA
ATOM     16  H   UNL     1      -0.245  -2.391  -2.026  0.00  0.00    +0.292 HD
ENDBRANCH  14  15
ENDBRANCH   4   9
ENDBRANCH   1   7
BRANCH   1  18
ATOM     17  N   UNL     1       4.579   4.218   1.580  0.00  0.00    -0.286 N 
ATOM     18  C   UNL     1       3.443   3.501   1.474  0.00  0.00    +0.201 C 
ATOM     19  O   UNL     1       2.367   4.047   1.596  0.00  0.00    -0.278 OA
ATOM     20  H   UNL     1       5.439   3.770   1.563  0.00  0.00    +0.155 HD
BRANCH  17  25
ATOM     21  C   UNL     1       3.355   7.683   1.380  0.00  0.00    +0.002 A 
ATOM     22  C   UNL     1       4.395   8.367   1.982  0.00  0.00    +0.002 A 
ATOM     23  C   UNL     1       5.499   7.682   2.453  0.00  0.00    +0.025 A 
ATOM     24  C   UNL     1       5.566   6.302   2.322  0.00  0.00    +0.051 A 
ATOM     25  C   UNL     1       4.517   5.612   1.715  0.00  0.00    +0.055 A 
ATOM     26  C   UNL     1       3.416   6.309   1.241  0.00  0.00    +0.025 A 
BRANCH  24  27
ATOM     27  N   UNL     1       6.683   5.606   2.797  0.00  0.00    -0.328 N 
ATOM     28  C   UNL     1       7.588   6.506   3.556  0.00  0.00    +0.105 C 
ATOM     29  C   UNL     1       8.425   5.526   4.415  0.00  0.00    +0.020 C 
ATOM     30  C   UNL     1       7.394   4.441   4.805  0.00  0.00    +0.020 C 
ATOM     31  C   UNL     1       6.281   4.545   3.746  0.00  0.00    +0.105 C 
ENDBRANCH  24  27
ENDBRANCH  17  25
ENDBRANCH   1  18
TORSDOF 6
