REMARK  Name = ZINC08721087
REMARK  6 active torsions:
REMARK  status: ('A' for Active; 'I' for Inactive)
REMARK    1  A    between atoms: C_4  and  C_7
REMARK    2  A    between atoms: C_7  and  C_9
REMARK    3  A    between atoms: C_7  and  N_14
REMARK    4  A    between atoms: C_15  and  C_17
REMARK    5  A    between atoms: C_17  and  N_18
REMARK    6  A    between atoms: C_20  and  C_29
REMARK                            x       y       z     vdW  Elec       q    Type
REMARK                         _______ _______ _______ _____ _____    ______ ____
ROOT
ATOM      1  N   UNL     1       2.205  -2.610  -1.034  0.00  0.00    -0.303 N 
ATOM      2  C   UNL     1       2.132  -3.835  -1.590  0.00  0.00    +0.231 C 
ATOM      3  O   UNL     1       1.141  -4.515  -1.430  0.00  0.00    -0.274 OA
ATOM      4  H   UNL     1       2.998  -2.065  -1.162  0.00  0.00    +0.150 HD
ENDROOT
BRANCH   1   5
ATOM      5  C   UNL     1       1.088  -2.100  -0.235  0.00  0.00    +0.140 C 
BRANCH   5   9
ATOM      6  C   UNL     1       1.147   2.171  -0.264  0.00  0.00    +0.000 A 
ATOM      7  C   UNL     1      -0.056   1.496  -0.354  0.00  0.00    +0.000 A 
ATOM      8  C   UNL     1      -0.075   0.114  -0.344  0.00  0.00    +0.006 A 
ATOM      9  C   UNL     1       1.109  -0.593  -0.246  0.00  0.00    -0.022 A 
ATOM     10  C   UNL     1       2.312   0.082  -0.157  0.00  0.00    +0.006 A 
ATOM     11  C   UNL     1       2.331   1.464  -0.167  0.00  0.00    +0.000 A 
ENDBRANCH   5   9
BRANCH   5  12
ATOM     12  C   UNL     1       1.218  -2.594   1.183  0.00  0.00    +0.014 A 
ATOM     13  C   UNL     1       0.250  -3.026   2.028  0.00  0.00    +0.013 A 
ATOM     14  C   UNL     1       0.606  -3.441   3.298  0.00  0.00    +0.008 A 
ATOM     15  C   UNL     1       1.910  -3.393   3.664  0.00  0.00    +0.045 A 
ATOM     16  S   UNL     1       2.684  -2.754   2.188  0.00  0.00    -0.099 S 
ENDBRANCH   5  12
ENDBRANCH   1   5
BRANCH   2  17
ATOM     17  C   UNL     1       3.281  -4.359  -2.412  0.00  0.00    +0.201 C 
BRANCH  17  18
ATOM     18  N   UNL     1       3.013  -5.751  -2.797  0.00  0.00    -0.314 N 
ATOM     19  C   UNL     1       1.923  -5.826  -3.777  0.00  0.00    +0.160 C 
ATOM     20  C   UNL     1       1.607  -7.303  -4.045  0.00  0.00    +0.275 C 
ATOM     21  O   UNL     1       1.139  -7.882  -2.823  0.00  0.00    -0.476 OA
ATOM     22  C   UNL     1       1.846  -7.587  -1.697  0.00  0.00    +0.143 A 
ATOM     23  C   UNL     1       2.764  -6.543  -1.671  0.00  0.00    +0.073 A 
ATOM     24  C   UNL     1       3.460  -6.271  -0.498  0.00  0.00    +0.027 A 
ATOM     25  C   UNL     1       3.243  -7.034   0.633  0.00  0.00    +0.002 A 
ATOM     26  C   UNL     1       2.332  -8.073   0.604  0.00  0.00    +0.004 A 
ATOM     27  C   UNL     1       1.635  -8.350  -0.557  0.00  0.00    +0.047 A 
BRANCH  20  28
ATOM     28  C   UNL     1       0.539  -7.412  -5.102  0.00  0.00    +0.253 C 
ATOM     29  O   UNL     1      -0.546  -7.877  -4.823  0.00  0.00    -0.272 OA
ATOM     30  N   UNL     1       0.788  -6.991  -6.358  0.00  0.00    -0.326 N 
ATOM     31  H   UNL     1       1.655  -6.619  -6.582  0.00  0.00    +0.145 HD
ATOM     32  H   UNL     1       0.100  -7.061  -7.039  0.00  0.00    +0.145 HD
ENDBRANCH  20  28
ENDBRANCH  17  18
ENDBRANCH   2  17
TORSDOF 6
