REMARK  Name = ZINC44514723
REMARK  3 active torsions:
REMARK  status: ('A' for Active; 'I' for Inactive)
REMARK    1  A    between atoms: C_1  and  C_2
REMARK    2  A    between atoms: C_7  and  C_8
REMARK    3  A    between atoms: C_16  and  C_18
REMARK                            x       y       z     vdW  Elec       q    Type
REMARK                         _______ _______ _______ _____ _____    ______ ____
ROOT
ATOM      1  C   UNL     1      -0.707  -0.495   2.647  0.00  0.00    +0.263 C 
ATOM      2  O   UNL     1      -0.632   0.696   2.885  0.00  0.00    -0.268 OA
ATOM      3  N   UNL     1      -0.593  -1.391   3.646  0.00  0.00    -0.293 N 
ATOM      4  C   UNL     1      -0.566  -2.833   3.360  0.00  0.00    +0.127 C 
ATOM      5  C   UNL     1       0.705  -3.431   3.976  0.00  0.00    +0.127 C 
ATOM      6  N   UNL     1       0.805  -2.985   5.372  0.00  0.00    -0.296 N 
ATOM      7  C   UNL     1       0.778  -1.544   5.659  0.00  0.00    +0.127 C 
ATOM      8  C   UNL     1      -0.487  -0.945   5.043  0.00  0.00    +0.127 C 
ATOM      9  C   UNL     1       0.919  -3.881   6.372  0.00  0.00    +0.245 C 
ATOM     10  O   UNL     1       0.913  -3.507   7.526  0.00  0.00    -0.273 OA
ENDROOT
BRANCH   1  17
ATOM     11  C   UNL     1      -3.375  -1.674   1.525  0.00  0.00    +0.047 C 
ATOM     12  C   UNL     1      -2.086  -1.472   0.771  0.00  0.00    -0.010 A 
ATOM     13  C   UNL     1      -1.848  -1.771  -0.576  0.00  0.00    +0.042 A 
ATOM     14  C   UNL     1      -0.525  -1.429  -0.858  0.00  0.00    +0.027 A 
ATOM     15  N   UNL     1       0.020  -0.943   0.257  0.00  0.00    -0.354 N 
ATOM     16  H   UNL     1       0.932  -0.626   0.344  0.00  0.00    +0.166 HD
ATOM     17  C   UNL     1      -0.922  -0.956   1.269  0.00  0.00    +0.106 A 
ATOM     18  C   UNL     1       0.095  -1.617  -2.219  0.00  0.00    +0.054 C 
ATOM     19  C   UNL     1      -0.719  -2.647  -3.008  0.00  0.00    +0.014 C 
ATOM     20  C   UNL     1      -2.202  -2.264  -3.027  0.00  0.00    +0.080 C 
ATOM     21  C   UNL     1      -2.736  -2.335  -1.604  0.00  0.00    +0.165 C 
ATOM     22  O   UNL     1      -3.814  -2.822  -1.337  0.00  0.00    -0.292 OA
ENDBRANCH   1  17
BRANCH   9  23
ATOM     23  C   UNL     1       1.054  -5.349   6.057  0.00  0.00    +0.204 C 
ATOM     24  C   UNL     1       2.447  -5.641   5.445  0.00  0.00    +0.043 C 
ATOM     25  C   UNL     1       2.618  -7.142   5.804  0.00  0.00    +0.031 C 
ATOM     26  C   UNL     1       1.904  -7.236   7.169  0.00  0.00    +0.161 C 
ATOM     27  O   UNL     1       1.002  -6.125   7.264  0.00  0.00    -0.367 OA
ENDBRANCH   9  23
TORSDOF 2
