REMARK  Name = ZINC05860086
REMARK  5 active torsions:
REMARK  status: ('A' for Active; 'I' for Inactive)
REMARK    1  A    between atoms: C_1  and  C_2
REMARK    2  A    between atoms: C_2  and  C_3
REMARK    3  A    between atoms: C_2  and  N_4
REMARK    4  A    between atoms: C_8  and  C_9
REMARK    5  A    between atoms: C_12  and  N_14
REMARK                            x       y       z     vdW  Elec       q    Type
REMARK                         _______ _______ _______ _____ _____    ______ ____
ROOT
ATOM      1  N   UNL     1       1.337  -0.289  -0.389  0.00  0.00    -0.253 N 
ATOM      2  C   UNL     1       2.235   0.680  -0.316  0.00  0.00    +0.259 C 
ATOM      3  O   UNL     1       3.426   0.461  -0.405  0.00  0.00    -0.269 OA
ATOM      4  C   UNL     1       1.699   2.059  -0.118  0.00  0.00    +0.078 C 
ATOM      5  C   UNL     1       2.399   3.285  -0.004  0.00  0.00    +0.035 C 
ATOM      6  S   UNL     1      -0.011   1.762  -0.065  0.00  0.00    -0.061 S 
ATOM      7  C   UNL     1       0.023  -0.007  -0.285  0.00  0.00    +0.121 C 
ATOM      8  S   UNL     1      -1.301  -1.091  -0.350  0.00  0.00    -0.027 S 
ENDROOT
BRANCH   5   9
ATOM      9  C   UNL     1       3.777   3.287   0.087  0.00  0.00    +0.016 A 
ATOM     10  C   UNL     1       4.739   4.305  -0.373  0.00  0.00    +0.018 A 
ATOM     11  C   UNL     1       6.028   4.031  -0.146  0.00  0.00    +0.041 A 
ATOM     12  C   UNL     1       6.379   2.838   0.491  0.00  0.00    +0.164 A 
ATOM     13  S   UNL     1       4.861   2.061   0.799  0.00  0.00    -0.065 S 
BRANCH  12  14
ATOM     14  N   UNL     1       7.737   2.353   0.832  0.00  0.00    +0.063 N 
ATOM     15  O   UNL     1       8.792   3.080   0.528  0.00  0.00    -0.126 OA
ATOM     16  O   UNL     1       7.889   1.194   1.439  0.00  0.00    -0.126 OA
ENDBRANCH  12  14
ENDBRANCH   5   9
BRANCH   1  18
ATOM     17  C   UNL     1       1.301  -2.527   0.597  0.00  0.00    +0.028 C 
ATOM     18  C   UNL     1       1.772  -1.674  -0.583  0.00  0.00    +0.077 C 
ATOM     19  C   UNL     1       1.172  -2.221  -1.880  0.00  0.00    +0.028 C 
ENDBRANCH   1  18
TORSDOF 3
