REMARK  Name = ZINC67244394
REMARK  7 active torsions:
REMARK  status: ('A' for Active; 'I' for Inactive)
REMARK    1  A    between atoms: C_1  and  N_2
REMARK    2  A    between atoms: N_2  and  C_3
REMARK    3  A    between atoms: N_2  and  C_4
REMARK    4  A    between atoms: N_13  and  S_15
REMARK    5  A    between atoms: S_15  and  C_18
REMARK    6  A    between atoms: C_23  and  S_24
REMARK    7  A    between atoms: S_24  and  C_27
REMARK                            x       y       z     vdW  Elec       q    Type
REMARK                         _______ _______ _______ _____ _____    ______ ____
ROOT
ATOM      1  C   UNL     1      -1.000  -0.957  -0.565  0.00  0.00    -0.046 C 
ATOM      2  C   UNL     1      -1.355  -2.443  -0.521  0.00  0.00    +0.023 C 
ATOM      3  C   UNL     1      -2.847  -2.631  -0.601  0.00  0.00    -0.026 A 
ATOM      4  C   UNL     1      -3.397  -3.821  -0.154  0.00  0.00    +0.005 A 
ATOM      5  C   UNL     1      -4.762  -4.024  -0.215  0.00  0.00    +0.000 A 
ATOM      6  C   UNL     1      -5.589  -3.040  -0.726  0.00  0.00    +0.002 A 
ATOM      7  C   UNL     1      -5.049  -1.851  -1.173  0.00  0.00    +0.025 A 
ATOM      8  C   UNL     1      -3.675  -1.643  -1.110  0.00  0.00    +0.054 A 
ATOM      9  N   UNL     1      -3.149  -0.428  -1.560  0.00  0.00    -0.204 N 
ATOM     10  C   UNL     1      -1.699  -0.313  -1.769  0.00  0.00    +0.117 C 
ENDROOT
BRANCH   1  12
ATOM     11  C   UNL     1       0.793   0.627  -0.748  0.00  0.00    -0.096 C 
ATOM     12  N   UNL     1       0.455  -0.802  -0.700  0.00  0.00    +0.379 N 
ATOM     13  C   UNL     1       1.122  -1.425   0.451  0.00  0.00    -0.096 C 
ATOM     14  H   UNL     1       0.763  -1.249  -1.550  0.00  0.00    -0.082 HD
ENDBRANCH   1  12
BRANCH   9  15
ATOM     15  S   UNL     1      -4.144   0.863  -1.852  0.00  0.00    +0.076 S 
ATOM     16  O   UNL     1      -5.232   0.751  -0.945  0.00  0.00    -0.150 OA
ATOM     17  O   UNL     1      -3.312   2.014  -1.905  0.00  0.00    -0.150 OA
BRANCH  15  18
ATOM     18  C   UNL     1      -4.812   0.651  -3.469  0.00  0.00    +0.133 A 
ATOM     19  C   UNL     1      -4.388  -0.401  -4.260  0.00  0.00    +0.031 A 
ATOM     20  C   UNL     1      -4.912  -0.567  -5.528  0.00  0.00    +0.002 A 
ATOM     21  C   UNL     1      -5.862   0.317  -6.005  0.00  0.00    +0.002 A 
ATOM     22  C   UNL     1      -6.286   1.368  -5.214  0.00  0.00    +0.029 A 
ATOM     23  C   UNL     1      -5.765   1.532  -3.944  0.00  0.00    +0.114 A 
BRANCH  23  24
ATOM     24  S   UNL     1      -6.311   2.868  -2.933  0.00  0.00    -0.004 S 
ATOM     25  O   UNL     1      -5.143   3.314  -2.258  0.00  0.00    -0.170 OA
ATOM     26  O   UNL     1      -7.009   3.732  -3.820  0.00  0.00    -0.170 OA
ATOM     27  C   UNL     1      -7.467   2.118  -1.753  0.00  0.00    +0.200 C 
ENDBRANCH  23  24
ENDBRANCH  15  18
ENDBRANCH   9  15
TORSDOF 4
