REMARK  Name = ZINC17188996
REMARK  5 active torsions:
REMARK  status: ('A' for Active; 'I' for Inactive)
REMARK    1  A    between atoms: C_1  and  C_2
REMARK    2  A    between atoms: C_2  and  N_3
REMARK    3  A    between atoms: C_12  and  C_14
REMARK    4  A    between atoms: N_16  and  N_17
REMARK    5  A    between atoms: C_18  and  C_20
REMARK                            x       y       z     vdW  Elec       q    Type
REMARK                         _______ _______ _______ _____ _____    ______ ____
ROOT
ATOM      1  C   UNL     1       2.442  -2.949  -0.038  0.00  0.00    +0.281 C 
ATOM      2  O   UNL     1       3.517  -2.381  -0.045  0.00  0.00    -0.267 OA
ATOM      3  N   UNL     1       2.392  -4.296  -0.045  0.00  0.00    -0.229 N 
ATOM      4  H   UNL     1       1.534  -4.749  -0.040  0.00  0.00    +0.173 HD
ENDROOT
BRANCH   1  14
ATOM      5  N   UNL     1      -1.098  -2.162   0.000  0.00  0.00    -0.229 N 
ATOM      6  C   UNL     1      -1.221  -0.819   0.009  0.00  0.00    +0.275 A 
ATOM      7  O   UNL     1      -2.319  -0.294   0.022  0.00  0.00    -0.266 OA
ATOM      8  C   UNL     1       0.002  -0.004   0.002  0.00  0.00    +0.050 A 
ATOM      9  C   UNL     1      -0.017   1.387   0.010  0.00  0.00    +0.014 A 
ATOM     10  C   UNL     1       1.176   2.079   0.002  0.00  0.00    +0.001 A 
ATOM     11  C   UNL     1       2.389   1.403  -0.013  0.00  0.00    +0.001 A 
ATOM     12  C   UNL     1       2.428   0.025  -0.021  0.00  0.00    +0.011 A 
ATOM     13  C   UNL     1       1.237  -0.693  -0.013  0.00  0.00    +0.020 A 
ATOM     14  C   UNL     1       1.192  -2.164  -0.021  0.00  0.00    +0.155 A 
ATOM     15  N   UNL     1       0.029  -2.768  -0.014  0.00  0.00    -0.163 NA
BRANCH   5  17
ATOM     16  C   UNL     1      -2.759  -3.244  -1.433  0.00  0.00    +0.029 C 
ATOM     17  C   UNL     1      -2.320  -2.970   0.007  0.00  0.00    +0.144 C 
ENDBRANCH   5  17
ENDBRANCH   1  14
BRANCH   3  18
ATOM     18  N   UNL     1       3.578  -5.042  -0.061  0.00  0.00    -0.230 N 
ATOM     19  C   UNL     1       3.527  -6.388  -0.068  0.00  0.00    +0.261 C 
ATOM     20  O   UNL     1       2.452  -6.957  -0.061  0.00  0.00    -0.269 OA
ATOM     21  H   UNL     1       4.435  -4.588  -0.067  0.00  0.00    +0.173 HD
BRANCH  19  22
ATOM     22  C   UNL     1       4.774  -7.171  -0.085  0.00  0.00    +0.049 A 
ATOM     23  C   UNL     1       6.003  -6.551  -0.093  0.00  0.00    +0.058 A 
ATOM     24  S   UNL     1       7.117  -7.878  -0.111  0.00  0.00    -0.101 S 
ATOM     25  C   UNL     1       5.961  -9.218  -0.107  0.00  0.00    -0.006 A 
ATOM     26  C   UNL     1       4.747  -8.622  -0.087  0.00  0.00    -0.025 A 
ATOM     27  C   UNL     1       3.467  -9.449  -0.088  0.00  0.00    +0.037 C 
ATOM     28  C   UNL     1       3.796 -10.867  -0.557  0.00  0.00    +0.005 C 
ATOM     29  C   UNL     1       4.957 -11.432   0.267  0.00  0.00    +0.005 C 
ATOM     30  C   UNL     1       6.245 -10.688  -0.118  0.00  0.00    +0.043 C 
ENDBRANCH  19  22
ENDBRANCH   3  18
TORSDOF 4
