REMARK  Name = ZINC63752547
REMARK  8 active torsions:
REMARK  status: ('A' for Active; 'I' for Inactive)
REMARK    1  A    between atoms: C_1  and  C_2
REMARK    2  A    between atoms: C_7  and  C_22
REMARK    3  A    between atoms: C_9  and  N_12
REMARK    4  A    between atoms: C_13  and  C_15
REMARK    5  A    between atoms: N_24  and  C_25
REMARK    6  A    between atoms: C_25  and  C_26
REMARK    7  A    between atoms: C_26  and  C_27
REMARK    8  A    between atoms: C_26  and  C_28
REMARK                            x       y       z     vdW  Elec       q    Type
REMARK                         _______ _______ _______ _____ _____    ______ ____
ROOT
ATOM      1  C   UNL     1      -2.450   0.921   0.249  0.00  0.00    +0.044 C 
ATOM      2  C   UNL     1      -1.738  -0.406   0.169  0.00  0.00    -0.050 A 
ATOM      3  C   UNL     1      -1.588  -1.024  -1.075  0.00  0.00    +0.005 A 
ATOM      4  C   UNL     1      -0.958  -2.216  -1.211  0.00  0.00    +0.026 A 
ATOM      5  C   UNL     1      -0.430  -2.869  -0.067  0.00  0.00    +0.045 A 
ATOM      6  N   UNL     1       0.213  -4.012   0.065  0.00  0.00    -0.369 N 
ATOM      7  C   UNL     1       0.537  -4.219   1.480  0.00  0.00    +0.211 C 
ATOM      8  C   UNL     1      -0.010  -3.014   2.213  0.00  0.00    +0.051 C 
ATOM      9  C   UNL     1      -0.590  -2.215   1.242  0.00  0.00    +0.018 A 
ATOM     10  C   UNL     1      -1.255  -0.967   1.305  0.00  0.00    +0.015 A 
ATOM     11  H   UNL     1       0.435  -4.620  -0.657  0.00  0.00    +0.161 HD
ENDROOT
BRANCH   8  12
ATOM     12  N   UNL     1       0.055  -2.767   3.550  0.00  0.00    -0.282 N 
ATOM     13  C   UNL     1       0.141  -1.498   3.997  0.00  0.00    +0.248 C 
ATOM     14  O   UNL     1       0.126  -0.573   3.209  0.00  0.00    -0.270 OA
ATOM     15  H   UNL     1       0.039  -3.503   4.181  0.00  0.00    +0.155 HD
BRANCH  13  16
ATOM     16  C   UNL     1       0.255  -1.232   5.445  0.00  0.00    +0.037 A 
ATOM     17  C   UNL     1       0.279  -2.293   6.354  0.00  0.00    +0.014 A 
ATOM     18  C   UNL     1       0.385  -2.038   7.704  0.00  0.00    +0.021 A 
ATOM     19  C   UNL     1       0.468  -0.733   8.161  0.00  0.00    +0.041 A 
ATOM     20  C   UNL     1       0.444   0.324   7.266  0.00  0.00    +0.021 A 
ATOM     21  C   UNL     1       0.345   0.082   5.912  0.00  0.00    +0.014 A 
ATOM     22 CL   UNL     1       0.601  -0.419   9.864  0.00  0.00    -0.084 Cl
ENDBRANCH  13  16
ENDBRANCH   8  12
BRANCH   7  23
ATOM     23  C   UNL     1       2.030  -4.306   1.663  0.00  0.00    +0.241 C 
ATOM     24  O   UNL     1       2.772  -3.882   0.803  0.00  0.00    -0.273 OA
ATOM     25  N   UNL     1       2.541  -4.855   2.783  0.00  0.00    -0.313 N 
ATOM     26  H   UNL     1       1.948  -5.194   3.471  0.00  0.00    +0.149 HD
BRANCH  25  27
ATOM     27  C   UNL     1       3.993  -4.939   2.961  0.00  0.00    +0.107 C 
BRANCH  27  28
ATOM     28  C   UNL     1       4.304  -5.599   4.306  0.00  0.00    -0.000 C 
ATOM     29  C   UNL     1       5.815  -5.801   4.437  0.00  0.00    +0.009 C 
ATOM     30  C   UNL     1       3.809  -4.701   5.441  0.00  0.00    +0.009 C 
ENDBRANCH  27  28
ENDBRANCH  25  27
ENDBRANCH   7  23
TORSDOF 5
