REMARK  Name = ZINC43631159
REMARK  10 active torsions:
REMARK  status: ('A' for Active; 'I' for Inactive)
REMARK    1  A    between atoms: C_1  and  C_2
REMARK    2  A    between atoms: C_2  and  C_38
REMARK    3  A    between atoms: C_7  and  C_11
REMARK    4  A    between atoms: C_11  and  N_12
REMARK    5  A    between atoms: C_16  and  C_26
REMARK    6  A    between atoms: C_17  and  O_24
REMARK    7  A    between atoms: O_24  and  C_25
REMARK    8  A    between atoms: C_32  and  C_34
REMARK    9  A    between atoms: C_34  and  O_36
REMARK   10  A    between atoms: O_36  and  C_37
REMARK                            x       y       z     vdW  Elec       q    Type
REMARK                         _______ _______ _______ _____ _____    ______ ____
ROOT
ATOM      1  N   UNL     1       1.511  -3.034   3.341  0.00  0.00    +0.384 N 
ATOM      2  C   UNL     1       1.114  -3.483   4.667  0.00  0.00    -0.072 C 
ATOM      3  C   UNL     1       2.337  -3.654   5.572  0.00  0.00    +0.036 C 
ATOM      4  C   UNL     1       2.920  -5.033   5.333  0.00  0.00    +0.036 A 
ATOM      5  C   UNL     1       2.806  -5.989   6.321  0.00  0.00    +0.098 A 
ATOM      6  C   UNL     1       3.375  -7.320   6.079  0.00  0.00    +0.139 A 
ATOM      7  C   UNL     1       3.999  -7.549   4.869  0.00  0.00    +0.116 A 
ATOM      8  C   UNL     1       4.067  -6.517   3.926  0.00  0.00    +0.255 A 
ATOM      9  O   UNL     1       4.619  -6.718   2.857  0.00  0.00    -0.268 OA
ATOM     10  N   UNL     1       3.533  -5.306   4.177  0.00  0.00    -0.313 N 
ATOM     11  C   UNL     1       3.635  -4.261   3.140  0.00  0.00    +0.106 C 
ATOM     12  C   UNL     1       2.242  -4.016   2.557  0.00  0.00    -0.056 C 
ATOM     13  H   UNL     1       2.090  -2.214   3.445  0.00  0.00    -0.081 HD
ENDROOT
BRANCH   5  14
ATOM     14  C   UNL     1       2.128  -5.681   7.592  0.00  0.00    +0.253 C 
ATOM     15  O   UNL     1       0.978  -6.034   7.769  0.00  0.00    -0.270 OA
ATOM     16  N   UNL     1       2.783  -5.008   8.559  0.00  0.00    -0.284 N 
ATOM     17  C   UNL     1       4.134  -4.430   8.440  0.00  0.00    +0.109 C 
ATOM     18  C   UNL     1       4.658  -4.343   9.895  0.00  0.00    +0.021 C 
ATOM     19  C   UNL     1       3.368  -3.958  10.667  0.00  0.00    +0.035 C 
ATOM     20  C   UNL     1       2.265  -4.723   9.905  0.00  0.00    +0.185 C 
BRANCH  20  21
ATOM     21  C   UNL     1       1.024  -3.874   9.808  0.00  0.00    +0.328 C 
ATOM     22  O   UNL     1       0.606  -3.536   8.725  0.00  0.00    -0.249 OA
BRANCH  21  23
ATOM     23  O   UNL     1       0.382  -3.493  10.923  0.00  0.00    -0.467 OA
ATOM     24  C   UNL     1      -0.788  -2.689  10.757  0.00  0.00    +0.280 C 
ENDBRANCH  21  23
ENDBRANCH  20  21
ENDBRANCH   5  14
BRANCH   6  25
ATOM     25  O   UNL     1       3.289  -8.294   7.014  0.00  0.00    -0.494 OA
ATOM     26  C   UNL     1       3.967  -9.521   6.736  0.00  0.00    +0.277 C 
ENDBRANCH   6  25
BRANCH   1  27
ATOM     27  C   UNL     1       0.301  -2.655   2.599  0.00  0.00    -0.047 C 
BRANCH  27  33
ATOM     28  C   UNL     1       0.335   1.746   0.129  0.00  0.00    +0.012 C 
ATOM     29  C   UNL     1       0.321   0.217   0.089  0.00  0.00    -0.025 C 
ATOM     30  C   UNL     1       1.474  -0.397  -0.731  0.00  0.00    -0.000 C 
ATOM     31  C   UNL     1       1.184  -1.866  -1.067  0.00  0.00    +0.031 C 
ATOM     32  C   UNL     1       0.796  -2.607   0.190  0.00  0.00    -0.029 C 
ATOM     33  C   UNL     1       0.694  -1.954   1.324  0.00  0.00    -0.086 C 
ATOM     34  C   UNL     1       0.998  -0.444   1.305  0.00  0.00    +0.019 C 
ATOM     35  C   UNL     1       2.323  -0.210   0.538  0.00  0.00    +0.012 C 
ATOM     36  C   UNL     1      -1.056  -0.362  -0.243  0.00  0.00    +0.012 C 
ENDBRANCH  27  33
ENDBRANCH   1  27
TORSDOF 6
