REMARK  Name = ZINC02334263
REMARK  12 active torsions:
REMARK  status: ('A' for Active; 'I' for Inactive)
REMARK    1  A    between atoms: C_1  and  C_2
REMARK    2  A    between atoms: C_2  and  C_3
REMARK    3  A    between atoms: C_6  and  C_9
REMARK    4  A    between atoms: C_15  and  C_31
REMARK    5  A    between atoms: C_16  and  C_23
REMARK    6  A    between atoms: C_18  and  C_21
REMARK    7  A    between atoms: C_19  and  N_20
REMARK    8  A    between atoms: C_26  and  C_29
REMARK    9  A    between atoms: C_29  and  C_30
REMARK   10  A    between atoms: C_31  and  O_33
REMARK   11  A    between atoms: O_33  and  C_34
REMARK   12  A    between atoms: C_34  and  C_35
REMARK                            x       y       z     vdW  Elec       q    Type
REMARK                         _______ _______ _______ _____ _____    ______ ____
ROOT
ATOM      1  C   UNL     1       9.784   2.190   1.290  0.00  0.00    +0.028 C 
ATOM      2  C   UNL     1       8.475   1.850   1.172  0.00  0.00    +0.079 A 
ATOM      3  C   UNL     1       7.546   2.089   0.059  0.00  0.00    +0.271 A 
ATOM      4  O   UNL     1       7.914   2.668  -0.946  0.00  0.00    -0.266 OA
ATOM      5  N   UNL     1       6.277   1.652   0.179  0.00  0.00    -0.257 N 
ATOM      6  C   UNL     1       5.930   1.003   1.347  0.00  0.00    +0.100 A 
ATOM      7  C   UNL     1       4.683   0.509   1.608  0.00  0.00    +0.080 C 
ATOM      8  C   UNL     1       3.607   0.673   0.553  0.00  0.00    +0.102 C 
ATOM      9  C   UNL     1       4.034   1.390  -0.711  0.00  0.00    +0.079 C 
ATOM     10  C   UNL     1       5.309   1.824  -0.817  0.00  0.00    +0.118 C 
ATOM     11  S   UNL     1       7.417   0.994   2.327  0.00  0.00    -0.065 S 
ENDROOT
BRANCH   1  15
ATOM     12  C   UNL     1      11.877   3.755  -2.049  0.00  0.00    -0.048 A 
ATOM     13  C   UNL     1      12.087   4.293  -0.791  0.00  0.00    +0.004 A 
ATOM     14  C   UNL     1      11.410   3.790   0.300  0.00  0.00    +0.008 A 
ATOM     15  C   UNL     1      10.509   2.733   0.132  0.00  0.00    -0.024 A 
ATOM     16  C   UNL     1      10.307   2.191  -1.142  0.00  0.00    +0.008 A 
ATOM     17  C   UNL     1      10.988   2.709  -2.223  0.00  0.00    +0.004 A 
BRANCH  12  19
ATOM     18  C   UNL     1      13.940   3.555  -3.410  0.00  0.00    +0.009 C 
ATOM     19  C   UNL     1      12.622   4.312  -3.235  0.00  0.00    +0.032 C 
ENDBRANCH  12  19
ENDBRANCH   1  15
BRANCH   8  20
ATOM     20  C   UNL     1       2.460   1.436   1.164  0.00  0.00    -0.035 A 
ATOM     21  C   UNL     1       1.219   0.840   1.284  0.00  0.00    +0.005 A 
ATOM     22  C   UNL     1       0.167   1.540   1.845  0.00  0.00    +0.004 A 
ATOM     23  C   UNL     1       0.357   2.837   2.286  0.00  0.00    -0.048 A 
ATOM     24  C   UNL     1       1.599   3.433   2.166  0.00  0.00    +0.004 A 
ATOM     25  C   UNL     1       2.650   2.733   1.604  0.00  0.00    +0.005 A 
BRANCH  23  26
ATOM     26  C   UNL     1      -0.791   3.603   2.891  0.00  0.00    +0.032 C 
ATOM     27  C   UNL     1      -0.822   3.365   4.402  0.00  0.00    +0.009 C 
ENDBRANCH  23  26
ENDBRANCH   8  20
BRANCH  10  28
ATOM     28  N   UNL     1       5.677   2.472  -1.971  0.00  0.00    -0.343 N 
ATOM     29  H   UNL     1       4.942   2.625  -2.775  0.00  0.00    +0.144 HD
ATOM     30  H   UNL     1       6.707   2.839  -2.091  0.00  0.00    +0.144 HD
ENDBRANCH  10  28
BRANCH   9  31
ATOM     31  C   UNL     1       3.102   1.606  -1.776  0.00  0.00    +0.099 C 
ATOM     32  N   UNL     1       2.362   1.776  -2.621  0.00  0.00    -0.191 NA
ENDBRANCH   9  31
BRANCH   7  33
ATOM     33  C   UNL     1       4.410  -0.136   2.822  0.00  0.00    +0.339 C 
ATOM     34  O   UNL     1       5.287  -0.258   3.658  0.00  0.00    -0.245 OA
BRANCH  33  35
ATOM     35  O   UNL     1       3.172  -0.621   3.065  0.00  0.00    -0.462 OA
BRANCH  35  36
ATOM     36  C   UNL     1       2.964  -1.266   4.323  0.00  0.00    +0.229 C 
ATOM     37  C   UNL     1       1.514  -1.746   4.416  0.00  0.00    +0.048 C 
ENDBRANCH  35  36
ENDBRANCH  33  35
ENDBRANCH   7  33
TORSDOF 9
