REMARK  Name = ZINC23564928
REMARK  9 active torsions:
REMARK  status: ('A' for Active; 'I' for Inactive)
REMARK    1  A    between atoms: C_1  and  C_2
REMARK    2  A    between atoms: C_2  and  N_3
REMARK    3  A    between atoms: C_6  and  C_9
REMARK    4  A    between atoms: C_9  and  S_10
REMARK    5  A    between atoms: S_10  and  C_11
REMARK    6  A    between atoms: N_15  and  C_16
REMARK    7  A    between atoms: C_19  and  C_23
REMARK    8  A    between atoms: C_21  and  C_22
REMARK    9  A    between atoms: C_24  and  C_26
REMARK                            x       y       z     vdW  Elec       q    Type
REMARK                         _______ _______ _______ _____ _____    ______ ____
ROOT
ATOM      1  S   UNL     1       1.860   3.117  -1.097  0.00  0.00    -0.078 S 
ENDROOT
BRANCH   1   2
ATOM      2  C   UNL     1       1.364   1.549  -1.730  0.00  0.00    +0.214 A 
ATOM      3  N   UNL     1       0.196   1.252  -2.258  0.00  0.00    -0.101 NA
ATOM      4  N   UNL     1       0.165   0.021  -2.619  0.00  0.00    -0.022 NA
ATOM      5  N   UNL     1       1.289  -0.553  -2.356  0.00  0.00    -0.038 NA
ATOM      6  N   UNL     1       2.115   0.419  -1.766  0.00  0.00    -0.187 N 
BRANCH   6   7
ATOM      7  C   UNL     1       3.432   0.257  -1.313  0.00  0.00    +0.073 A 
ATOM      8  C   UNL     1       4.410   1.173  -1.677  0.00  0.00    +0.028 A 
ATOM      9  C   UNL     1       5.706   1.013  -1.226  0.00  0.00    +0.005 A 
ATOM     10  C   UNL     1       6.031  -0.063  -0.420  0.00  0.00    -0.050 A 
ATOM     11  C   UNL     1       5.060  -0.979  -0.060  0.00  0.00    +0.008 A 
ATOM     12  C   UNL     1       3.761  -0.822  -0.504  0.00  0.00    -0.025 A 
ATOM     13  C   UNL     1       2.704  -1.821  -0.112  0.00  0.00    +0.046 C 
ATOM     14  C   UNL     1       7.447  -0.237   0.066  0.00  0.00    +0.044 C 
ENDBRANCH   6   7
ENDBRANCH   1   2
BRANCH   1  15
ATOM     15  C   UNL     1       0.351   4.069  -1.399  0.00  0.00    +0.133 C 
BRANCH  15  19
ATOM     16  N   UNL     1       1.682   8.744  -2.038  0.00  0.00    -0.251 N 
ATOM     17  C   UNL     1       1.197   7.652  -1.327  0.00  0.00    +0.167 A 
ATOM     18  N   UNL     1       1.022   6.410  -1.734  0.00  0.00    -0.229 NA
ATOM     19  C   UNL     1       0.547   5.486  -0.923  0.00  0.00    +0.061 A 
ATOM     20  C   UNL     1       0.233   5.840   0.347  0.00  0.00    +0.072 A 
ATOM     21  S   UNL     1       0.666   7.574   0.324  0.00  0.00    -0.060 S 
ATOM     22  C   UNL     1       2.047   8.601  -3.327  0.00  0.00    +0.218 C 
ATOM     23  O   UNL     1       2.039   7.503  -3.841  0.00  0.00    -0.276 OA
ATOM     24  C   UNL     1       2.464   9.806  -4.130  0.00  0.00    +0.110 C 
BRANCH  16  26
ATOM     25  C   UNL     1       3.226  10.244  -0.877  0.00  0.00    +0.025 C 
ATOM     26  C   UNL     1       1.796  10.051  -1.385  0.00  0.00    +0.112 C 
ENDBRANCH  16  26
ENDBRANCH  15  19
ENDBRANCH   1  15
TORSDOF 5
