REMARK  Name = ZINC01123137
REMARK  8 active torsions:
REMARK  status: ('A' for Active; 'I' for Inactive)
REMARK    1  A    between atoms: C_1  and  C_2
REMARK    2  A    between atoms: C_2  and  O_3
REMARK    3  A    between atoms: O_3  and  C_4
REMARK    4  A    between atoms: C_7  and  C_12
REMARK    5  A    between atoms: C_9  and  O_10
REMARK    6  A    between atoms: O_10  and  C_11
REMARK    7  A    between atoms: C_17  and  C_27
REMARK    8  A    between atoms: C_32  and  N_33
REMARK                            x       y       z     vdW  Elec       q    Type
REMARK                         _______ _______ _______ _____ _____    ______ ____
ROOT
ATOM      1  C   UNL     1      -0.099   1.036   0.046  0.00  0.00    +0.032 C 
ATOM      2  C   UNL     1      -0.739   1.557   1.332  0.00  0.00    +0.059 C 
ATOM      3  C   UNL     1       0.057   1.086   2.537  0.00  0.00    +0.017 C 
ATOM      4  C   UNL     1       1.387   0.909   2.451  0.00  0.00    +0.036 C 
ATOM      5  C   UNL     1       2.295   0.459   3.570  0.00  0.00    +0.138 C 
ATOM      6  N   UNL     1       1.682   0.462   4.881  0.00  0.00    -0.331 N 
ATOM      7  C   UNL     1       0.621  -0.391   5.178  0.00  0.00    +0.049 A 
ATOM      8  C   UNL     1       0.742  -1.397   6.123  0.00  0.00    +0.025 A 
ATOM      9  C   UNL     1      -0.325  -2.250   6.350  0.00  0.00    +0.002 A 
ATOM     10  C   UNL     1      -1.502  -2.103   5.639  0.00  0.00    +0.002 A 
ATOM     11  C   UNL     1      -1.633  -1.087   4.707  0.00  0.00    +0.025 A 
ATOM     12  C   UNL     1      -0.575  -0.221   4.496  0.00  0.00    +0.052 A 
ATOM     13  N   UNL     1      -0.677   0.887   3.663  0.00  0.00    -0.316 N 
ATOM     14  C   UNL     1       2.058   1.145   1.228  0.00  0.00    +0.163 C 
ATOM     15  O   UNL     1       3.264   0.995   1.182  0.00  0.00    -0.292 OA
ATOM     16  C   UNL     1       1.335   1.575  -0.013  0.00  0.00    +0.088 C 
ATOM     17  H   UNL     1       2.014   1.067   5.563  0.00  0.00    +0.147 HD
ATOM     18  H   UNL     1      -1.321   1.571   3.904  0.00  0.00    +0.152 HD
ENDROOT
BRANCH   1  22
ATOM     19  C   UNL     1      -2.308   2.424  -3.341  0.00  0.00    +0.162 A 
ATOM     20  C   UNL     1      -1.744   3.332  -2.460  0.00  0.00    +0.050 A 
ATOM     21  C   UNL     1      -1.030   2.880  -1.365  0.00  0.00    +0.008 A 
ATOM     22  C   UNL     1      -0.878   1.523  -1.148  0.00  0.00    -0.040 A 
ATOM     23  C   UNL     1      -1.434   0.612  -2.027  0.00  0.00    +0.053 A 
ATOM     24  C   UNL     1      -2.155   1.058  -3.123  0.00  0.00    +0.162 A 
BRANCH  24  25
ATOM     25  O   UNL     1      -2.707   0.164  -3.985  0.00  0.00    -0.491 OA
ATOM     26  C   UNL     1      -2.509  -1.222  -3.698  0.00  0.00    +0.277 C 
ENDBRANCH  24  25
BRANCH  19  27
ATOM     27  O   UNL     1      -3.010   2.867  -4.419  0.00  0.00    -0.489 OA
BRANCH  27  29
ATOM     28  C   UNL     1      -3.944   4.587  -5.837  0.00  0.00    +0.048 C 
ATOM     29  C   UNL     1      -3.126   4.282  -4.580  0.00  0.00    +0.226 C 
ENDBRANCH  27  29
ENDBRANCH  19  27
ENDBRANCH   1  22
BRANCH   5  30
ATOM     30  C   UNL     1       2.768  -0.940   3.268  0.00  0.00    +0.007 A 
ATOM     31  C   UNL     1       2.091  -1.714   2.343  0.00  0.00    +0.008 A 
ATOM     32  C   UNL     1       2.528  -2.994   2.062  0.00  0.00    +0.000 A 
ATOM     33  C   UNL     1       3.635  -3.506   2.713  0.00  0.00    +0.002 A 
ATOM     34  C   UNL     1       4.308  -2.734   3.641  0.00  0.00    +0.033 A 
ATOM     35  C   UNL     1       3.875  -1.450   3.918  0.00  0.00    +0.131 A 
BRANCH  35  36
ATOM     36  N   UNL     1       4.596  -0.624   4.913  0.00  0.00    +0.057 N 
ATOM     37  O   UNL     1       5.628  -1.034   5.412  0.00  0.00    -0.126 OA
ATOM     38  O   UNL     1       4.156   0.466   5.231  0.00  0.00    -0.126 OA
ENDBRANCH  35  36
ENDBRANCH   5  30
TORSDOF 6
