REMARK  Name = ZINC01423872
REMARK  10 active torsions:
REMARK  status: ('A' for Active; 'I' for Inactive)
REMARK    1  A    between atoms: C_1  and  C_2
REMARK    2  A    between atoms: C_5  and  C_25
REMARK    3  A    between atoms: C_7  and  S_8
REMARK    4  A    between atoms: S_8  and  C_9
REMARK    5  A    between atoms: N_13  and  N_14
REMARK    6  A    between atoms: N_14  and  C_15
REMARK    7  A    between atoms: C_15  and  N_17
REMARK    8  A    between atoms: C_25  and  C_26
REMARK    9  A    between atoms: C_25  and  C_27
REMARK   10  A    between atoms: C_25  and  C_28
REMARK                            x       y       z     vdW  Elec       q    Type
REMARK                         _______ _______ _______ _____ _____    ______ ____
ROOT
ATOM      1  C   UNL     1       2.141   5.807  -0.140  0.00  0.00    +0.088 C 
ATOM      2  C   UNL     1       1.477   6.247   1.172  0.00  0.00    +0.075 C 
ATOM      3  C   UNL     1       1.379   7.762   1.163  0.00  0.00    +0.093 C 
ATOM      4  N   UNL     1       0.312   8.371   1.521  0.00  0.00    -0.185 NA
ATOM      5  C   UNL     1       2.621   8.516   0.705  0.00  0.00    +0.298 C 
ATOM      6  O   UNL     1       3.716   8.034   1.513  0.00  0.00    -0.344 OA
ATOM      7  C   UNL     1       4.192   6.811   0.888  0.00  0.00    +0.196 C 
ATOM      8  C   UNL     1       3.363   6.693  -0.409  0.00  0.00    +0.161 C 
ATOM      9  O   UNL     1       2.900   8.046  -0.636  0.00  0.00    -0.339 OA
ENDROOT
BRANCH   4  10
ATOM     10  N   UNL     1       0.264   9.771   1.498  0.00  0.00    -0.218 N 
ATOM     11  H   UNL     1       1.039  10.279   1.211  0.00  0.00    +0.176 HD
BRANCH  10  12
ATOM     12  C   UNL     1      -0.860  10.413   1.874  0.00  0.00    +0.147 C 
ATOM     13  S   UNL     1      -0.918  12.124   1.846  0.00  0.00    -0.017 S 
BRANCH  12  14
ATOM     14  N   UNL     1      -1.937   9.709   2.273  0.00  0.00    -0.339 N 
ATOM     15  H   UNL     1      -1.903   8.739   2.289  0.00  0.00    +0.144 HD
ATOM     16  H   UNL     1      -2.745  10.171   2.544  0.00  0.00    +0.144 HD
ENDBRANCH  12  14
ENDBRANCH  10  12
ENDBRANCH   4  10
BRANCH   1  17
ATOM     17  S   UNL     1       2.666   4.076  -0.001  0.00  0.00    -0.119 S 
BRANCH  17  24
ATOM     18  C   UNL     1       2.471   1.084   0.472  0.00  0.00    +0.045 C 
ATOM     19  C   UNL     1       1.165   1.800   0.239  0.00  0.00    -0.037 A 
ATOM     20  C   UNL     1      -0.022   1.095   0.251  0.00  0.00    +0.005 A 
ATOM     21  C   UNL     1      -1.220   1.750   0.032  0.00  0.00    +0.004 A 
ATOM     22  C   UNL     1      -1.235   3.116  -0.187  0.00  0.00    -0.041 A 
ATOM     23  C   UNL     1      -0.052   3.828  -0.200  0.00  0.00    +0.019 A 
ATOM     24  C   UNL     1       1.154   3.171   0.014  0.00  0.00    +0.011 A 
BRANCH  22  25
ATOM     25  C   UNL     1      -2.543   3.826  -0.419  0.00  0.00    -0.013 C 
ATOM     26  C   UNL     1      -2.526   4.491  -1.797  0.00  0.00    +0.015 C 
ATOM     27  C   UNL     1      -3.691   2.816  -0.354  0.00  0.00    +0.015 C 
ATOM     28  C   UNL     1      -2.742   4.894   0.659  0.00  0.00    +0.015 C 
ENDBRANCH  22  25
ENDBRANCH  17  24
ENDBRANCH   1  17
TORSDOF 6
