REMARK  Name = ZINC18195676
REMARK  3 active torsions:
REMARK  status: ('A' for Active; 'I' for Inactive)
REMARK    1  A    between atoms: C_4  and  N_7
REMARK    2  A    between atoms: C_17  and  C_19
REMARK    3  A    between atoms: C_24  and  O_25
REMARK                            x       y       z     vdW  Elec       q    Type
REMARK                         _______ _______ _______ _____ _____    ______ ____
ROOT
ATOM      1  N   UNL     1       3.621  -0.650  -0.037  0.00  0.00    -0.218 N 
ATOM      2  C   UNL     1       3.782  -1.992  -0.051  0.00  0.00    +0.278 A 
ATOM      3  O   UNL     1       2.889  -2.821  -0.053  0.00  0.00    -0.265 OA
ATOM      4  C   UNL     1       5.151  -2.258  -0.065  0.00  0.00    +0.070 A 
ATOM      5  C   UNL     1       5.818  -1.059  -0.061  0.00  0.00    +0.125 A 
ATOM      6  N   UNL     1       4.895  -0.060  -0.048  0.00  0.00    -0.277 N 
ATOM      7  H   UNL     1       5.084   0.892  -0.043  0.00  0.00    +0.189 HD
ATOM      8  N   UNL     1       7.191  -1.002  -0.079  0.00  0.00    -0.303 N 
ATOM      9  C   UNL     1       7.896  -2.139  -0.400  0.00  0.00    +0.017 C 
ATOM     10  C   UNL     1       7.326  -3.361  -0.423  0.00  0.00    +0.024 C 
ATOM     11  C   UNL     1       5.868  -3.579  -0.079  0.00  0.00    +0.096 C 
ATOM     12  C   UNL     1       8.072  -4.501  -0.778  0.00  0.00    +0.162 C 
ATOM     13  O   UNL     1       7.531  -5.589  -0.774  0.00  0.00    -0.292 OA
ATOM     14  C   UNL     1       9.522  -4.404  -1.160  0.00  0.00    +0.080 C 
ATOM     15  C   UNL     1       9.788  -3.017  -1.753  0.00  0.00    +0.014 C 
ATOM     16  C   UNL     1       9.362  -1.966  -0.727  0.00  0.00    +0.051 C 
ATOM     17  H   UNL     1       7.654  -0.176   0.131  0.00  0.00    +0.153 HD
ENDROOT
BRANCH  11  18
ATOM     18  C   UNL     1       5.764  -4.221   1.281  0.00  0.00    +0.007 A 
ATOM     19  C   UNL     1       6.270  -3.573   2.391  0.00  0.00    +0.023 A 
ATOM     20  C   UNL     1       6.175  -4.162   3.639  0.00  0.00    +0.018 A 
ATOM     21  C   UNL     1       5.574  -5.400   3.779  0.00  0.00    +0.019 A 
ATOM     22  C   UNL     1       5.066  -6.051   2.671  0.00  0.00    +0.047 A 
ATOM     23  C   UNL     1       5.156  -5.460   1.419  0.00  0.00    +0.121 A 
ATOM     24 BR   UNL     1       6.869  -3.273   5.158  0.00  0.00    -0.050 Br
BRANCH  23  25
ATOM     25  O   UNL     1       4.653  -6.096   0.328  0.00  0.00    -0.506 OA
ATOM     26  H   UNL     1       5.286  -6.678  -0.115  0.00  0.00    +0.292 HD
ENDBRANCH  23  25
ENDBRANCH  11  18
BRANCH   1  30
ATOM     27  C   UNL     1      -0.017   1.379   0.010  0.00  0.00    +0.000 A 
ATOM     28  C   UNL     1       1.170   2.089   0.002  0.00  0.00    +0.002 A 
ATOM     29  C   UNL     1       2.377   1.420  -0.013  0.00  0.00    +0.028 A 
ATOM     30  C   UNL     1       2.400   0.031  -0.021  0.00  0.00    +0.067 A 
ATOM     31  C   UNL     1       1.206  -0.680  -0.013  0.00  0.00    +0.028 A 
ATOM     32  C   UNL     1       0.002  -0.004   0.002  0.00  0.00    +0.002 A 
ENDBRANCH   1  30
TORSDOF 3
