REMARK  Name = ZINC08982722
REMARK  5 active torsions:
REMARK  status: ('A' for Active; 'I' for Inactive)
REMARK    1  A    between atoms: C_1  and  N_2
REMARK    2  A    between atoms: N_2  and  C_3
REMARK    3  A    between atoms: C_6  and  C_11
REMARK    4  A    between atoms: C_11  and  C_24
REMARK    5  A    between atoms: C_12  and  C_13
REMARK                            x       y       z     vdW  Elec       q    Type
REMARK                         _______ _______ _______ _____ _____    ______ ____
ROOT
ATOM      1  C   UNL     1       3.555   2.110   0.004  0.00  0.00    +0.096 C 
ATOM      2  C   UNL     1       3.539   3.493  -0.013  0.00  0.00    +0.029 C 
ENDROOT
BRANCH   1   8
ATOM      3  C   UNL     1      -0.091  -2.777   0.031  0.00  0.00    +0.132 C 
ATOM      4  N   UNL     1       1.170  -2.031   0.033  0.00  0.00    -0.306 N 
ATOM      5  C   UNL     1       2.446  -2.750   0.054  0.00  0.00    +0.132 C 
ATOM      6  C   UNL     1       1.155  -0.651   0.016  0.00  0.00    +0.222 A 
ATOM      7  N   UNL     1       2.299   0.025   0.018  0.00  0.00    -0.194 NA
ATOM      8  C   UNL     1       2.285   1.357   0.002  0.00  0.00    +0.177 A 
ATOM      9  N   UNL     1       1.123   2.010  -0.017  0.00  0.00    -0.194 NA
ATOM     10  C   UNL     1      -0.019   1.331  -0.019  0.00  0.00    +0.217 A 
ATOM     11  N   UNL     1      -0.003   0.001  -0.003  0.00  0.00    -0.181 NA
ATOM     12  N   UNL     1      -1.223   2.006  -0.045  0.00  0.00    -0.327 N 
ATOM     13  H   UNL     1      -2.057   1.510  -0.050  0.00  0.00    +0.145 HD
ATOM     14  H   UNL     1      -1.235   2.976  -0.057  0.00  0.00    +0.145 HD
ENDBRANCH   1   8
BRANCH   2  15
ATOM     15  C   UNL     1       4.742   4.210   0.086  0.00  0.00    -0.008 C 
ATOM     16  C   UNL     1       5.749   3.985  -0.806  0.00  0.00    +0.018 C 
ATOM     17  C   UNL     1       6.991   4.753  -0.646  0.00  0.00    +0.018 A 
ATOM     18  C   UNL     1       7.929   4.847  -1.675  0.00  0.00    +0.031 A 
ATOM     19  C   UNL     1       9.083   5.578  -1.478  0.00  0.00    +0.042 A 
ATOM     20  C   UNL     1       9.310   6.215  -0.267  0.00  0.00    +0.023 A 
ATOM     21  C   UNL     1       8.388   6.128   0.760  0.00  0.00    +0.048 A 
ATOM     22  C   UNL     1       7.226   5.399   0.582  0.00  0.00    +0.128 A 
ATOM     23  O   UNL     1       6.303   5.294   1.570  0.00  0.00    -0.487 OA
ATOM     24  C   UNL     1       4.930   5.227   1.180  0.00  0.00    +0.264 C 
ATOM     25 CL   UNL     1      10.255   5.702  -2.752  0.00  0.00    -0.084 Cl
ENDBRANCH   2  15
BRANCH   1  26
ATOM     26  C   UNL     1       4.803   1.409   0.024  0.00  0.00    +0.103 C 
ATOM     27  N   UNL     1       5.793   0.852   0.040  0.00  0.00    -0.191 NA
ENDBRANCH   1  26
TORSDOF 3
