REMARK  Name = ZINC02477372
REMARK  10 active torsions:
REMARK  status: ('A' for Active; 'I' for Inactive)
REMARK    1  A    between atoms: C_1  and  C_2
REMARK    2  A    between atoms: C_2  and  N_3
REMARK    3  A    between atoms: N_3  and  C_4
REMARK    4  A    between atoms: C_4  and  C_5
REMARK    5  A    between atoms: C_6  and  C_8
REMARK    6  A    between atoms: C_8  and  N_9
REMARK    7  A    between atoms: C_16  and  C_31
REMARK    8  A    between atoms: C_17  and  C_19
REMARK    9  A    between atoms: C_23  and  C_30
REMARK   10  A    between atoms: C_26  and  C_29
REMARK                            x       y       z     vdW  Elec       q    Type
REMARK                         _______ _______ _______ _____ _____    ______ ____
ROOT
ATOM      1  N   UNL     1      -4.614   1.428  -7.248  0.00  0.00    -0.290 N 
ATOM      2  C   UNL     1      -4.633   2.763  -7.015  0.00  0.00    +0.203 A 
ATOM      3  N   UNL     1      -4.022   3.293  -5.990  0.00  0.00    -0.230 NA
ATOM      4  C   UNL     1      -3.349   2.551  -5.121  0.00  0.00    +0.116 A 
ATOM      5  C   UNL     1      -3.255   1.147  -5.255  0.00  0.00    +0.076 A 
ATOM      6  C   UNL     1      -3.960   0.582  -6.428  0.00  0.00    +0.263 A 
ATOM      7  O   UNL     1      -3.949  -0.617  -6.646  0.00  0.00    -0.267 OA
ATOM      8  C   UNL     1      -2.511   0.490  -4.272  0.00  0.00    -0.017 A 
ATOM      9  C   UNL     1      -1.940   1.206  -3.261  0.00  0.00    +0.080 A 
ATOM     10  S   UNL     1      -2.414   2.882  -3.648  0.00  0.00    -0.064 S 
ATOM     11  C   UNL     1      -2.342  -1.007  -4.326  0.00  0.00    +0.046 C 
ENDROOT
BRANCH   9  12
ATOM     12  C   UNL     1      -1.132   0.720  -2.138  0.00  0.00    +0.254 C 
ATOM     13  O   UNL     1      -0.238  -0.083  -2.334  0.00  0.00    -0.269 OA
ATOM     14  N   UNL     1      -1.378   1.162  -0.889  0.00  0.00    -0.297 N 
ATOM     15  C   UNL     1      -0.640   0.616   0.258  0.00  0.00    +0.111 C 
ATOM     16  C   UNL     1      -1.644   0.126   1.306  0.00  0.00    +0.004 C 
ATOM     17  C   UNL     1      -2.605   1.265   1.657  0.00  0.00    +0.009 C 
ATOM     18  C   UNL     1      -3.377   1.692   0.407  0.00  0.00    +0.004 C 
ATOM     19  C   UNL     1      -2.390   2.200  -0.649  0.00  0.00    +0.111 C 
ATOM     20  C   UNL     1      -4.358   2.809   0.769  0.00  0.00    +0.009 C 
ATOM     21  C   UNL     1      -2.439  -1.053   0.740  0.00  0.00    +0.009 C 
ENDBRANCH   9  12
BRANCH   1  22
ATOM     22  C   UNL     1      -5.319   0.894  -8.416  0.00  0.00    +0.222 C 
BRANCH  22  24
ATOM     23  N   UNL     1      -4.817   0.407 -10.789  0.00  0.00    -0.301 N 
ATOM     24  C   UNL     1      -4.383   0.864  -9.597  0.00  0.00    +0.235 C 
ATOM     25  O   UNL     1      -3.240   1.251  -9.475  0.00  0.00    -0.274 OA
BRANCH  23  27
ATOM     26  C   UNL     1      -3.178  -0.966 -11.976  0.00  0.00    +0.024 C 
ATOM     27  C   UNL     1      -3.908   0.378 -11.937  0.00  0.00    +0.104 C 
ENDBRANCH  23  27
BRANCH  23  28
ATOM     28  C   UNL     1      -6.198  -0.060 -10.936  0.00  0.00    +0.104 C 
ATOM     29  C   UNL     1      -7.091   1.112 -11.348  0.00  0.00    +0.024 C 
ENDBRANCH  23  28
ENDBRANCH  22  24
ENDBRANCH   1  22
TORSDOF 5
