REMARK  Name = ZINC06788525
REMARK  9 active torsions:
REMARK  status: ('A' for Active; 'I' for Inactive)
REMARK    1  A    between atoms: C_1  and  C_2
REMARK    2  A    between atoms: C_5  and  C_8
REMARK    3  A    between atoms: C_8  and  C_10
REMARK    4  A    between atoms: C_8  and  O_31
REMARK    5  A    between atoms: N_16  and  C_19
REMARK    6  A    between atoms: C_19  and  C_21
REMARK    7  A    between atoms: C_21  and  C_23
REMARK    8  A    between atoms: C_21  and  O_30
REMARK    9  A    between atoms: C_26  and  C_29
REMARK                            x       y       z     vdW  Elec       q    Type
REMARK                         _______ _______ _______ _____ _____    ______ ____
ROOT
ATOM      1  C   UNL     1      -3.856   1.356  -4.947  0.00  0.00    +0.013 A 
ATOM      2  C   UNL     1      -3.867   1.651  -6.292  0.00  0.00    +0.009 A 
ATOM      3  C   UNL     1      -4.218   2.921  -6.731  0.00  0.00    +0.003 A 
ATOM      4  C   UNL     1      -4.558   3.897  -5.841  0.00  0.00    +0.032 A 
ATOM      5  C   UNL     1      -4.555   3.623  -4.467  0.00  0.00    +0.113 A 
ATOM      6  C   UNL     1      -4.194   2.338  -4.023  0.00  0.00    +0.100 A 
ATOM      7  N   UNL     1      -4.287   2.369  -2.650  0.00  0.00    -0.214 N 
ATOM      8  N   UNL     1      -4.692   3.667  -2.306  0.00  0.00    -0.060 NA
ATOM      9  N   UNL     1      -4.839   4.368  -3.374  0.00  0.00    -0.129 NA
ENDROOT
BRANCH   7  10
ATOM     10  C   UNL     1      -4.026   1.317  -1.772  0.00  0.00    +0.071 C 
ATOM     11  C   UNL     1      -2.806   1.136  -1.305  0.00  0.00    +0.036 C 
BRANCH  10  12
ATOM     12  C   UNL     1      -5.137   0.387  -1.358  0.00  0.00    +0.192 C 
BRANCH  12  13
ATOM     13  C   UNL     1      -6.162   1.153  -0.561  0.00  0.00    -0.013 A 
ATOM     14  C   UNL     1      -6.099   1.161   0.819  0.00  0.00    +0.007 A 
ATOM     15  C   UNL     1      -7.036   1.868   1.550  0.00  0.00    +0.004 A 
ATOM     16  C   UNL     1      -8.039   2.563   0.899  0.00  0.00    -0.050 A 
ATOM     17  C   UNL     1      -8.104   2.551  -0.481  0.00  0.00    +0.004 A 
ATOM     18  C   UNL     1      -7.167   1.844  -1.212  0.00  0.00    +0.007 A 
ATOM     19  C   UNL     1      -9.060   3.333   1.696  0.00  0.00    +0.044 C 
ENDBRANCH  12  13
BRANCH  12  20
ATOM     20  O   UNL     1      -5.755  -0.166  -2.522  0.00  0.00    -0.381 OA
ATOM     21  H   UNL     1      -6.141   0.495  -3.114  0.00  0.00    +0.211 HD
ENDBRANCH  12  20
ENDBRANCH  10  12
ENDBRANCH   7  10
BRANCH   1  22
ATOM     22  C   UNL     1      -3.474  -0.024  -4.477  0.00  0.00    +0.177 C 
BRANCH  22  27
ATOM     23  C   UNL     1       2.270  -0.616  -4.709  0.00  0.00    +0.044 C 
ATOM     24  C   UNL     1       0.772  -0.462  -4.648  0.00  0.00    -0.050 A 
ATOM     25  C   UNL     1       0.129  -0.430  -3.425  0.00  0.00    +0.004 A 
ATOM     26  C   UNL     1      -1.245  -0.288  -3.370  0.00  0.00    +0.007 A 
ATOM     27  C   UNL     1      -1.976  -0.178  -4.538  0.00  0.00    -0.015 A 
ATOM     28  C   UNL     1      -1.333  -0.216  -5.761  0.00  0.00    +0.007 A 
ATOM     29  C   UNL     1       0.041  -0.352  -5.816  0.00  0.00    +0.004 A 
ENDBRANCH  22  27
BRANCH  22  30
ATOM     30  O   UNL     1      -4.087  -1.001  -5.321  0.00  0.00    -0.382 OA
ATOM     31  H   UNL     1      -3.831  -0.935  -6.251  0.00  0.00    +0.211 HD
ENDBRANCH  22  30
ENDBRANCH   1  22
TORSDOF 7
