REMARK  Name = ZINC32913982
REMARK  4 active torsions:
REMARK  status: ('A' for Active; 'I' for Inactive)
REMARK    1  A    between atoms: C_1  and  C_2
REMARK    2  A    between atoms: C_12  and  C_16
REMARK    3  A    between atoms: N_18  and  N_19
REMARK    4  A    between atoms: C_20  and  C_22
REMARK                            x       y       z     vdW  Elec       q    Type
REMARK                         _______ _______ _______ _____ _____    ______ ____
ROOT
ATOM      1  C   UNL     1       3.063   9.306  -0.157  0.00  0.00    +0.008 C 
ATOM      2  C   UNL     1       2.220   8.051  -0.395  0.00  0.00    -0.009 C 
ATOM      3  C   UNL     1       0.947   8.121   0.454  0.00  0.00    +0.009 C 
ATOM      4  C   UNL     1      -0.009   6.998   0.037  0.00  0.00    +0.054 C 
ATOM      5  C   UNL     1       0.757   5.695   0.024  0.00  0.00    +0.020 A 
ATOM      6  C   UNL     1       2.101   5.620   0.010  0.00  0.00    -0.019 A 
ATOM      7  C   UNL     1       2.457   4.204   0.001  0.00  0.00    +0.004 A 
ATOM      8  C   UNL     1       3.664   3.503  -0.013  0.00  0.00    +0.010 A 
ATOM      9  C   UNL     1       3.661   2.124  -0.021  0.00  0.00    +0.001 A 
ATOM     10  C   UNL     1       2.469   1.422  -0.008  0.00  0.00    +0.015 A 
ATOM     11  C   UNL     1       1.251   2.098   0.001  0.00  0.00    +0.062 A 
ATOM     12  C   UNL     1       1.236   3.503   0.009  0.00  0.00    +0.059 A 
ATOM     13  N   UNL     1       0.229   4.435   0.023  0.00  0.00    -0.357 N 
ATOM     14  H   UNL     1      -0.862   4.295   0.033  0.00  0.00    +0.166 HD
ATOM     15  C   UNL     1       3.027   6.809   0.004  0.00  0.00    +0.040 C 
ENDROOT
BRANCH  11  16
ATOM     16  C   UNL     1      -0.016   1.344   0.009  0.00  0.00    +0.262 C 
ATOM     17  O   UNL     1      -1.077   1.937   0.018  0.00  0.00    -0.269 OA
ATOM     18  N   UNL     1       0.002  -0.004   0.002  0.00  0.00    -0.230 N 
ATOM     19  H   UNL     1       0.962  -0.541  -0.010  0.00  0.00    +0.173 HD
BRANCH  18  20
ATOM     20  N   UNL     1      -1.202  -0.721   0.010  0.00  0.00    -0.230 N 
ATOM     21  C   UNL     1      -1.183  -2.069   0.002  0.00  0.00    +0.261 C 
ATOM     22  O   UNL     1      -0.122  -2.662  -0.011  0.00  0.00    -0.269 OA
ATOM     23  H   UNL     1      -2.162  -0.184   0.022  0.00  0.00    +0.173 HD
BRANCH  21  24
ATOM     24  C   UNL     1      -2.453  -2.825   0.010  0.00  0.00    +0.052 A 
ATOM     25  C   UNL     1      -3.673  -2.147   0.031  0.00  0.00    +0.014 A 
ATOM     26  C   UNL     1      -4.854  -2.858   0.034  0.00  0.00    +0.001 A 
ATOM     27  C   UNL     1      -4.833  -4.242   0.026  0.00  0.00    +0.001 A 
ATOM     28  C   UNL     1      -3.628  -4.921   0.010  0.00  0.00    +0.016 A 
ATOM     29  C   UNL     1      -2.438  -4.221   0.003  0.00  0.00    +0.030 A 
ATOM     30 BR   UNL     1      -0.791  -5.152  -0.017  0.00  0.00    -0.050 Br
ENDBRANCH  21  24
ENDBRANCH  18  20
ENDBRANCH  11  16
TORSDOF 3
