REMARK  Name = ZINC57492493
REMARK  8 active torsions:
REMARK  status: ('A' for Active; 'I' for Inactive)
REMARK    1  A    between atoms: C_1  and  C_2
REMARK    2  A    between atoms: C_5  and  C_31
REMARK    3  A    between atoms: C_6  and  N_8
REMARK    4  A    between atoms: N_16  and  C_19
REMARK    5  A    between atoms: C_19  and  C_20
REMARK    6  A    between atoms: N_22  and  C_23
REMARK    7  A    between atoms: C_23  and  C_24
REMARK    8  A    between atoms: C_24  and  C_25
REMARK                            x       y       z     vdW  Elec       q    Type
REMARK                         _______ _______ _______ _____ _____    ______ ____
ROOT
ATOM      1  N   UNL     1       0.051  -2.798   2.394  0.00  0.00    -0.228 N 
ATOM      2  C   UNL     1       1.230  -3.119   2.973  0.00  0.00    +0.275 A 
ATOM      3  O   UNL     1       2.283  -2.796   2.453  0.00  0.00    -0.266 OA
ATOM      4  C   UNL     1       1.222  -3.827   4.179  0.00  0.00    +0.101 A 
ATOM      5  C   UNL     1       0.025  -4.207   4.793  0.00  0.00    +0.066 A 
ATOM      6  C   UNL     1       0.203  -4.904   5.984  0.00  0.00    +0.034 A 
ATOM      7  C   UNL     1       1.453  -5.149   6.435  0.00  0.00    +0.048 A 
ATOM      8  S   UNL     1       2.459  -4.455   5.281  0.00  0.00    -0.090 S 
ATOM      9  N   UNL     1      -1.155  -3.837   4.131  0.00  0.00    -0.284 N 
ATOM     10  C   UNL     1      -1.107  -3.153   2.978  0.00  0.00    +0.337 A 
ATOM     11  O   UNL     1      -2.152  -2.846   2.436  0.00  0.00    -0.246 OA
ENDROOT
BRANCH   1  17
ATOM     12  C   UNL     1      -0.018   1.503   0.010  0.00  0.00    +0.044 C 
ATOM     13  C   UNL     1       0.002  -0.004   0.002  0.00  0.00    -0.048 A 
ATOM     14  C   UNL     1       0.006  -0.688  -1.200  0.00  0.00    +0.004 A 
ATOM     15  C   UNL     1       0.024  -2.071  -1.212  0.00  0.00    +0.005 A 
ATOM     16  C   UNL     1       0.040  -2.773  -0.022  0.00  0.00    -0.026 A 
ATOM     17  C   UNL     1       0.036  -2.089   1.186  0.00  0.00    +0.058 A 
ATOM     18  C   UNL     1       0.023  -0.700   1.194  0.00  0.00    +0.030 A 
ATOM     19  C   UNL     1       0.059  -4.279  -0.036  0.00  0.00    +0.046 C 
ENDBRANCH   1  17
BRANCH   9  20
ATOM     20  C   UNL     1      -2.453  -4.197   4.707  0.00  0.00    +0.222 C 
BRANCH  20  21
ATOM     21  C   UNL     1      -2.918  -3.095   5.625  0.00  0.00    +0.233 C 
ATOM     22  O   UNL     1      -2.232  -2.107   5.781  0.00  0.00    -0.274 OA
ATOM     23  N   UNL     1      -4.095  -3.208   6.271  0.00  0.00    -0.314 N 
ATOM     24  H   UNL     1      -4.643  -3.998   6.146  0.00  0.00    +0.149 HD
BRANCH  23  25
ATOM     25  C   UNL     1      -4.547  -2.136   7.162  0.00  0.00    +0.108 C 
BRANCH  25  26
ATOM     26  C   UNL     1      -5.902  -2.512   7.764  0.00  0.00    +0.049 C 
BRANCH  26  27
ATOM     27  C   UNL     1      -6.367  -1.410   8.681  0.00  0.00    -0.072 C 
ATOM     28  C   UNL     1      -7.169  -0.516   8.198  0.00  0.00    -0.028 C 
ATOM     29  C   UNL     1      -7.707   0.643   8.984  0.00  0.00    +0.027 C 
ATOM     30  C   UNL     1      -7.534   0.390  10.483  0.00  0.00    +0.004 C 
ATOM     31  C   UNL     1      -6.085  -0.044  10.738  0.00  0.00    +0.005 C 
ATOM     32  C   UNL     1      -5.876  -1.421  10.099  0.00  0.00    +0.030 C 
ENDBRANCH  26  27
ENDBRANCH  25  26
ENDBRANCH  23  25
ENDBRANCH  20  21
ENDBRANCH   9  20
TORSDOF 6
