REMARK  Name = ZINC33957393
REMARK  4 active torsions:
REMARK  status: ('A' for Active; 'I' for Inactive)
REMARK    1  A    between atoms: C_1  and  C_2
REMARK    2  A    between atoms: C_10  and  O_36
REMARK    3  A    between atoms: N_22  and  N_23
REMARK    4  A    between atoms: C_24  and  C_25
REMARK                            x       y       z     vdW  Elec       q    Type
REMARK                         _______ _______ _______ _____ _____    ______ ____
ROOT
ATOM      1  C   UNL     1      -0.019   1.523   0.010  0.00  0.00    +0.018 C 
ATOM      2  C   UNL     1       0.002  -0.004   0.002  0.00  0.00    +0.011 C 
ATOM      3  C   UNL     1      -1.403  -0.555   0.061  0.00  0.00    +0.013 C 
ATOM      4  C   UNL     1      -2.012  -0.221   1.429  0.00  0.00    +0.009 C 
ATOM      5  C   UNL     1      -1.183  -0.799   2.571  0.00  0.00    +0.023 C 
ATOM      6  C   UNL     1      -1.804  -0.422   3.892  0.00  0.00    -0.041 A 
ATOM      7  C   UNL     1      -3.027  -1.002   4.211  0.00  0.00    +0.008 A 
ATOM      8  C   UNL     1      -3.654  -0.711   5.403  0.00  0.00    +0.046 A 
ATOM      9  C   UNL     1      -3.060   0.170   6.296  0.00  0.00    +0.117 A 
ATOM     10  C   UNL     1      -1.843   0.749   5.978  0.00  0.00    +0.049 A 
ATOM     11  C   UNL     1      -1.215   0.453   4.777  0.00  0.00    -0.040 A 
ATOM     12  C   UNL     1       0.106   1.122   4.494  0.00  0.00    +0.036 C 
ATOM     13  C   UNL     1       0.366   1.114   2.981  0.00  0.00    +0.009 C 
ATOM     14  C   UNL     1       0.274  -0.331   2.509  0.00  0.00    +0.001 C 
ATOM     15  C   UNL     1       0.834  -0.606   1.152  0.00  0.00    +0.005 C 
ATOM     16  C   UNL     1       2.239  -0.096   0.810  0.00  0.00    +0.010 C 
ATOM     17  C   UNL     1       2.277  -0.263  -0.737  0.00  0.00    +0.053 C 
ATOM     18  C   UNL     1       0.830  -0.433  -1.193  0.00  0.00    +0.047 C 
ATOM     19  N   UNL     1       0.396  -0.848  -2.333  0.00  0.00    -0.158 NA
ENDROOT
BRANCH  19  20
ATOM     20  N   UNL     1       1.301  -1.208  -3.339  0.00  0.00    -0.157 NA
ATOM     21  C   UNL     1       0.861  -1.628  -4.495  0.00  0.00    +0.148 C 
BRANCH  21  22
ATOM     22  C   UNL     1       1.810  -2.006  -5.550  0.00  0.00    +0.071 A 
ATOM     23  C   UNL     1       3.190  -1.922  -5.318  0.00  0.00    +0.173 A 
ATOM     24  C   UNL     1       4.077  -2.280  -6.316  0.00  0.00    +0.197 A 
ATOM     25  C   UNL     1       3.605  -2.720  -7.544  0.00  0.00    +0.199 A 
ATOM     26  C   UNL     1       2.241  -2.806  -7.781  0.00  0.00    +0.197 A 
ATOM     27  C   UNL     1       1.341  -2.458  -6.791  0.00  0.00    +0.173 A 
ATOM     28  F   UNL     1       0.013  -2.546  -7.021  0.00  0.00    -0.202 F 
ATOM     29  F   UNL     1       1.791  -3.235  -8.980  0.00  0.00    -0.199 F 
ATOM     30  F   UNL     1       4.479  -3.068  -8.514  0.00  0.00    -0.199 F 
ATOM     31  F   UNL     1       5.408  -2.199  -6.094  0.00  0.00    -0.199 F 
ATOM     32  F   UNL     1       3.651  -1.492  -4.123  0.00  0.00    -0.202 F 
ENDBRANCH  21  22
ENDBRANCH  19  20
BRANCH   9  33
ATOM     33  O   UNL     1      -3.669   0.462   7.475  0.00  0.00    -0.507 OA
ATOM     34  H   UNL     1      -3.423  -0.127   8.201  0.00  0.00    +0.292 HD
ENDBRANCH   9  33
TORSDOF 3
