REMARK  Name = ZINC06660419
REMARK  7 active torsions:
REMARK  status: ('A' for Active; 'I' for Inactive)
REMARK    1  A    between atoms: C_1  and  C_2
REMARK    2  A    between atoms: C_6  and  O_26
REMARK    3  A    between atoms: C_7  and  O_25
REMARK    4  A    between atoms: C_12  and  C_13
REMARK    5  A    between atoms: C_13  and  C_14
REMARK    6  A    between atoms: N_16  and  C_17
REMARK    7  A    between atoms: C_17  and  C_18
REMARK                            x       y       z     vdW  Elec       q    Type
REMARK                         _______ _______ _______ _____ _____    ______ ____
ROOT
ATOM      1  C   UNL     1       1.160   3.605   0.010  0.00  0.00    +0.045 C 
ATOM      2  C   UNL     1       1.152   2.098   0.002  0.00  0.00    -0.029 A 
ATOM      3  C   UNL     1       2.405   1.339  -0.014  0.00  0.00    +0.025 A 
ATOM      4  C   UNL     1       3.643   1.993  -0.022  0.00  0.00    +0.015 A 
ATOM      5  C   UNL     1       4.797   1.263  -0.037  0.00  0.00    +0.050 A 
ATOM      6  C   UNL     1       4.753  -0.128  -0.044  0.00  0.00    +0.162 A 
ATOM      7  C   UNL     1       3.534  -0.795  -0.036  0.00  0.00    +0.202 A 
ATOM      8  C   UNL     1       2.350  -0.066  -0.020  0.00  0.00    +0.184 A 
ATOM      9  O   UNL     1       1.154  -0.693  -0.012  0.00  0.00    -0.418 OA
ATOM     10  C   UNL     1       0.002  -0.004   0.002  0.00  0.00    +0.341 A 
ATOM     11  O   UNL     1      -1.053  -0.612   0.009  0.00  0.00    -0.245 OA
ATOM     12  C   UNL     1      -0.017   1.406   0.010  0.00  0.00    +0.049 A 
ENDROOT
BRANCH   7  13
ATOM     13  O   UNL     1       3.500  -2.155  -0.042  0.00  0.00    -0.501 OA
ATOM     14  H   UNL     1       3.481  -2.544  -0.927  0.00  0.00    +0.292 HD
ENDBRANCH   7  13
BRANCH   6  15
ATOM     15  O   UNL     1       5.910  -0.839  -0.059  0.00  0.00    -0.503 OA
ATOM     16  H   UNL     1       6.237  -1.041  -0.946  0.00  0.00    +0.292 HD
ENDBRANCH   6  15
BRANCH  12  17
ATOM     17  C   UNL     1      -1.331   2.144   0.020  0.00  0.00    +0.138 C 
BRANCH  17  18
ATOM     18  C   UNL     1      -1.762   2.382   1.444  0.00  0.00    +0.218 C 
ATOM     19  O   UNL     1      -1.071   1.991   2.361  0.00  0.00    -0.275 OA
ATOM     20  N   UNL     1      -2.917   3.029   1.700  0.00  0.00    -0.311 N 
ATOM     21  H   UNL     1      -3.470   3.341   0.967  0.00  0.00    +0.149 HD
BRANCH  20  22
ATOM     22  C   UNL     1      -3.336   3.260   3.084  0.00  0.00    +0.139 C 
BRANCH  22  23
ATOM     23  C   UNL     1      -4.650   3.998   3.094  0.00  0.00    -0.030 A 
ATOM     24  C   UNL     1      -4.666   5.380   3.108  0.00  0.00    +0.008 A 
ATOM     25  C   UNL     1      -5.871   6.058   3.112  0.00  0.00    +0.038 A 
ATOM     26  C   UNL     1      -7.062   5.352   3.114  0.00  0.00    +0.123 A 
ATOM     27  C   UNL     1      -7.044   3.967   3.106  0.00  0.00    +0.038 A 
ATOM     28  C   UNL     1      -5.839   3.292   3.096  0.00  0.00    +0.008 A 
ATOM     29  F   UNL     1      -8.240   6.013   3.123  0.00  0.00    -0.205 F 
ENDBRANCH  22  23
ENDBRANCH  20  22
ENDBRANCH  17  18
ENDBRANCH  12  17
TORSDOF 6
