REMARK  Name = ZINC01073612
REMARK  5 active torsions:
REMARK  status: ('A' for Active; 'I' for Inactive)
REMARK    1  A    between atoms: C_4  and  C_7
REMARK    2  A    between atoms: C_12  and  C_22
REMARK    3  A    between atoms: C_14  and  C_18
REMARK    4  A    between atoms: C_15  and  N_17
REMARK    5  A    between atoms: C_26  and  N_28
REMARK                            x       y       z     vdW  Elec       q    Type
REMARK                         _______ _______ _______ _____ _____    ______ ____
ROOT
ATOM      1  C   UNL     1       3.803  -0.692  -0.192  0.00  0.00    +0.034 C 
ATOM      2  C   UNL     1       3.752  -1.744   0.918  0.00  0.00    +0.083 C 
ATOM      3  C   UNL     1       5.089  -2.437   1.022  0.00  0.00    +0.115 C 
ATOM      4  C   UNL     1       5.870  -2.597  -0.064  0.00  0.00    +0.045 C 
ATOM      5  C   UNL     1       7.202  -3.297   0.050  0.00  0.00    +0.095 C 
ATOM      6  C   UNL     1       7.646  -3.338   1.485  0.00  0.00    +0.101 C 
ATOM      7  C   UNL     1       6.784  -3.138   2.469  0.00  0.00    +0.192 C 
ATOM      8  O   UNL     1       5.481  -2.893   2.227  0.00  0.00    -0.446 OA
ATOM      9  C   UNL     1       5.473  -2.117  -1.326  0.00  0.00    +0.164 C 
ATOM     10  O   UNL     1       6.196  -2.294  -2.286  0.00  0.00    -0.292 OA
ATOM     11  C   UNL     1       4.171  -1.385  -1.508  0.00  0.00    +0.088 C 
ENDROOT
BRANCH   1  15
ATOM     12  C   UNL     1      -0.019   1.177  -0.575  0.00  0.00    +0.000 A 
ATOM     13  C   UNL     1       1.094   1.937  -0.269  0.00  0.00    +0.000 A 
ATOM     14  C   UNL     1       2.331   1.332  -0.144  0.00  0.00    +0.004 A 
ATOM     15  C   UNL     1       2.454  -0.033  -0.326  0.00  0.00    -0.043 A 
ATOM     16  C   UNL     1       1.341  -0.793  -0.632  0.00  0.00    +0.004 A 
ATOM     17  C   UNL     1       0.104  -0.188  -0.758  0.00  0.00    +0.000 A 
ENDBRANCH   1  15
BRANCH   5  18
ATOM     18  C   UNL     1       7.072  -4.705  -0.470  0.00  0.00    -0.033 A 
ATOM     19  C   UNL     1       6.177  -5.579   0.118  0.00  0.00    +0.005 A 
ATOM     20  C   UNL     1       6.058  -6.871  -0.358  0.00  0.00    +0.003 A 
ATOM     21  C   UNL     1       6.833  -7.289  -1.423  0.00  0.00    +0.033 A 
ATOM     22  C   UNL     1       7.728  -6.415  -2.012  0.00  0.00    +0.126 A 
ATOM     23  C   UNL     1       7.844  -5.122  -1.538  0.00  0.00    +0.037 A 
BRANCH  22  24
ATOM     24  N   UNL     1       8.559  -6.863  -3.152  0.00  0.00    +0.056 N 
ATOM     25  O   UNL     1       8.455  -7.994  -3.569  0.00  0.00    -0.126 OA
ATOM     26  O   UNL     1       9.341  -6.099  -3.667  0.00  0.00    -0.126 OA
ENDBRANCH  22  24
ENDBRANCH   5  18
BRANCH   6  27
ATOM     27  C   UNL     1       9.092  -3.610   1.807  0.00  0.00    +0.419 C 
ATOM     28  F   UNL     1       9.171  -4.569   2.823  0.00  0.00    -0.166 F 
ATOM     29  F   UNL     1       9.743  -4.087   0.664  0.00  0.00    -0.166 F 
ATOM     30  F   UNL     1       9.706  -2.427   2.234  0.00  0.00    -0.166 F 
ENDBRANCH   6  27
BRANCH   7  31
ATOM     31  N   UNL     1       7.234  -3.183   3.783  0.00  0.00    -0.329 N 
ATOM     32  H   UNL     1       8.175  -3.325   3.969  0.00  0.00    +0.145 HD
ATOM     33  H   UNL     1       6.606  -3.073   4.514  0.00  0.00    +0.145 HD
ENDBRANCH   7  31
TORSDOF 5
