REMARK  Name = ZINC35579042
REMARK  9 active torsions:
REMARK  status: ('A' for Active; 'I' for Inactive)
REMARK    1  A    between atoms: C_1  and  C_2
REMARK    2  A    between atoms: C_2  and  C_3
REMARK    3  A    between atoms: C_3  and  C_4
REMARK    4  A    between atoms: C_8  and  C_18
REMARK    5  A    between atoms: N_10  and  C_11
REMARK    6  A    between atoms: C_19  and  N_21
REMARK    7  A    between atoms: C_28  and  C_30
REMARK    8  A    between atoms: C_30  and  O_31
REMARK    9  A    between atoms: O_31  and  C_32
REMARK                            x       y       z     vdW  Elec       q    Type
REMARK                         _______ _______ _______ _____ _____    ______ ____
ROOT
ATOM      1  C   UNL     1       0.754  -2.048  -1.267  0.00  0.00    +0.134 A 
ATOM      2  N   UNL     1       1.769  -2.658  -0.695  0.00  0.00    -0.212 NA
ATOM      3  C   UNL     1       1.839  -3.988  -0.675  0.00  0.00    +0.169 A 
ATOM      4  C   UNL     1       0.806  -4.732  -1.278  0.00  0.00    +0.082 A 
ATOM      5  C   UNL     1       1.129  -6.097  -1.114  0.00  0.00    +0.073 A 
ATOM      6  N   UNL     1       2.258  -6.180  -0.469  0.00  0.00    -0.169 NA
ATOM      7  N   UNL     1       2.732  -4.895  -0.178  0.00  0.00    -0.214 N 
ATOM      8  C   UNL     1       0.306  -7.261  -1.603  0.00  0.00    +0.068 C 
ATOM      9  C   UNL     1      -0.259  -4.031  -1.875  0.00  0.00    +0.136 A 
ATOM     10  N   UNL     1      -0.240  -2.703  -1.840  0.00  0.00    -0.217 NA
ENDROOT
BRANCH   9  11
ATOM     11  N   UNL     1      -1.300  -4.708  -2.481  0.00  0.00    -0.313 N 
ATOM     12  C   UNL     1      -2.520  -4.957  -1.699  0.00  0.00    +0.108 C 
ATOM     13  C   UNL     1      -3.797  -4.700  -2.503  0.00  0.00    +0.038 C 
ATOM     14  C   UNL     1      -3.647  -3.449  -3.345  0.00  0.00    +0.109 C 
ATOM     15  N   UNL     1      -3.021  -3.829  -4.612  0.00  0.00    -0.298 N 
ATOM     16  C   UNL     1      -1.622  -4.000  -4.799  0.00  0.00    +0.126 C 
ATOM     17  C   UNL     1      -1.137  -5.132  -3.861  0.00  0.00    +0.125 C 
ATOM     18  C   UNL     1      -3.825  -4.030  -5.674  0.00  0.00    +0.241 C 
ATOM     19  O   UNL     1      -5.025  -3.896  -5.559  0.00  0.00    -0.273 OA
BRANCH  18  20
ATOM     20  C   UNL     1      -3.234  -4.423  -7.003  0.00  0.00    +0.255 C 
BRANCH  20  21
ATOM     21  O   UNL     1      -4.282  -4.577  -7.963  0.00  0.00    -0.374 OA
ATOM     22  C   UNL     1      -3.826  -4.951  -9.265  0.00  0.00    +0.194 C 
ENDBRANCH  20  21
ENDBRANCH  18  20
ENDBRANCH   9  11
BRANCH   7  23
ATOM     23  C   UNL     1       3.917  -4.591   0.504  0.00  0.00    +0.068 A 
ATOM     24  C   UNL     1       4.653  -3.467   0.154  0.00  0.00    +0.030 A 
ATOM     25  C   UNL     1       5.821  -3.169   0.828  0.00  0.00    +0.040 A 
ATOM     26  C   UNL     1       6.259  -3.991   1.853  0.00  0.00    +0.124 A 
ATOM     27  C   UNL     1       5.527  -5.113   2.204  0.00  0.00    +0.040 A 
ATOM     28  C   UNL     1       4.355  -5.411   1.536  0.00  0.00    +0.030 A 
ATOM     29  F   UNL     1       7.402  -3.698   2.511  0.00  0.00    -0.205 F 
ENDBRANCH   7  23
BRANCH   1  30
ATOM     30  C   UNL     1       0.721  -0.542  -1.263  0.00  0.00    +0.076 C 
BRANCH  30  32
ATOM     31  C   UNL     1      -0.035   1.479  -0.002  0.00  0.00    +0.004 C 
ATOM     32  C   UNL     1      -0.001  -0.051  -0.006  0.00  0.00    +0.004 C 
ENDBRANCH  30  32
ENDBRANCH   1  30
TORSDOF 6
