REMARK  Name = ZINC09436092
REMARK  14 active torsions:
REMARK  status: ('A' for Active; 'I' for Inactive)
REMARK    1  A    between atoms: C_1  and  C_2
REMARK    2  A    between atoms: C_2  and  N_69
REMARK    3  A    between atoms: C_3  and  C_4
REMARK    4  A    between atoms: C_3  and  N_69
REMARK    5  A    between atoms: C_5  and  C_6
REMARK    6  A    between atoms: C_5  and  N_69
REMARK    7  A    between atoms: C_6  and  N_7
REMARK    8  A    between atoms: C_8  and  C_31
REMARK    9  A    between atoms: C_11  and  C_12
REMARK   10  A    between atoms: C_11  and  O_26
REMARK   11  A    between atoms: C_15  and  O_18
REMARK   12  A    between atoms: O_18  and  C_19
REMARK   13  A    between atoms: C_19  and  C_20
REMARK   14  A    between atoms: C_34  and  O_37
REMARK                            x       y       z     vdW  Elec       q    Type
REMARK                         _______ _______ _______ _____ _____    ______ ____
ROOT
ATOM      1  N   UNL     1      -3.623   3.929   3.464  0.00  0.00    -0.285 N 
ATOM      2  C   UNL     1      -4.578   5.023   3.263  0.00  0.00    +0.144 C 
ATOM      3  C   UNL     1      -5.404   5.114   4.526  0.00  0.00    +0.071 C 
ATOM      4  C   UNL     1      -6.428   6.004   4.786  0.00  0.00    +0.133 C 
ATOM      5  C   UNL     1      -4.920   4.112   5.381  0.00  0.00    +0.249 C 
ATOM      6  O   UNL     1      -5.334   3.868   6.500  0.00  0.00    -0.282 OA
ATOM      7  C   UNL     1      -3.819   3.396   4.682  0.00  0.00    +0.288 C 
ATOM      8  O   UNL     1      -3.189   2.468   5.145  0.00  0.00    -0.266 OA
ENDROOT
BRANCH   4   9
ATOM      9  C   UNL     1      -7.209   5.884   6.026  0.00  0.00    +0.017 A 
ATOM     10  C   UNL     1      -7.737   4.645   6.407  0.00  0.00    +0.015 A 
ATOM     11  C   UNL     1      -8.463   4.537   7.571  0.00  0.00    +0.046 A 
ATOM     12  C   UNL     1      -8.682   5.659   8.363  0.00  0.00    +0.121 A 
ATOM     13  C   UNL     1      -8.165   6.894   7.986  0.00  0.00    +0.046 A 
ATOM     14  C   UNL     1      -7.433   7.011   6.827  0.00  0.00    +0.015 A 
BRANCH  12  15
ATOM     15  O   UNL     1      -9.404   5.549   9.507  0.00  0.00    -0.487 OA
BRANCH  15  16
ATOM     16  C   UNL     1      -9.907   4.252   9.834  0.00  0.00    +0.264 C 
BRANCH  16  17
ATOM     17  C   UNL     1     -10.677   4.324  11.128  0.00  0.00    -0.010 A 
ATOM     18  C   UNL     1     -10.028   4.117  12.331  0.00  0.00    +0.007 A 
ATOM     19  C   UNL     1     -10.733   4.188  13.517  0.00  0.00    +0.000 A 
ATOM     20  C   UNL     1     -12.090   4.455  13.501  0.00  0.00    +0.000 A 
ATOM     21  C   UNL     1     -12.739   4.657  12.297  0.00  0.00    +0.000 A 
ATOM     22  C   UNL     1     -12.033   4.591  11.111  0.00  0.00    +0.007 A 
ENDBRANCH  16  17
ENDBRANCH  15  16
ENDBRANCH  12  15
ENDBRANCH   4   9
BRANCH   2  23
ATOM     23  C   UNL     1      -3.840   6.317   3.035  0.00  0.00    -0.022 A 
ATOM     24  C   UNL     1      -2.709   6.606   3.776  0.00  0.00    +0.009 A 
ATOM     25  C   UNL     1      -2.028   7.790   3.564  0.00  0.00    +0.046 A 
ATOM     26  C   UNL     1      -2.486   8.693   2.616  0.00  0.00    +0.117 A 
ATOM     27  C   UNL     1      -3.625   8.402   1.878  0.00  0.00    +0.046 A 
ATOM     28  C   UNL     1      -4.299   7.215   2.089  0.00  0.00    +0.009 A 
BRANCH  26  29
ATOM     29  O   UNL     1      -1.821   9.859   2.410  0.00  0.00    -0.507 OA
ATOM     30  H   UNL     1      -2.127  10.590   2.964  0.00  0.00    +0.292 HD
ENDBRANCH  26  29
ENDBRANCH   2  23
BRANCH   4  31
ATOM     31  O   UNL     1      -6.711   6.984   3.901  0.00  0.00    -0.506 OA
ATOM     32  H   UNL     1      -7.474   7.532   4.244  0.00  0.00    +0.292 HD
ENDBRANCH   4  31
BRANCH   1  33
ATOM     33  C   UNL     1      -2.621   3.485   2.492  0.00  0.00    +0.090 C 
BRANCH  33  34
ATOM     34  C   UNL     1      -1.321   4.263   2.708  0.00  0.00    -0.060 C 
BRANCH  34  35
ATOM     35  N   UNL     1      -0.328   3.820   1.708  0.00  0.00    +0.380 N 
ATOM     36  H   UNL     1      -0.749   3.874   0.773  0.00  0.00    -0.082 HD
BRANCH  35  38
ATOM     37  C   UNL     1       0.641   2.286   3.387  0.00  0.00    -0.017 C 
ATOM     38  C   UNL     1       0.068   2.421   1.975  0.00  0.00    -0.082 C 
ENDBRANCH  35  38
BRANCH  35  39
ATOM     39  C   UNL     1       0.860   4.698   1.751  0.00  0.00    -0.082 C 
ATOM     40  C   UNL     1       1.639   4.534   0.444  0.00  0.00    -0.017 C 
ENDBRANCH  35  39
ENDBRANCH  34  35
ENDBRANCH  33  34
ENDBRANCH   1  33
TORSDOF 12
