REMARK  Name = ZINC02477818
REMARK  5 active torsions:
REMARK  status: ('A' for Active; 'I' for Inactive)
REMARK    1  A    between atoms: C_3  and  C_10
REMARK    2  A    between atoms: C_5  and  N_7
REMARK    3  A    between atoms: N_12  and  S_16
REMARK    4  A    between atoms: S_16  and  C_19
REMARK    5  A    between atoms: C_23  and  C_25
REMARK                            x       y       z     vdW  Elec       q    Type
REMARK                         _______ _______ _______ _____ _____    ______ ____
ROOT
ATOM      1  C   UNL     1       3.914   3.376  -2.342  0.00  0.00    +0.167 C 
ATOM      2  N   UNL     1       3.077   4.326  -1.585  0.00  0.00    -0.159 NA
ATOM      3  C   UNL     1       2.633   5.512  -2.313  0.00  0.00    +0.122 C 
ATOM      4  C   UNL     1       2.433   5.191  -3.823  0.00  0.00    +0.088 C 
ATOM      5  S   UNL     1       3.879   4.061  -4.053  0.00  0.00    -0.134 S 
ENDROOT
BRANCH   1   8
ATOM      6  C   UNL     1       7.145   4.479  -0.730  0.00  0.00    +0.003 A 
ATOM      7  C   UNL     1       5.856   4.497  -1.230  0.00  0.00    +0.006 A 
ATOM      8  C   UNL     1       5.320   3.358  -1.801  0.00  0.00    -0.017 A 
ATOM      9  C   UNL     1       6.077   2.204  -1.882  0.00  0.00    +0.038 A 
ATOM     10  C   UNL     1       7.367   2.187  -1.387  0.00  0.00    +0.127 A 
ATOM     11  C   UNL     1       7.901   3.325  -0.810  0.00  0.00    +0.033 A 
BRANCH  10  12
ATOM     12  N   UNL     1       8.177   0.951  -1.473  0.00  0.00    +0.056 N 
ATOM     13  O   UNL     1       7.707  -0.051  -1.980  0.00  0.00    -0.126 OA
ATOM     14  O   UNL     1       9.314   0.936  -1.036  0.00  0.00    -0.126 OA
ENDBRANCH  10  12
ENDBRANCH   1   8
BRANCH   2  15
ATOM     15  S   UNL     1       2.670   4.067  -0.000  0.00  0.00    +0.062 S 
ATOM     16  O   UNL     1       2.386   5.342   0.560  0.00  0.00    -0.153 OA
ATOM     17  O   UNL     1       3.661   3.202   0.537  0.00  0.00    -0.153 OA
BRANCH  15  18
ATOM     18  C   UNL     1       1.156   3.166   0.008  0.00  0.00    +0.106 A 
ATOM     19  C   UNL     1       1.175   1.783   0.000  0.00  0.00    +0.028 A 
ATOM     20  C   UNL     1      -0.013   1.076   0.008  0.00  0.00    +0.002 A 
ATOM     21  C   UNL     1      -1.219   1.751   0.017  0.00  0.00    +0.012 A 
ATOM     22  C   UNL     1      -1.238   3.133   0.029  0.00  0.00    +0.057 A 
ATOM     23  C   UNL     1      -0.050   3.840   0.023  0.00  0.00    +0.041 A 
BRANCH  22  24
ATOM     24  C   UNL     1      -2.553   3.868   0.044  0.00  0.00    +0.417 C 
ATOM     25  F   UNL     1      -2.971   4.104  -1.270  0.00  0.00    -0.166 F 
ATOM     26  F   UNL     1      -3.512   3.095   0.708  0.00  0.00    -0.166 F 
ATOM     27  F   UNL     1      -2.397   5.089   0.710  0.00  0.00    -0.166 F 
ENDBRANCH  22  24
ENDBRANCH  15  18
ENDBRANCH   2  15
TORSDOF 5
