REMARK  Name = ZINC38573941
REMARK  6 active torsions:
REMARK  status: ('A' for Active; 'I' for Inactive)
REMARK    1  A    between atoms: C_1  and  C_2
REMARK    2  A    between atoms: C_2  and  C_3
REMARK    3  A    between atoms: C_2  and  C_4
REMARK    4  A    between atoms: C_8  and  C_18
REMARK    5  A    between atoms: C_14  and  C_16
REMARK    6  A    between atoms: C_14  and  C_17
REMARK                            x       y       z     vdW  Elec       q    Type
REMARK                         _______ _______ _______ _____ _____    ______ ____
ROOT
ATOM      1  C   UNL     1       0.855  -0.419   1.173  0.00  0.00    +0.042 C 
ATOM      2  N   UNL     1       1.411   0.523   1.881  0.00  0.00    -0.183 NA
ATOM      3  C   UNL     1       2.188   0.268   2.942  0.00  0.00    +0.257 C 
ATOM      4  O   UNL     1       2.689   1.169   3.583  0.00  0.00    -0.272 OA
ATOM      5  C   UNL     1       2.422  -1.182   3.317  0.00  0.00    +0.205 C 
ATOM      6  C   UNL     1       1.746  -2.226   2.448  0.00  0.00    -0.034 C 
ATOM      7  C   UNL     1       0.993  -1.803   1.429  0.00  0.00    -0.002 C 
ATOM      8  C   UNL     1       0.272  -2.776   0.531  0.00  0.00    +0.197 C 
ATOM      9  O   UNL     1       0.807  -4.089   0.686  0.00  0.00    -0.369 OA
ATOM     10  C   UNL     1       0.868  -4.515   2.053  0.00  0.00    +0.068 C 
ATOM     11  C   UNL     1       1.946  -3.683   2.759  0.00  0.00    +0.067 C 
ATOM     12  C   UNL     1       1.240  -5.997   2.117  0.00  0.00    +0.041 C 
ATOM     13  C   UNL     1      -0.490  -4.293   2.723  0.00  0.00    +0.041 C 
ENDROOT
BRANCH   1  15
ATOM     14  C   UNL     1      -1.456  -0.379   0.275  0.00  0.00    +0.013 C 
ATOM     15  C   UNL     1       0.002  -0.004   0.002  0.00  0.00    +0.030 C 
ATOM     16  C   UNL     1       0.110   1.509  -0.198  0.00  0.00    +0.013 C 
ENDBRANCH   1  15
BRANCH   5  17
ATOM     17  C   UNL     1       3.872  -1.432   3.285  0.00  0.00    +0.080 C 
ATOM     18  N   UNL     1       4.991  -1.625   3.260  0.00  0.00    -0.195 NA
ENDBRANCH   5  17
TORSDOF 2
