REMARK  Name = ZINC03647438
REMARK  5 active torsions:
REMARK  status: ('A' for Active; 'I' for Inactive)
REMARK    1  A    between atoms: C_1  and  C_2
REMARK    2  A    between atoms: C_14  and  C_17
REMARK    3  A    between atoms: C_19  and  O_25
REMARK    4  A    between atoms: C_20  and  O_24
REMARK    5  A    between atoms: O_25  and  C_26
REMARK                            x       y       z     vdW  Elec       q    Type
REMARK                         _______ _______ _______ _____ _____    ______ ____
ROOT
ATOM      1  C   UNL     1       0.140   1.284   2.497  0.00  0.00    +0.008 C 
ATOM      2  C   UNL     1      -0.726   1.578   1.270  0.00  0.00    -0.009 C 
ATOM      3  C   UNL     1      -0.013   1.086   0.008  0.00  0.00    +0.008 C 
ATOM      4  C   UNL     1      -0.749   1.591  -1.234  0.00  0.00    +0.037 C 
ATOM      5  C   UNL     1      -2.222   1.216  -1.118  0.00  0.00    -0.023 A 
ATOM      6  C   UNL     1      -2.762   0.890   0.077  0.00  0.00    -0.004 A 
ATOM      7  S   UNL     1      -4.465   0.536  -0.271  0.00  0.00    -0.078 S 
ATOM      8  C   UNL     1      -4.457   0.817  -1.960  0.00  0.00    +0.080 A 
ATOM      9  C   UNL     1      -3.134   1.181  -2.251  0.00  0.00    +0.068 A 
ATOM     10  C   UNL     1      -2.805   1.498  -3.659  0.00  0.00    +0.248 C 
ATOM     11  O   UNL     1      -1.714   1.940  -3.972  0.00  0.00    -0.270 OA
ATOM     12  N   UNL     1      -3.764   1.277  -4.582  0.00  0.00    -0.289 N 
ATOM     13  C   UNL     1      -4.993   0.540  -4.306  0.00  0.00    +0.190 C 
ATOM     14  N   UNL     1      -5.438   0.745  -2.915  0.00  0.00    -0.316 N 
ATOM     15  C   UNL     1      -2.065   0.841   1.401  0.00  0.00    +0.046 C 
ATOM     16  H   UNL     1      -3.583   1.686  -5.587  0.00  0.00    +0.151 HD
ATOM     17  H   UNL     1      -6.511   0.831  -2.688  0.00  0.00    +0.149 HD
ENDROOT
BRANCH  13  18
ATOM     18  C   UNL     1      -4.749  -0.930  -4.535  0.00  0.00    -0.005 A 
ATOM     19  C   UNL     1      -3.795  -1.336  -5.449  0.00  0.00    +0.056 A 
ATOM     20  C   UNL     1      -3.569  -2.687  -5.661  0.00  0.00    +0.163 A 
ATOM     21  C   UNL     1      -4.304  -3.632  -4.952  0.00  0.00    +0.173 A 
ATOM     22  C   UNL     1      -5.260  -3.218  -4.038  0.00  0.00    +0.063 A 
ATOM     23  C   UNL     1      -5.476  -1.868  -3.827  0.00  0.00    +0.026 A 
ATOM     24 BR   UNL     1      -6.263  -4.498  -3.074  0.00  0.00    -0.046 Br
BRANCH  21  25
ATOM     25  O   UNL     1      -4.087  -4.958  -5.157  0.00  0.00    -0.503 OA
ATOM     26  H   UNL     1      -4.669  -5.705  -4.597  0.00  0.00    +0.292 HD
ENDBRANCH  21  25
BRANCH  20  27
ATOM     27  O   UNL     1      -2.630  -3.087  -6.559  0.00  0.00    -0.491 OA
ATOM     28  C   UNL     1      -1.913  -2.062  -7.250  0.00  0.00    +0.277 C 
ENDBRANCH  20  27
ENDBRANCH  13  18
TORSDOF 3
