REMARK  Name = ZINC38686253
REMARK  12 active torsions:
REMARK  status: ('A' for Active; 'I' for Inactive)
REMARK    1  A    between atoms: C_1  and  C_2
REMARK    2  A    between atoms: C_5  and  C_8
REMARK    3  A    between atoms: C_8  and  O_9
REMARK    4  A    between atoms: O_9  and  C_10
REMARK    5  A    between atoms: C_13  and  C_16
REMARK    6  A    between atoms: C_21  and  O_30
REMARK    7  A    between atoms: C_25  and  N_29
REMARK    8  A    between atoms: C_26  and  C_27
REMARK    9  A    between atoms: O_30  and  C_31
REMARK   10  A    between atoms: C_31  and  C_33
REMARK   11  A    between atoms: C_36  and  O_39
REMARK   12  A    between atoms: O_39  and  C_40
REMARK                            x       y       z     vdW  Elec       q    Type
REMARK                         _______ _______ _______ _____ _____    ______ ____
ROOT
ATOM      1  C   UNL     1       2.278 -10.290  -0.039  0.00  0.00    +0.098 C 
ATOM      2  C   UNL     1       3.031 -10.678  -1.284  0.00  0.00    +0.008 A 
ATOM      3  C   UNL     1       2.345 -10.818  -2.478  0.00  0.00    +0.012 A 
ATOM      4  C   UNL     1       3.019 -11.175  -3.630  0.00  0.00    +0.047 A 
ATOM      5  C   UNL     1       4.389 -11.393  -3.592  0.00  0.00    +0.135 A 
ATOM      6  C   UNL     1       5.078 -11.254  -2.398  0.00  0.00    +0.093 A 
ATOM      7  C   UNL     1       4.399 -10.895  -1.241  0.00  0.00    +0.138 A 
ATOM      8  O   UNL     1       5.088 -10.763  -0.081  0.00  0.00    -0.441 OA
ATOM      9  C   UNL     1       4.437 -10.804   1.093  0.00  0.00    +0.199 C 
ATOM     10  C   UNL     1       3.106 -10.587   1.179  0.00  0.00    +0.098 C 
ENDROOT
BRANCH   1  14
ATOM     11  C   UNL     1       1.396  -6.110  -0.165  0.00  0.00    +0.121 A 
ATOM     12  C   UNL     1       0.365  -7.036  -0.099  0.00  0.00    +0.046 A 
ATOM     13  C   UNL     1       0.653  -8.387  -0.059  0.00  0.00    +0.008 A 
ATOM     14  C   UNL     1       1.967  -8.816  -0.084  0.00  0.00    -0.034 A 
ATOM     15  C   UNL     1       2.996  -7.895  -0.149  0.00  0.00    +0.008 A 
ATOM     16  C   UNL     1       2.713  -6.543  -0.196  0.00  0.00    +0.046 A 
BRANCH  11  17
ATOM     17  O   UNL     1       1.115  -4.781  -0.205  0.00  0.00    -0.487 OA
BRANCH  17  18
ATOM     18  C   UNL     1      -0.263  -4.407  -0.170  0.00  0.00    +0.264 C 
BRANCH  18  23
ATOM     19  C   UNL     1      -0.709   1.351  -0.371  0.00  0.00    +0.044 C 
ATOM     20  C   UNL     1      -0.592  -0.151  -0.319  0.00  0.00    -0.050 A 
ATOM     21  C   UNL     1      -0.581  -0.885  -1.490  0.00  0.00    +0.004 A 
ATOM     22  C   UNL     1      -0.474  -2.262  -1.442  0.00  0.00    +0.007 A 
ATOM     23  C   UNL     1      -0.379  -2.906  -0.222  0.00  0.00    -0.010 A 
ATOM     24  C   UNL     1      -0.389  -2.172   0.949  0.00  0.00    +0.007 A 
ATOM     25  C   UNL     1      -0.491  -0.794   0.901  0.00  0.00    +0.004 A 
ENDBRANCH  18  23
ENDBRANCH  17  18
ENDBRANCH  11  17
ENDBRANCH   1  14
BRANCH   9  26
ATOM     26  N   UNL     1       5.144 -11.072   2.239  0.00  0.00    -0.328 N 
ATOM     27  H   UNL     1       6.101 -11.228   2.192  0.00  0.00    +0.145 HD
ATOM     28  H   UNL     1       4.689 -11.104   3.094  0.00  0.00    +0.145 HD
ENDBRANCH   9  26
BRANCH  10  29
ATOM     29  C   UNL     1       2.472 -10.643   2.462  0.00  0.00    +0.101 C 
ATOM     30  N   UNL     1       1.969 -10.688   3.479  0.00  0.00    -0.191 NA
ENDBRANCH  10  29
BRANCH   5  31
ATOM     31  O   UNL     1       5.053 -11.744  -4.725  0.00  0.00    -0.422 OA
BRANCH  31  32
ATOM     32  C   UNL     1       5.546 -12.996  -4.808  0.00  0.00    +0.344 C 
ATOM     33  O   UNL     1       5.300 -13.804  -3.934  0.00  0.00    -0.245 OA
BRANCH  32  34
ATOM     34  C   UNL     1       6.381 -13.384  -5.959  0.00  0.00    +0.060 A 
ATOM     35  C   UNL     1       6.670 -12.454  -6.962  0.00  0.00    +0.018 A 
ATOM     36  C   UNL     1       7.451 -12.821  -8.034  0.00  0.00    +0.046 A 
ATOM     37  C   UNL     1       7.953 -14.114  -8.121  0.00  0.00    +0.120 A 
ATOM     38  C   UNL     1       7.669 -15.042  -7.126  0.00  0.00    +0.046 A 
ATOM     39  C   UNL     1       6.893 -14.682  -6.047  0.00  0.00    +0.018 A 
BRANCH  37  40
ATOM     40  O   UNL     1       8.723 -14.472  -9.180  0.00  0.00    -0.495 OA
ATOM     41  C   UNL     1       9.206 -15.816  -9.206  0.00  0.00    +0.277 C 
ENDBRANCH  37  40
ENDBRANCH  32  34
ENDBRANCH  31  32
ENDBRANCH   5  31
TORSDOF 10
