REMARK  Name = ZINC51767982
REMARK  8 active torsions:
REMARK  status: ('A' for Active; 'I' for Inactive)
REMARK    1  A    between atoms: C_1  and  C_2
REMARK    2  A    between atoms: C_2  and  N_3
REMARK    3  A    between atoms: C_6  and  N_9
REMARK    4  A    between atoms: C_10  and  C_12
REMARK    5  A    between atoms: C_12  and  N_13
REMARK    6  A    between atoms: N_16  and  S_19
REMARK    7  A    between atoms: S_19  and  N_22
REMARK    8  A    between atoms: N_25  and  C_28
REMARK                            x       y       z     vdW  Elec       q    Type
REMARK                         _______ _______ _______ _____ _____    ______ ____
ROOT
ATOM      1  N   UNL     1      -6.846  -5.632  -1.615  0.00  0.00    -0.291 NA
ATOM      2  C   UNL     1      -6.113  -6.536  -0.720  0.00  0.00    +0.102 C 
ATOM      3  C   UNL     1      -6.105  -7.947  -1.319  0.00  0.00    +0.126 C 
ATOM      4  N   UNL     1      -7.493  -8.342  -1.602  0.00  0.00    -0.164 NA
ATOM      5  C   UNL     1      -8.334  -7.420  -2.379  0.00  0.00    +0.126 C 
ATOM      6  C   UNL     1      -8.255  -6.030  -1.739  0.00  0.00    +0.102 C 
ENDROOT
BRANCH   4   7
ATOM      7  S   UNL     1      -8.092  -9.787  -1.059  0.00  0.00    +0.100 S 
ATOM      8  O   UNL     1      -9.175 -10.125  -1.916  0.00  0.00    -0.141 OA
ATOM      9  O   UNL     1      -6.975 -10.645  -0.870  0.00  0.00    -0.141 OA
BRANCH   7  10
ATOM     10  N   UNL     1      -8.741  -9.517   0.440  0.00  0.00    -0.164 NA
ATOM     11  C   UNL     1      -7.921  -9.651   1.653  0.00  0.00    +0.126 C 
ATOM     12  C   UNL     1      -8.082  -8.379   2.493  0.00  0.00    +0.101 C 
ATOM     13  N   UNL     1      -9.510  -8.133   2.733  0.00  0.00    -0.303 NA
ATOM     14  C   UNL     1     -10.227  -7.885   1.475  0.00  0.00    +0.101 C 
ATOM     15  C   UNL     1     -10.152  -9.130   0.593  0.00  0.00    +0.126 C 
ATOM     16  C   UNL     1      -9.702  -7.023   3.676  0.00  0.00    +0.105 C 
ENDBRANCH   7  10
ENDBRANCH   4   7
BRANCH   1  17
ATOM     17  C   UNL     1      -6.731  -4.238  -1.165  0.00  0.00    +0.180 C 
BRANCH  17  19
ATOM     18  N   UNL     1      -4.952  -2.536  -0.926  0.00  0.00    -0.312 N 
ATOM     19  C   UNL     1      -5.298  -3.788  -1.284  0.00  0.00    +0.227 C 
ATOM     20  O   UNL     1      -4.455  -4.553  -1.703  0.00  0.00    -0.274 OA
ATOM     21  H   UNL     1      -5.626  -1.924  -0.591  0.00  0.00    +0.149 HD
BRANCH  18  25
ATOM     22  N   UNL     1      -1.376  -0.512   0.012  0.00  0.00    +0.380 N 
ATOM     23  C   UNL     1      -2.051  -0.118  -1.230  0.00  0.00    -0.077 C 
ATOM     24  C   UNL     1      -3.511  -0.575  -1.189  0.00  0.00    +0.003 C 
ATOM     25  C   UNL     1      -3.559  -2.099  -1.042  0.00  0.00    +0.069 C 
ATOM     26  C   UNL     1      -2.788  -2.505   0.218  0.00  0.00    +0.003 C 
ATOM     27  C   UNL     1      -1.355  -1.976   0.125  0.00  0.00    -0.077 C 
ATOM     28  H   UNL     1      -1.871  -0.123   0.800  0.00  0.00    -0.082 HD
BRANCH  22  30
ATOM     29  C   UNL     1      -0.019   1.526   0.010  0.00  0.00    -0.017 C 
ATOM     30  C   UNL     1       0.002  -0.004   0.002  0.00  0.00    -0.082 C 
ENDBRANCH  22  30
ENDBRANCH  18  25
ENDBRANCH  17  19
ENDBRANCH   1  17
TORSDOF 6
