REMARK  Name = ZINC03284307
REMARK  7 active torsions:
REMARK  status: ('A' for Active; 'I' for Inactive)
REMARK    1  A    between atoms: C_1  and  C_2
REMARK    2  A    between atoms: C_8  and  C_16
REMARK    3  A    between atoms: C_16  and  O_18
REMARK    4  A    between atoms: O_18  and  C_19
REMARK    5  A    between atoms: C_19  and  C_20
REMARK    6  A    between atoms: N_22  and  C_23
REMARK    7  A    between atoms: C_24  and  C_31
REMARK                            x       y       z     vdW  Elec       q    Type
REMARK                         _______ _______ _______ _____ _____    ______ ____
ROOT
ATOM      1  O   UNL     1      -3.712   3.309  -2.409  0.00  0.00    -0.452 OA
ENDROOT
BRANCH   1   2
ATOM      2  C   UNL     1      -2.494   3.475  -2.960  0.00  0.00    +0.341 C 
ATOM      3  O   UNL     1      -2.260   3.026  -4.064  0.00  0.00    -0.245 OA
BRANCH   2  10
ATOM      4  C   UNL     1       0.002  -0.004   0.002  0.00  0.00    +0.008 C 
ATOM      5  C   UNL     1      -0.019   1.526   0.010  0.00  0.00    -0.009 C 
ATOM      6  C   UNL     1       1.418   2.062  -0.000  0.00  0.00    +0.010 C 
ATOM      7  C   UNL     1       1.375   3.566   0.259  0.00  0.00    +0.056 C 
ATOM      8  C   UNL     1       0.408   4.240  -0.683  0.00  0.00    +0.046 A 
ATOM      9  C   UNL     1      -0.570   3.529  -1.368  0.00  0.00    -0.011 A 
ATOM     10  C   UNL     1      -1.442   4.204  -2.221  0.00  0.00    +0.073 A 
ATOM     11  C   UNL     1      -1.295   5.605  -2.360  0.00  0.00    +0.015 A 
ATOM     12  C   UNL     1      -2.133   6.353  -3.196  0.00  0.00    +0.011 A 
ATOM     13  C   UNL     1      -1.953   7.700  -3.300  0.00  0.00    +0.001 A 
ATOM     14  C   UNL     1      -0.946   8.343  -2.584  0.00  0.00    +0.002 A 
ATOM     15  C   UNL     1      -0.115   7.647  -1.762  0.00  0.00    +0.028 A 
ATOM     16  C   UNL     1      -0.269   6.255  -1.629  0.00  0.00    +0.072 A 
ATOM     17  N   UNL     1       0.527   5.545  -0.831  0.00  0.00    -0.251 NA
ATOM     18  C   UNL     1      -0.732   2.038  -1.239  0.00  0.00    +0.041 C 
ENDBRANCH   2  10
ENDBRANCH   1   2
BRANCH   1  19
ATOM     19  C   UNL     1      -4.696   2.583  -3.193  0.00  0.00    +0.328 C 
BRANCH  19  20
ATOM     20  C   UNL     1      -5.988   2.497  -2.421  0.00  0.00    +0.255 C 
ATOM     21  O   UNL     1      -6.071   2.998  -1.320  0.00  0.00    -0.272 OA
ATOM     22  N   UNL     1      -7.051   1.863  -2.955  0.00  0.00    -0.277 N 
ATOM     23  H   UNL     1      -6.984   1.463  -3.836  0.00  0.00    +0.155 HD
BRANCH  22  24
ATOM     24  C   UNL     1      -8.239   1.784  -2.246  0.00  0.00    +0.084 A 
ATOM     25  C   UNL     1      -9.428   1.182  -2.622  0.00  0.00    +0.068 A 
ATOM     26  C   UNL     1     -10.544   1.240  -1.679  0.00  0.00    -0.023 A 
ATOM     27  C   UNL     1     -10.287   1.886  -0.528  0.00  0.00    -0.004 A 
ATOM     28  S   UNL     1      -8.595   2.408  -0.671  0.00  0.00    -0.077 S 
ATOM     29  C   UNL     1     -11.482   1.906   0.386  0.00  0.00    +0.043 C 
ATOM     30  C   UNL     1     -12.677   1.551  -0.526  0.00  0.00    +0.010 C 
ATOM     31  C   UNL     1     -11.989   0.740  -1.642  0.00  0.00    +0.037 C 
BRANCH  25  32
ATOM     32  C   UNL     1      -9.562   0.511  -3.919  0.00  0.00    +0.244 C 
ATOM     33  O   UNL     1      -9.297  -0.672  -4.022  0.00  0.00    -0.270 OA
ATOM     34  N   UNL     1      -9.979   1.204  -4.997  0.00  0.00    -0.325 N 
ATOM     35  H   UNL     1     -10.191   2.147  -4.915  0.00  0.00    +0.145 HD
ATOM     36  H   UNL     1     -10.068   0.760  -5.854  0.00  0.00    +0.145 HD
ENDBRANCH  25  32
ENDBRANCH  22  24
ENDBRANCH  19  20
ENDBRANCH   1  19
TORSDOF 6
