REMARK  Name = ZINC66832847
REMARK  7 active torsions:
REMARK  status: ('A' for Active; 'I' for Inactive)
REMARK    1  A    between atoms: C_1  and  O_2
REMARK    2  A    between atoms: O_2  and  C_3
REMARK    3  A    between atoms: C_3  and  C_5
REMARK    4  A    between atoms: N_10  and  C_12
REMARK    5  A    between atoms: C_12  and  C_13
REMARK    6  A    between atoms: N_18  and  C_21
REMARK    7  A    between atoms: C_21  and  C_22
REMARK                            x       y       z     vdW  Elec       q    Type
REMARK                         _______ _______ _______ _____ _____    ______ ____
ROOT
ATOM      1  C   UNL     1      -4.226  -5.987  -0.190  0.00  0.00    +0.199 C 
ATOM      2  O   UNL     1      -3.201  -6.633  -0.231  0.00  0.00    -0.278 OA
ATOM      3  N   UNL     1      -5.419  -6.611  -0.268  0.00  0.00    -0.301 N 
ATOM      4  C   UNL     1      -6.675  -5.846  -0.227  0.00  0.00    +0.123 C 
ATOM      5  C   UNL     1      -7.541  -6.269  -1.417  0.00  0.00    +0.104 C 
ATOM      6  N   UNL     1      -7.703  -7.729  -1.408  0.00  0.00    -0.291 NA
ATOM      7  C   UNL     1      -6.412  -8.409  -1.581  0.00  0.00    +0.104 C 
ATOM      8  C   UNL     1      -5.499  -8.073  -0.403  0.00  0.00    +0.123 C 
ENDROOT
BRANCH   1   9
ATOM      9  C   UNL     1      -4.168  -4.488  -0.052  0.00  0.00    +0.019 C 
BRANCH   9  14
ATOM     10  C   UNL     1      -1.244  -2.135   0.003  0.00  0.00    +0.081 C 
ATOM     11  C   UNL     1      -0.533  -2.681   1.244  0.00  0.00    +0.011 C 
ATOM     12  C   UNL     1      -0.665  -4.207   1.267  0.00  0.00    -0.018 C 
ATOM     13  C   UNL     1      -2.148  -4.585   1.235  0.00  0.00    -0.078 C 
ATOM     14  N   UNL     1      -2.765  -4.057   0.013  0.00  0.00    +0.386 N 
ATOM     15  C   UNL     1      -2.705  -2.590   0.016  0.00  0.00    -0.064 C 
ATOM     16  H   UNL     1      -2.269  -4.410  -0.792  0.00  0.00    -0.081 HD
BRANCH  10  17
ATOM     17  C   UNL     1      -1.185  -0.630   0.010  0.00  0.00    +0.308 C 
ATOM     18  O   UNL     1      -2.208   0.015   0.023  0.00  0.00    -0.251 OA
BRANCH  17  20
ATOM     19  C   UNL     1      -0.017   1.425   0.010  0.00  0.00    +0.280 C 
ATOM     20  O   UNL     1       0.002  -0.004   0.002  0.00  0.00    -0.468 OA
ENDBRANCH  17  20
ENDBRANCH  10  17
ENDBRANCH   9  14
ENDBRANCH   1   9
BRANCH   6  21
ATOM     21  C   UNL     1      -8.666  -8.159  -2.430  0.00  0.00    +0.180 C 
BRANCH  21  22
ATOM     22  C   UNL     1      -8.991  -9.617  -2.232  0.00  0.00    +0.230 C 
ATOM     23  O   UNL     1      -8.472 -10.237  -1.329  0.00  0.00    -0.274 OA
ATOM     24  N   UNL     1      -9.859 -10.232  -3.060  0.00  0.00    -0.300 N 
ATOM     25  C   UNL     1     -10.492  -9.496  -4.163  0.00  0.00    +0.108 C 
ATOM     26  C   UNL     1     -10.246 -10.258  -5.469  0.00  0.00    +0.019 C 
ATOM     27  C   UNL     1     -10.736 -11.700  -5.313  0.00  0.00    +0.003 C 
ATOM     28  C   UNL     1      -9.949 -12.390  -4.196  0.00  0.00    +0.019 C 
ATOM     29  C   UNL     1     -10.186 -11.653  -2.880  0.00  0.00    +0.108 C 
ENDBRANCH  21  22
ENDBRANCH   6  21
TORSDOF 6
