REMARK  Name = ZINC39468225
REMARK  6 active torsions:
REMARK  status: ('A' for Active; 'I' for Inactive)
REMARK    1  A    between atoms: C_1  and  S_2
REMARK    2  A    between atoms: S_2  and  P_3
REMARK    3  A    between atoms: C_11  and  C_28
REMARK    4  A    between atoms: C_12  and  C_21
REMARK    5  A    between atoms: C_21  and  C_22
REMARK    6  A    between atoms: C_28  and  C_29
REMARK                            x       y       z     vdW  Elec       q    Type
REMARK                         _______ _______ _______ _____ _____    ______ ____
ROOT
ATOM      1  P   UNL     1       1.614  -0.277   1.559  0.00  0.00    +0.314 P 
ATOM      2  O   UNL     1       0.814   0.199   2.709  0.00  0.00    -0.262 OA
ATOM      3  N   UNL     1       1.739  -1.922   1.586  0.00  0.00    -0.283 NA
ATOM      4  N   UNL     1       2.645  -2.485   2.460  0.00  0.00    +0.398 N 
ATOM      5  C   UNL     1       2.627  -3.931   2.190  0.00  0.00    -0.046 C 
ATOM      6  C   UNL     1       3.586  -4.673   3.110  0.00  0.00    +0.005 C 
ATOM      7  C   UNL     1       3.195  -4.478   4.551  0.00  0.00    -0.021 C 
ATOM      8  C   UNL     1       4.106  -4.647   5.506  0.00  0.00    -0.044 C 
ATOM      9  C   UNL     1       5.479  -5.033   5.138  0.00  0.00    -0.043 C 
ATOM     10  C   UNL     1       5.923  -4.801   3.906  0.00  0.00    -0.019 C 
ATOM     11  C   UNL     1       5.007  -4.139   2.907  0.00  0.00    +0.016 C 
ATOM     12  C   UNL     1       5.000  -2.629   3.151  0.00  0.00    -0.003 C 
ATOM     13  C   UNL     1       3.985  -1.940   2.232  0.00  0.00    -0.020 C 
ATOM     14  C   UNL     1       4.042  -0.438   2.544  0.00  0.00    +0.157 C 
ATOM     15  O   UNL     1       3.143   0.269   1.671  0.00  0.00    -0.312 OA
ATOM     16  H   UNL     1       1.194  -2.476   1.005  0.00  0.00    +0.112 HD
ATOM     17  H   UNL     1       2.360  -2.300   3.411  0.00  0.00    -0.055 HD
ENDROOT
BRANCH   1  19
ATOM     18  C   UNL     1       0.799   2.175  -0.165  0.00  0.00    +0.096 C 
ATOM     19  S   UNL     1       0.736   0.364  -0.261  0.00  0.00    -0.059 S 
ENDBRANCH   1  19
BRANCH   9  20
ATOM     20  C   UNL     1       6.378  -5.689   6.154  0.00  0.00    +0.070 C 
BRANCH  20  21
ATOM     21  C   UNL     1       6.138  -7.177   6.150  0.00  0.00    -0.043 A 
ATOM     22  C   UNL     1       5.149  -7.720   6.949  0.00  0.00    +0.004 A 
ATOM     23  C   UNL     1       4.930  -9.084   6.946  0.00  0.00    +0.000 A 
ATOM     24  C   UNL     1       5.699  -9.906   6.143  0.00  0.00    +0.000 A 
ATOM     25  C   UNL     1       6.687  -9.363   5.344  0.00  0.00    +0.000 A 
ATOM     26  C   UNL     1       6.904  -7.998   5.344  0.00  0.00    +0.004 A 
ENDBRANCH  20  21
ENDBRANCH   9  20
BRANCH   8  27
ATOM     27  C   UNL     1       3.736  -4.444   6.953  0.00  0.00    +0.070 C 
BRANCH  27  28
ATOM     28  C   UNL     1       4.059  -3.030   7.361  0.00  0.00    -0.043 A 
ATOM     29  C   UNL     1       5.258  -2.748   7.988  0.00  0.00    +0.004 A 
ATOM     30  C   UNL     1       5.554  -1.451   8.363  0.00  0.00    +0.000 A 
ATOM     31  C   UNL     1       4.652  -0.435   8.109  0.00  0.00    +0.000 A 
ATOM     32  C   UNL     1       3.453  -0.717   7.481  0.00  0.00    +0.000 A 
ATOM     33  C   UNL     1       3.159  -2.014   7.103  0.00  0.00    +0.004 A 
ENDBRANCH  27  28
ENDBRANCH   8  27
TORSDOF 5
