REMARK  Name = ZINC12712096
REMARK  7 active torsions:
REMARK  status: ('A' for Active; 'I' for Inactive)
REMARK    1  A    between atoms: C_1  and  C_2
REMARK    2  A    between atoms: C_3  and  C_12
REMARK    3  A    between atoms: C_12  and  N_57
REMARK    4  A    between atoms: C_15  and  C_18
REMARK    5  A    between atoms: C_15  and  O_30
REMARK    6  A    between atoms: C_18  and  C_19
REMARK    7  A    between atoms: C_21  and  C_24
REMARK                            x       y       z     vdW  Elec       q    Type
REMARK                         _______ _______ _______ _____ _____    ______ ____
ROOT
ATOM      1  C   UNL     1      -4.512  -6.018   2.904  0.00  0.00    -0.076 C 
ATOM      2  C   UNL     1      -4.339  -5.543   1.459  0.00  0.00    +0.016 C 
ATOM      3  C   UNL     1      -3.717  -4.143   1.458  0.00  0.00    +0.070 C 
ATOM      4  C   UNL     1      -2.380  -4.185   2.202  0.00  0.00    +0.016 C 
ATOM      5  C   UNL     1      -2.610  -4.701   3.625  0.00  0.00    -0.076 C 
ATOM      6  N   UNL     1      -3.186  -6.060   3.557  0.00  0.00    +0.383 N 
ATOM      7  H   UNL     1      -2.561  -6.659   3.004  0.00  0.00    -0.081 HD
ENDROOT
BRANCH   3   8
ATOM      8  O   UNL     1      -4.600  -3.229   2.112  0.00  0.00    -0.388 OA
ATOM      9  H   UNL     1      -4.268  -2.321   2.149  0.00  0.00    +0.210 HD
ENDBRANCH   3   8
BRANCH   6  10
ATOM     10  C   UNL     1      -3.311  -6.624   4.917  0.00  0.00    -0.041 C 
BRANCH  10  13
ATOM     11  C   UNL     1      -1.633  -9.217   4.608  0.00  0.00    +0.063 C 
ATOM     12  C   UNL     1      -1.198  -7.977   5.345  0.00  0.00    +0.015 A 
ATOM     13  C   UNL     1      -1.931  -6.859   5.473  0.00  0.00    -0.036 A 
ATOM     14  C   UNL     1      -1.137  -5.915   6.263  0.00  0.00    +0.001 A 
ATOM     15  C   UNL     1      -1.352  -4.615   6.724  0.00  0.00    +0.010 A 
ATOM     16  C   UNL     1      -0.386  -3.987   7.459  0.00  0.00    +0.001 A 
ATOM     17  C   UNL     1       0.808  -4.632   7.750  0.00  0.00    +0.002 A 
ATOM     18  C   UNL     1       1.042  -5.914   7.305  0.00  0.00    +0.026 A 
ATOM     19  C   UNL     1       0.072  -6.572   6.555  0.00  0.00    +0.047 A 
ATOM     20  N   UNL     1       0.004  -7.822   5.980  0.00  0.00    -0.358 N 
ATOM     21  H   UNL     1       0.703  -8.493   6.023  0.00  0.00    +0.166 HD
ENDBRANCH  10  13
ENDBRANCH   6  10
BRANCH   3  22
ATOM     22  C   UNL     1      -3.486  -3.688   0.016  0.00  0.00    +0.111 C 
BRANCH  22  23
ATOM     23  C   UNL     1      -2.761  -2.367   0.016  0.00  0.00    +0.141 A 
ATOM     24  C   UNL     1      -1.421  -2.181  -0.001  0.00  0.00    +0.076 A 
ATOM     25  C   UNL     1      -1.272  -0.766   0.011  0.00  0.00    +0.114 A 
ATOM     26  N   UNL     1      -2.485  -0.272   0.025  0.00  0.00    -0.078 NA
ATOM     27  O   UNL     1      -3.318  -1.148   0.028  0.00  0.00    -0.359 OA
BRANCH  25  28
ATOM     28  C   UNL     1       0.002  -0.004   0.002  0.00  0.00    +0.004 A 
ATOM     29  C   UNL     1      -0.017   1.389   0.010  0.00  0.00    +0.010 A 
ATOM     30  C   UNL     1       1.170   2.093   0.002  0.00  0.00    +0.001 A 
ATOM     31  C   UNL     1       2.377   1.418  -0.013  0.00  0.00    +0.000 A 
ATOM     32  C   UNL     1       2.402   0.035  -0.021  0.00  0.00    +0.001 A 
ATOM     33  C   UNL     1       1.221  -0.679  -0.013  0.00  0.00    +0.010 A 
ENDBRANCH  25  28
ENDBRANCH  22  23
ENDBRANCH   3  22
TORSDOF 6
