REMARK  Name = ZINC36595474
REMARK  15 active torsions:
REMARK  status: ('A' for Active; 'I' for Inactive)
REMARK    1  A    between atoms: C_1  and  C_2
REMARK    2  A    between atoms: C_5  and  C_7
REMARK    3  A    between atoms: C_7  and  N_8
REMARK    4  A    between atoms: N_8  and  C_9
REMARK    5  A    between atoms: C_9  and  C_11
REMARK    6  A    between atoms: C_9  and  C_20
REMARK    7  A    between atoms: C_14  and  O_19
REMARK    8  A    between atoms: C_15  and  O_17
REMARK    9  A    between atoms: O_17  and  C_18
REMARK   10  A    between atoms: N_22  and  C_23
REMARK   11  A    between atoms: C_23  and  C_24
REMARK   12  A    between atoms: C_23  and  C_25
REMARK   13  A    between atoms: C_23  and  C_26
REMARK   14  A    between atoms: C_27  and  C_29
REMARK   15  A    between atoms: C_34  and  O_35
REMARK                            x       y       z     vdW  Elec       q    Type
REMARK                         _______ _______ _______ _____ _____    ______ ____
ROOT
ATOM      1  C   UNL     1       3.958  -3.718  -0.798  0.00  0.00    +0.193 C 
ENDROOT
BRANCH   1   2
ATOM      2  C   UNL     1       4.165  -3.052  -2.134  0.00  0.00    -0.015 A 
ATOM      3  C   UNL     1       3.269  -3.278  -3.163  0.00  0.00    +0.010 A 
ATOM      4  C   UNL     1       3.454  -2.670  -4.391  0.00  0.00    +0.049 A 
ATOM      5  C   UNL     1       4.540  -1.832  -4.592  0.00  0.00    +0.158 A 
ATOM      6  C   UNL     1       5.441  -1.605  -3.557  0.00  0.00    +0.162 A 
ATOM      7  C   UNL     1       5.247  -2.214  -2.327  0.00  0.00    +0.055 A 
BRANCH   6   8
ATOM      8  O   UNL     1       6.508  -0.784  -3.749  0.00  0.00    -0.491 OA
ATOM      9  C   UNL     1       7.451  -0.684  -2.681  0.00  0.00    +0.277 C 
ENDBRANCH   6   8
BRANCH   5  10
ATOM     10  O   UNL     1       4.724  -1.233  -5.799  0.00  0.00    -0.503 OA
ATOM     11  H   UNL     1       4.295  -0.371  -5.880  0.00  0.00    +0.292 HD
ENDBRANCH   5  10
ENDBRANCH   1   2
BRANCH   1  12
ATOM     12  C   UNL     1       5.282  -4.206  -0.270  0.00  0.00    +0.239 C 
ATOM     13  O   UNL     1       5.620  -5.356  -0.449  0.00  0.00    -0.273 OA
ATOM     14  N   UNL     1       6.091  -3.363   0.403  0.00  0.00    -0.309 N 
ATOM     15  H   UNL     1       5.821  -2.442   0.546  0.00  0.00    +0.149 HD
BRANCH  14  16
ATOM     16  C   UNL     1       7.378  -3.837   0.917  0.00  0.00    +0.026 C 
ATOM     17  C   UNL     1       8.242  -4.329  -0.246  0.00  0.00    +0.031 C 
ATOM     18  C   UNL     1       8.094  -2.691   1.635  0.00  0.00    +0.031 C 
ATOM     19  C   UNL     1       7.143  -4.986   1.899  0.00  0.00    +0.031 C 
ENDBRANCH  14  16
ENDBRANCH   1  12
BRANCH   1  20
ATOM     20  N   UNL     1       3.046  -4.854  -0.954  0.00  0.00    -0.275 N 
ATOM     21  C   UNL     1       1.887  -4.886  -0.268  0.00  0.00    +0.251 C 
ATOM     22  O   UNL     1       1.088  -5.782  -0.466  0.00  0.00    -0.270 OA
BRANCH  21  23
ATOM     23  C   UNL     1       1.587  -3.836   0.724  0.00  0.00    +0.078 A 
ATOM     24  C   UNL     1       1.646  -2.489   0.360  0.00  0.00    +0.017 A 
ATOM     25  C   UNL     1       1.365  -1.512   1.290  0.00  0.00    +0.001 A 
ATOM     26  C   UNL     1       1.022  -1.861   2.587  0.00  0.00    +0.004 A 
ATOM     27  C   UNL     1       0.959  -3.188   2.960  0.00  0.00    +0.046 A 
ATOM     28  C   UNL     1       1.234  -4.184   2.034  0.00  0.00    +0.129 A 
BRANCH  28  29
ATOM     29  O   UNL     1       1.168  -5.490   2.398  0.00  0.00    -0.506 OA
ATOM     30  H   UNL     1       2.000  -5.846   2.738  0.00  0.00    +0.292 HD
ENDBRANCH  28  29
ENDBRANCH  21  23
BRANCH  20  31
ATOM     31  C   UNL     1       3.395  -5.954  -1.856  0.00  0.00    +0.183 C 
BRANCH  31  36
ATOM     32  C   UNL     1       4.929  -9.767   1.067  0.00  0.00    +0.086 C 
ATOM     33  C   UNL     1       4.063  -8.910   0.182  0.00  0.00    +0.102 A 
ATOM     34  C   UNL     1       2.805  -9.194  -0.202  0.00  0.00    +0.045 A 
ATOM     35  C   UNL     1       2.375  -8.125  -1.021  0.00  0.00    +0.046 A 
ATOM     36  C   UNL     1       3.395  -7.252  -1.089  0.00  0.00    +0.122 A 
ATOM     37  O   UNL     1       4.413  -7.729  -0.354  0.00  0.00    -0.463 OA
ENDBRANCH  31  36
ENDBRANCH  20  31
ENDBRANCH   1  20
TORSDOF 10
