REMARK  Name = ZINC36694691
REMARK  7 active torsions:
REMARK  status: ('A' for Active; 'I' for Inactive)
REMARK    1  A    between atoms: C_1  and  C_2
REMARK    2  A    between atoms: C_4  and  C_7
REMARK    3  A    between atoms: C_7  and  C_9
REMARK    4  A    between atoms: C_7  and  S_10
REMARK    5  A    between atoms: S_10  and  C_11
REMARK    6  A    between atoms: N_24  and  C_25
REMARK    7  A    between atoms: C_25  and  C_26
REMARK                            x       y       z     vdW  Elec       q    Type
REMARK                         _______ _______ _______ _____ _____    ______ ____
ROOT
ATOM      1  C   UNL     1       1.265  -5.639  -2.415  0.00  0.00    +0.174 A 
ATOM      2  N   UNL     1       0.468  -5.493  -3.454  0.00  0.00    -0.216 NA
ATOM      3  C   UNL     1       0.448  -6.397  -4.427  0.00  0.00    +0.117 A 
ATOM      4  C   UNL     1       1.262  -7.541  -4.402  0.00  0.00    +0.076 A 
ATOM      5  C   UNL     1       1.128  -8.447  -5.545  0.00  0.00    -0.023 A 
ATOM      6  C   UNL     1       0.244  -8.098  -6.502  0.00  0.00    -0.004 A 
ATOM      7  S   UNL     1      -0.453  -6.565  -5.948  0.00  0.00    -0.073 S 
ATOM      8  C   UNL     1      -0.075  -8.847  -7.759  0.00  0.00    +0.043 C 
ATOM      9  C   UNL     1       1.022  -9.897  -7.990  0.00  0.00    +0.005 C 
ATOM     10  C   UNL     1       1.261 -10.653  -6.680  0.00  0.00    +0.005 C 
ATOM     11  C   UNL     1       1.941  -9.732  -5.666  0.00  0.00    +0.037 C 
ATOM     12  C   UNL     1       2.117  -7.673  -3.262  0.00  0.00    +0.263 A 
ATOM     13  O   UNL     1       2.859  -8.634  -3.155  0.00  0.00    -0.267 OA
ATOM     14  N   UNL     1       2.094  -6.719  -2.313  0.00  0.00    -0.283 N 
ENDROOT
BRANCH   1  15
ATOM     15  S   UNL     1       1.266  -4.420  -1.143  0.00  0.00    -0.075 S 
BRANCH  15  16
ATOM     16  C   UNL     1       0.038  -3.206  -1.697  0.00  0.00    +0.140 C 
ATOM     17  C   UNL     1      -1.347  -3.856  -1.721  0.00  0.00    +0.029 C 
BRANCH  16  21
ATOM     18  C   UNL     1      -0.018   1.503   0.010  0.00  0.00    +0.091 C 
ATOM     19  C   UNL     1       0.002  -0.004   0.002  0.00  0.00    +0.169 A 
ATOM     20  N   UNL     1       0.008  -0.776  -1.091  0.00  0.00    -0.195 NA
ATOM     21  C   UNL     1       0.026  -2.034  -0.750  0.00  0.00    +0.240 A 
ATOM     22  O   UNL     1       0.033  -2.107   0.587  0.00  0.00    -0.337 OA
ATOM     23  N   UNL     1       0.023  -0.767   1.057  0.00  0.00    -0.062 NA
ENDBRANCH  16  21
ENDBRANCH  15  16
ENDBRANCH   1  15
BRANCH  14  24
ATOM     24  C   UNL     1       2.970  -6.845  -1.146  0.00  0.00    +0.154 C 
BRANCH  24  25
ATOM     25  C   UNL     1       2.253  -7.604  -0.059  0.00  0.00    -0.013 C 
ATOM     26  C   UNL     1       2.799  -8.676   0.460  0.00  0.00    +0.005 C 
ENDBRANCH  24  25
ENDBRANCH  14  24
TORSDOF 5
