REMARK  Name = ZINC19172048
REMARK  3 active torsions:
REMARK  status: ('A' for Active; 'I' for Inactive)
REMARK    1  A    between atoms: C_6  and  C_7
REMARK    2  A    between atoms: C_9  and  C_20
REMARK    3  A    between atoms: C_11  and  C_18
REMARK                            x       y       z     vdW  Elec       q    Type
REMARK                         _______ _______ _______ _____ _____    ______ ____
ROOT
ATOM      1  C   UNL     1       3.499   0.706  -0.322  0.00  0.00    +0.122 C 
ATOM      2  C   UNL     1       3.398  -0.499  -1.283  0.00  0.00    +0.147 C 
ATOM      3  C   UNL     1       1.866  -0.723  -1.385  0.00  0.00    +0.193 C 
ATOM      4  N   UNL     1       1.417  -0.403  -0.007  0.00  0.00    -0.222 NA
ATOM      5  N   UNL     1       2.217   0.751   0.414  0.00  0.00    -0.230 NA
ATOM      6  C   UNL     1       1.462   1.954  -0.001  0.00  0.00    +0.104 C 
ATOM      7  C   UNL     1      -0.019   1.535   0.011  0.00  0.00    +0.034 C 
ATOM      8  C   UNL     1       0.002  -0.004   0.002  0.00  0.00    +0.105 C 
ENDROOT
BRANCH   1  14
ATOM      9  C   UNL     1       4.489  -0.326   1.732  0.00  0.00    +0.007 A 
ATOM     10  C   UNL     1       5.539  -0.512   2.612  0.00  0.00    +0.020 A 
ATOM     11  C   UNL     1       6.739   0.144   2.405  0.00  0.00    +0.041 A 
ATOM     12  C   UNL     1       6.890   0.982   1.314  0.00  0.00    +0.020 A 
ATOM     13  C   UNL     1       5.841   1.163   0.433  0.00  0.00    +0.007 A 
ATOM     14  C   UNL     1       4.642   0.507   0.640  0.00  0.00    -0.028 A 
ATOM     15 CL   UNL     1       8.056  -0.084   3.513  0.00  0.00    -0.084 Cl
ENDBRANCH   1  14
BRANCH   3  16
ATOM     16  C   UNL     1       1.559  -2.121  -1.728  0.00  0.00    +0.084 C 
ATOM     17  N   UNL     1       1.322  -3.200  -1.992  0.00  0.00    -0.195 NA
ENDBRANCH   3  16
BRANCH   2  18
ATOM     18  C   UNL     1       4.061  -1.682  -0.710  0.00  0.00    +0.070 C 
ATOM     19  N   UNL     1       4.573  -2.595  -0.268  0.00  0.00    -0.196 NA
ENDBRANCH   2  18
TORSDOF 3
