REMARK  Name = ZINC12307287
REMARK  9 active torsions:
REMARK  status: ('A' for Active; 'I' for Inactive)
REMARK    1  A    between atoms: C_1  and  C_2
REMARK    2  A    between atoms: C_2  and  S_3
REMARK    3  A    between atoms: S_3  and  C_6
REMARK    4  A    between atoms: C_9  and  C_18
REMARK    5  A    between atoms: N_10  and  C_11
REMARK    6  A    between atoms: C_11  and  C_12
REMARK    7  A    between atoms: C_18  and  N_59
REMARK    8  A    between atoms: C_19  and  N_59
REMARK    9  A    between atoms: C_20  and  N_59
REMARK                            x       y       z     vdW  Elec       q    Type
REMARK                         _______ _______ _______ _____ _____    ______ ____
ROOT
ATOM      1  C   UNL     1      -3.009   0.222  -2.786  0.00  0.00    +0.252 A 
ATOM      2  N   UNL     1      -2.432  -0.927  -3.009  0.00  0.00    -0.220 NA
ATOM      3  C   UNL     1      -1.587  -1.200  -2.003  0.00  0.00    +0.133 A 
ATOM      4  C   UNL     1      -1.643  -0.182  -1.124  0.00  0.00    +0.024 A 
ATOM      5  N   UNL     1      -2.548   0.719  -1.618  0.00  0.00    -0.311 N 
ENDROOT
BRANCH   1   6
ATOM      6  S   UNL     1      -4.196   0.996  -3.834  0.00  0.00    +0.030 S 
ATOM      7  O   UNL     1      -4.149   2.371  -3.481  0.00  0.00    -0.166 OA
ATOM      8  O   UNL     1      -3.851   0.573  -5.146  0.00  0.00    -0.166 OA
BRANCH   6  10
ATOM      9  C   UNL     1      -6.892   0.816  -4.256  0.00  0.00    +0.028 C 
ATOM     10  C   UNL     1      -5.788   0.277  -3.345  0.00  0.00    +0.172 C 
ENDBRANCH   6  10
ENDBRANCH   1   6
BRANCH   5  11
ATOM     11  C   UNL     1      -2.942   1.985  -0.996  0.00  0.00    +0.159 C 
BRANCH  11  12
ATOM     12  C   UNL     1      -4.096   1.746  -0.057  0.00  0.00    -0.028 A 
ATOM     13  C   UNL     1      -5.396   1.867  -0.514  0.00  0.00    +0.005 A 
ATOM     14  C   UNL     1      -6.454   1.643   0.347  0.00  0.00    +0.000 A 
ATOM     15  C   UNL     1      -6.214   1.308   1.666  0.00  0.00    +0.000 A 
ATOM     16  C   UNL     1      -4.915   1.192   2.124  0.00  0.00    +0.000 A 
ATOM     17  C   UNL     1      -3.856   1.412   1.263  0.00  0.00    +0.005 A 
ENDBRANCH  11  12
ENDBRANCH   5  11
BRANCH   4  18
ATOM     18  C   UNL     1      -0.864  -0.060   0.160  0.00  0.00    -0.022 C 
BRANCH  18  20
ATOM     19  C   UNL     1       0.128   2.107  -0.270  0.00  0.00    -0.095 C 
ATOM     20  N   UNL     1       0.396   0.662  -0.117  0.00  0.00    +0.386 N 
ATOM     21  H   UNL     1       0.800   0.304  -0.991  0.00  0.00    -0.081 HD
BRANCH  20  22
ATOM     22  C   UNL     1       1.358   0.440   0.983  0.00  0.00    -0.037 C 
ATOM     23  C   UNL     1       0.723   0.806   2.323  0.00  0.00    -0.010 C 
ATOM     24  C   UNL     1       1.667   0.355   3.444  0.00  0.00    +0.003 C 
ATOM     25  C   UNL     1       1.664  -1.171   3.493  0.00  0.00    +0.035 C 
ATOM     26  C   UNL     1       1.923  -1.745   2.125  0.00  0.00    -0.046 A 
ATOM     27  C   UNL     1       1.776  -1.007   0.971  0.00  0.00    -0.058 A 
ATOM     28  C   UNL     1       2.018  -1.601  -0.261  0.00  0.00    +0.002 A 
ATOM     29  C   UNL     1       2.409  -2.922  -0.338  0.00  0.00    +0.000 A 
ATOM     30  C   UNL     1       2.562  -3.661   0.820  0.00  0.00    +0.000 A 
ATOM     31  C   UNL     1       2.320  -3.073   2.045  0.00  0.00    +0.004 A 
ENDBRANCH  20  22
ENDBRANCH  18  20
ENDBRANCH   4  18
TORSDOF 7
