REMARK  Name = ZINC64370134
REMARK  9 active torsions:
REMARK  status: ('A' for Active; 'I' for Inactive)
REMARK    1  A    between atoms: C_1  and  C_2
REMARK    2  A    between atoms: C_7  and  N_8
REMARK    3  A    between atoms: C_9  and  C_11
REMARK    4  A    between atoms: C_11  and  S_12
REMARK    5  A    between atoms: S_12  and  C_13
REMARK    6  A    between atoms: C_16  and  C_21
REMARK    7  A    between atoms: N_17  and  C_18
REMARK    8  A    between atoms: C_18  and  C_19
REMARK    9  A    between atoms: C_22  and  N_30
REMARK                            x       y       z     vdW  Elec       q    Type
REMARK                         _______ _______ _______ _____ _____    ______ ____
ROOT
ATOM      1  C   UNL     1      -0.386  -0.116   7.687  0.00  0.00    +0.193 A 
ATOM      2  N   UNL     1      -0.411   1.197   7.712  0.00  0.00    -0.122 NA
ATOM      3  N   UNL     1      -0.509   1.616   8.922  0.00  0.00    -0.128 NA
ATOM      4  C   UNL     1      -0.553   0.593   9.749  0.00  0.00    +0.174 A 
ATOM      5  N   UNL     1      -0.481  -0.549   8.981  0.00  0.00    -0.298 N 
ENDROOT
BRANCH   4   6
ATOM      6  C   UNL     1      -0.663   0.657  11.213  0.00  0.00    +0.080 A 
ATOM      7  C   UNL     1      -0.747   1.761  12.005  0.00  0.00    +0.052 A 
ATOM      8  C   UNL     1      -0.850   1.582  13.445  0.00  0.00    +0.029 A 
ATOM      9  C   UNL     1      -0.947   2.569  14.457  0.00  0.00    +0.014 A 
ATOM     10  C   UNL     1      -1.035   2.170  15.770  0.00  0.00    +0.020 A 
ATOM     11  C   UNL     1      -1.027   0.822  16.096  0.00  0.00    +0.112 A 
ATOM     12  N   UNL     1      -0.936  -0.094  15.151  0.00  0.00    -0.248 NA
ATOM     13  C   UNL     1      -0.851   0.237  13.882  0.00  0.00    +0.111 A 
ATOM     14  S   UNL     1      -0.726  -0.694  12.375  0.00  0.00    -0.064 S 
BRANCH   7  15
ATOM     15  N   UNL     1      -0.735   3.044  11.444  0.00  0.00    -0.356 N 
ATOM     16  H   UNL     1      -0.666   3.153  10.483  0.00  0.00    +0.142 HD
ATOM     17  H   UNL     1      -0.795   3.825  12.017  0.00  0.00    +0.142 HD
ENDBRANCH   7  15
ENDBRANCH   4   6
BRANCH   1  18
ATOM     18  S   UNL     1      -0.260  -1.131   6.253  0.00  0.00    -0.077 S 
BRANCH  18  19
ATOM     19  C   UNL     1      -0.169   0.054   4.882  0.00  0.00    +0.173 C 
BRANCH  19  21
ATOM     20  N   UNL     1       0.025  -0.014   2.417  0.00  0.00    -0.285 N 
ATOM     21  C   UNL     1      -0.057  -0.693   3.578  0.00  0.00    +0.227 C 
ATOM     22  O   UNL     1      -0.040  -1.906   3.574  0.00  0.00    -0.275 OA
ATOM     23  H   UNL     1       0.077   0.955   2.425  0.00  0.00    +0.155 HD
BRANCH  20  30
ATOM     24  C   UNL     1      -1.265   1.183   0.181  0.00  0.00    +0.046 C 
ATOM     25  C   UNL     1      -0.584  -0.158   0.084  0.00  0.00    -0.028 A 
ATOM     26  C   UNL     1      -0.569  -0.841  -1.116  0.00  0.00    +0.025 A 
ATOM     27  C   UNL     1       0.056  -2.072  -1.206  0.00  0.00    +0.041 A 
ATOM     28  C   UNL     1       0.668  -2.623  -0.093  0.00  0.00    +0.022 A 
ATOM     29  C   UNL     1       0.656  -1.944   1.109  0.00  0.00    +0.025 A 
ATOM     30  C   UNL     1       0.034  -0.706   1.201  0.00  0.00    +0.036 A 
ATOM     31 CL   UNL     1       0.072  -2.928  -2.716  0.00  0.00    -0.084 Cl
ENDBRANCH  20  30
ENDBRANCH  19  21
ENDBRANCH  18  19
ENDBRANCH   1  18
BRANCH   5  32
ATOM     32  C   UNL     1      -0.499  -1.936   9.453  0.00  0.00    +0.152 C 
BRANCH  32  33
ATOM     33  C   UNL     1       0.910  -2.393   9.725  0.00  0.00    -0.013 C 
ATOM     34  C   UNL     1       1.227  -2.876  10.901  0.00  0.00    +0.005 C 
ENDBRANCH  32  33
ENDBRANCH   5  32
TORSDOF 8
