REMARK  Name = ZINC08617335
REMARK  15 active torsions:
REMARK  status: ('A' for Active; 'I' for Inactive)
REMARK    1  A    between atoms: C_1  and  C_2
REMARK    2  A    between atoms: C_2  and  C_3
REMARK    3  A    between atoms: C_3  and  C_5
REMARK    4  A    between atoms: C_3  and  N_62
REMARK    5  A    between atoms: N_9  and  C_10
REMARK    6  A    between atoms: C_10  and  C_11
REMARK    7  A    between atoms: C_11  and  O_13
REMARK    8  A    between atoms: O_13  and  C_14
REMARK    9  A    between atoms: C_14  and  C_15
REMARK   10  A    between atoms: C_16  and  C_17
REMARK   11  A    between atoms: C_16  and  N_62
REMARK   12  A    between atoms: C_22  and  C_23
REMARK   13  A    between atoms: C_22  and  N_62
REMARK   14  A    between atoms: C_27  and  C_34
REMARK   15  A    between atoms: C_32  and  O_33
REMARK                            x       y       z     vdW  Elec       q    Type
REMARK                         _______ _______ _______ _____ _____    ______ ____
ROOT
ATOM      1  N   UNL     1      -2.420   2.318  -0.483  0.00  0.00    +0.392 N 
ATOM      2  H   UNL     1      -2.125   2.520  -1.445  0.00  0.00    -0.080 HD
ENDROOT
BRANCH   1   3
ATOM      3  C   UNL     1      -1.309   2.642   0.437  0.00  0.00    +0.003 C 
BRANCH   3   4
ATOM      4  C   UNL     1      -1.292   4.127   0.694  0.00  0.00    +0.139 A 
ATOM      5  N   UNL     1      -1.439   5.077  -0.197  0.00  0.00    -0.115 NA
ATOM      6  N   UNL     1      -1.370   6.210   0.414  0.00  0.00    -0.023 NA
ATOM      7  N   UNL     1      -1.182   6.007   1.671  0.00  0.00    -0.043 NA
ATOM      8  N   UNL     1      -1.129   4.735   1.884  0.00  0.00    -0.220 N 
BRANCH   8   9
ATOM      9  C   UNL     1      -0.928   4.077   3.177  0.00  0.00    +0.267 C 
BRANCH   9  10
ATOM     10  C   UNL     1       0.546   3.875   3.415  0.00  0.00    +0.329 C 
ATOM     11  O   UNL     1       1.347   4.244   2.589  0.00  0.00    -0.249 OA
BRANCH  10  12
ATOM     12  O   UNL     1       0.969   3.287   4.545  0.00  0.00    -0.464 OA
BRANCH  12  13
ATOM     13  C   UNL     1       2.403   3.125   4.707  0.00  0.00    +0.229 C 
ATOM     14  C   UNL     1       2.691   2.440   6.044  0.00  0.00    +0.048 C 
ENDBRANCH  12  13
ENDBRANCH  10  12
ENDBRANCH   9  10
ENDBRANCH   8   9
ENDBRANCH   3   4
BRANCH   3  16
ATOM     15  C   UNL     1       0.063   0.698  -0.322  0.00  0.00    +0.002 C 
ATOM     16  C   UNL     1       0.008   2.223  -0.219  0.00  0.00    -0.011 C 
ENDBRANCH   3  16
ENDBRANCH   1   3
BRANCH   1  17
ATOM     17  C   UNL     1      -2.763   0.885  -0.375  0.00  0.00    -0.034 C 
BRANCH  17  18
ATOM     18  C   UNL     1      -3.538   0.480  -1.603  0.00  0.00    -0.027 A 
ATOM     19  C   UNL     1      -3.088  -0.090  -2.747  0.00  0.00    +0.009 A 
ATOM     20  C   UNL     1      -3.992  -0.378  -3.753  0.00  0.00    +0.008 A 
ATOM     21  C   UNL     1      -5.301  -0.081  -3.565  0.00  0.00    +0.045 A 
ATOM     22  S   UNL     1      -5.288   0.622  -1.924  0.00  0.00    -0.103 S 
ENDBRANCH  17  18
ENDBRANCH   1  17
BRANCH   1  23
ATOM     23  C   UNL     1      -3.601   3.146  -0.159  0.00  0.00    -0.036 C 
BRANCH  23  24
ATOM     24  C   UNL     1      -4.013   2.942   1.276  0.00  0.00    -0.002 A 
ATOM     25  C   UNL     1      -3.623   3.833   2.231  0.00  0.00    +0.017 A 
ATOM     26  C   UNL     1      -4.029   3.605   3.561  0.00  0.00    +0.001 A 
ATOM     27  C   UNL     1      -3.664   4.482   4.595  0.00  0.00    +0.013 A 
ATOM     28  C   UNL     1      -4.075   4.229   5.869  0.00  0.00    -0.050 A 
ATOM     29  C   UNL     1      -4.854   3.112   6.160  0.00  0.00    +0.005 A 
ATOM     30  C   UNL     1      -5.225   2.241   5.182  0.00  0.00    +0.029 A 
ATOM     31  C   UNL     1      -4.821   2.468   3.855  0.00  0.00    +0.075 A 
ATOM     32  N   UNL     1      -5.171   1.629   2.874  0.00  0.00    -0.213 NA
ATOM     33  C   UNL     1      -4.800   1.839   1.630  0.00  0.00    +0.214 A 
ATOM     34  C   UNL     1      -3.682   5.171   6.977  0.00  0.00    +0.044 C 
BRANCH  33  35
ATOM     35  O   UNL     1      -5.185   0.965   0.668  0.00  0.00    -0.492 OA
ATOM     36  H   UNL     1      -4.626   0.178   0.606  0.00  0.00    +0.294 HD
ENDBRANCH  33  35
ENDBRANCH  23  24
ENDBRANCH   1  23
TORSDOF 12
