REMARK  Name = ZINC12321424
REMARK  7 active torsions:
REMARK  status: ('A' for Active; 'I' for Inactive)
REMARK    1  A    between atoms: C_1  and  C_2
REMARK    2  A    between atoms: C_2  and  C_4
REMARK    3  A    between atoms: C_2  and  N_15
REMARK    4  A    between atoms: C_4  and  C_5
REMARK    5  A    between atoms: C_16  and  C_18
REMARK    6  A    between atoms: C_18  and  N_19
REMARK    7  A    between atoms: C_20  and  C_22
REMARK                            x       y       z     vdW  Elec       q    Type
REMARK                         _______ _______ _______ _____ _____    ______ ____
ROOT
ATOM      1  C   UNL     1      10.490  -1.778  -0.098  0.00  0.00    +0.200 C 
ENDROOT
BRANCH   1   3
ATOM      2  N   UNL     1      12.146  -3.615  -0.120  0.00  0.00    -0.311 N 
ATOM      3  C   UNL     1      10.851  -3.241  -0.107  0.00  0.00    +0.230 C 
ATOM      4  O   UNL     1       9.977  -4.081  -0.103  0.00  0.00    -0.274 OA
ATOM      5  H   UNL     1      12.845  -2.943  -0.123  0.00  0.00    +0.149 HD
BRANCH   2   7
ATOM      6  C   UNL     1      12.485  -5.556  -1.568  0.00  0.00    +0.028 C 
ATOM      7  C   UNL     1      12.497  -5.037  -0.129  0.00  0.00    +0.074 C 
BRANCH   7   8
ATOM      8  C   UNL     1      13.894  -5.222   0.467  0.00  0.00    +0.059 C 
BRANCH   8   9
ATOM      9  C   UNL     1      13.876  -4.825   1.921  0.00  0.00    -0.021 A 
ATOM     10  C   UNL     1      14.212  -3.628   2.426  0.00  0.00    +0.087 A 
ATOM     11  N   UNL     1      14.069  -3.639   3.787  0.00  0.00    -0.360 N 
ATOM     12  H   UNL     1      14.251  -2.887   4.373  0.00  0.00    +0.165 HD
ATOM     13  C   UNL     1      13.633  -4.877   4.202  0.00  0.00    +0.047 A 
ATOM     14  C   UNL     1      13.493  -5.675   3.051  0.00  0.00    +0.003 A 
ATOM     15  C   UNL     1      13.059  -6.996   3.169  0.00  0.00    +0.010 A 
ATOM     16  C   UNL     1      12.773  -7.510   4.402  0.00  0.00    +0.001 A 
ATOM     17  C   UNL     1      12.910  -6.727   5.540  0.00  0.00    +0.002 A 
ATOM     18  C   UNL     1      13.336  -5.420   5.448  0.00  0.00    +0.026 A 
ENDBRANCH   8   9
ENDBRANCH   7   8
ENDBRANCH   2   7
ENDBRANCH   1   3
BRANCH   1  19
ATOM     19  N   UNL     1       9.032  -1.635  -0.084  0.00  0.00    -0.303 N 
ATOM     20  C   UNL     1       8.475  -0.407  -0.074  0.00  0.00    +0.244 C 
ATOM     21  O   UNL     1       9.183   0.581  -0.076  0.00  0.00    -0.270 OA
ATOM     22  H   UNL     1       8.467  -2.424  -0.083  0.00  0.00    +0.150 HD
BRANCH  20  23
ATOM     23  C   UNL     1       7.007  -0.264  -0.060  0.00  0.00    +0.038 A 
ATOM     24  C   UNL     1       6.181  -1.397  -0.058  0.00  0.00    +0.015 A 
ATOM     25  C   UNL     1       4.830  -1.288  -0.046  0.00  0.00    +0.030 A 
ATOM     26  C   UNL     1       4.199  -0.018  -0.035  0.00  0.00    +0.081 A 
ATOM     27  C   UNL     1       5.055   1.111  -0.037  0.00  0.00    +0.042 A 
ATOM     28  C   UNL     1       6.419   1.005  -0.049  0.00  0.00    +0.030 A 
ATOM     29  S   UNL     1       3.898   2.459  -0.021  0.00  0.00    -0.049 S 
ATOM     30  C   UNL     1       2.408   1.473  -0.012  0.00  0.00    +0.178 A 
ATOM     31  N   UNL     1       2.884   0.249  -0.017  0.00  0.00    -0.222 NA
ATOM     32  N   UNL     1       1.084   1.893   0.002  0.00  0.00    -0.302 N 
ATOM     33  C   UNL     1      -0.013   1.076   0.008  0.00  0.00    +0.093 A 
ATOM     34  C   UNL     1      -1.115   1.851   0.017  0.00  0.00    +0.019 A 
ATOM     35  C   UNL     1      -0.688   3.196   0.026  0.00  0.00    +0.019 A 
ATOM     36  C   UNL     1       0.660   3.193   0.013  0.00  0.00    +0.093 A 
ENDBRANCH  20  23
ENDBRANCH   1  19
TORSDOF 6
