REMARK  Name = ZINC34772296
REMARK  6 active torsions:
REMARK  status: ('A' for Active; 'I' for Inactive)
REMARK    1  A    between atoms: C_1  and  C_2
REMARK    2  A    between atoms: C_2  and  C_3
REMARK    3  A    between atoms: C_6  and  N_9
REMARK    4  A    between atoms: C_14  and  C_26
REMARK    5  A    between atoms: C_17  and  C_22
REMARK    6  A    between atoms: C_17  and  C_23
REMARK                            x       y       z     vdW  Elec       q    Type
REMARK                         _______ _______ _______ _____ _____    ______ ____
ROOT
ATOM      1  N   UNL     1       2.437  -1.758   4.866  0.00  0.00    -0.210 N 
ATOM      2  C   UNL     1       3.796  -1.937   4.792  0.00  0.00    +0.229 C 
ATOM      3  O   UNL     1       4.555  -1.509   3.949  0.00  0.00    -0.275 OA
ATOM      4  C   UNL     1       4.120  -2.749   5.941  0.00  0.00    +0.077 C 
ATOM      5  C   UNL     1       5.277  -3.127   6.766  0.00  0.00    -0.026 C 
ATOM      6  N   UNL     1       4.672  -3.642   8.039  0.00  0.00    +0.395 N 
ATOM      7  C   UNL     1       3.191  -3.428   7.954  0.00  0.00    +0.045 C 
ATOM      8  C   UNL     1       3.096  -2.206   7.015  0.00  0.00    +0.086 C 
ATOM      9  C   UNL     1       1.922  -2.118   6.079  0.00  0.00    +0.229 C 
ATOM     10  O   UNL     1       0.758  -2.327   6.346  0.00  0.00    -0.275 OA
ATOM     11  C   UNL     1       2.499  -4.655   7.358  0.00  0.00    +0.002 C 
ATOM     12  H   UNL     1       4.871  -4.626   8.139  0.00  0.00    -0.083 HD
ATOM     13  H   UNL     1       5.047  -3.134   8.826  0.00  0.00    -0.083 HD
ENDROOT
BRANCH   5  14
ATOM     14  C   UNL     1       6.144  -1.925   7.039  0.00  0.00    -0.053 A 
ATOM     15  C   UNL     1       5.940  -1.174   8.156  0.00  0.00    +0.002 A 
ATOM     16  C   UNL     1       6.731  -0.060   8.425  0.00  0.00    +0.001 A 
ATOM     17  C   UNL     1       7.732   0.310   7.580  0.00  0.00    +0.008 A 
ATOM     18  C   UNL     1       7.972  -0.441   6.417  0.00  0.00    -0.018 A 
ATOM     19  C   UNL     1       7.171  -1.578   6.146  0.00  0.00    -0.016 A 
ATOM     20  C   UNL     1       7.416  -2.333   4.986  0.00  0.00    +0.009 A 
ATOM     21  C   UNL     1       8.420  -1.966   4.143  0.00  0.00    +0.001 A 
ATOM     22  C   UNL     1       9.212  -0.851   4.413  0.00  0.00    +0.001 A 
ATOM     23  C   UNL     1       8.995  -0.089   5.520  0.00  0.00    +0.008 A 
ENDBRANCH   5  14
BRANCH   1  27
ATOM     24  C   UNL     1       0.133  -0.258   1.733  0.00  0.00    -0.048 A 
ATOM     25  C   UNL     1       1.497  -0.413   1.573  0.00  0.00    +0.005 A 
ATOM     26  C   UNL     1       2.264  -0.909   2.609  0.00  0.00    +0.024 A 
ATOM     27  C   UNL     1       1.662  -1.253   3.813  0.00  0.00    +0.044 A 
ATOM     28  C   UNL     1       0.292  -1.096   3.970  0.00  0.00    +0.024 A 
ATOM     29  C   UNL     1      -0.468  -0.594   2.932  0.00  0.00    +0.005 A 
BRANCH  24  31
ATOM     30  C   UNL     1      -0.767   1.810   0.701  0.00  0.00    +0.009 C 
ATOM     31  C   UNL     1      -0.701   0.284   0.600  0.00  0.00    +0.032 C 
ENDBRANCH  24  31
ENDBRANCH   1  27
BRANCH   7  32
ATOM     32  C   UNL     1       2.620  -3.096   9.309  0.00  0.00    +0.346 C 
ATOM     33  O   UNL     1       3.350  -3.062  10.285  0.00  0.00    -0.248 OA
ATOM     34  O   UNL     1       1.430  -2.863   9.428  0.00  0.00    -0.248 OA
ENDBRANCH   7  32
TORSDOF 4
