REMARK  Name = ZINC12897759
REMARK  8 active torsions:
REMARK  status: ('A' for Active; 'I' for Inactive)
REMARK    1  A    between atoms: C_1  and  C_2
REMARK    2  A    between atoms: C_6  and  O_28
REMARK    3  A    between atoms: C_7  and  C_27
REMARK    4  A    between atoms: C_12  and  C_13
REMARK    5  A    between atoms: C_13  and  C_14
REMARK    6  A    between atoms: C_14  and  C_15
REMARK    7  A    between atoms: N_17  and  C_18
REMARK    8  A    between atoms: C_23  and  C_24
REMARK                            x       y       z     vdW  Elec       q    Type
REMARK                         _______ _______ _______ _____ _____    ______ ____
ROOT
ATOM      1  C   UNL     1       1.071   3.591   0.031  0.00  0.00    +0.052 C 
ENDROOT
BRANCH   1  13
ATOM      2  C   UNL     1       3.604   2.203   0.017  0.00  0.00    +0.045 C 
ATOM      3  C   UNL     1       2.307   1.436   0.021  0.00  0.00    -0.030 A 
ATOM      4  C   UNL     1       2.299  -0.028   0.018  0.00  0.00    +0.021 A 
ATOM      5  C   UNL     1       3.495  -0.755   0.011  0.00  0.00    +0.015 A 
ATOM      6  C   UNL     1       3.459  -2.120   0.009  0.00  0.00    +0.046 A 
ATOM      7  C   UNL     1       2.239  -2.794   0.012  0.00  0.00    +0.123 A 
ATOM      8  C   UNL     1       1.046  -2.090   0.019  0.00  0.00    +0.034 A 
ATOM      9  C   UNL     1       1.064  -0.703   0.022  0.00  0.00    +0.146 A 
ATOM     10  O   UNL     1      -0.087   0.002   0.029  0.00  0.00    -0.422 OA
ATOM     11  C   UNL     1      -0.087   1.344   0.032  0.00  0.00    +0.341 A 
ATOM     12  O   UNL     1      -1.150   1.938   0.032  0.00  0.00    -0.245 OA
ATOM     13  C   UNL     1       1.113   2.084   0.028  0.00  0.00    +0.041 A 
ATOM     14  C   UNL     1      -0.268  -2.829   0.024  0.00  0.00    +0.051 C 
BRANCH   7  15
ATOM     15  O   UNL     1       2.220  -4.151   0.009  0.00  0.00    -0.506 OA
ATOM     16  H   UNL     1       2.210  -4.542  -0.875  0.00  0.00    +0.292 HD
ENDBRANCH   7  15
ENDBRANCH   1  13
BRANCH   1  17
ATOM     17  C   UNL     1       1.064   4.098   1.474  0.00  0.00    +0.101 C 
BRANCH  17  18
ATOM     18  C   UNL     1       1.022   5.604   1.477  0.00  0.00    +0.218 C 
ATOM     19  O   UNL     1       1.001   6.213   0.428  0.00  0.00    -0.275 OA
ATOM     20  N   UNL     1       1.009   6.276   2.646  0.00  0.00    -0.285 N 
ATOM     21  H   UNL     1       0.961   5.790   3.484  0.00  0.00    +0.155 HD
BRANCH  20  22
ATOM     22  C   UNL     1       1.064   7.668   2.650  0.00  0.00    +0.046 A 
ATOM     23  C   UNL     1       0.434   8.394   1.648  0.00  0.00    +0.024 A 
ATOM     24  C   UNL     1       0.486   9.773   1.657  0.00  0.00    +0.002 A 
ATOM     25  C   UNL     1       1.174  10.443   2.656  0.00  0.00    +0.001 A 
ATOM     26  C   UNL     1       1.810   9.738   3.655  0.00  0.00    +0.015 A 
ATOM     27  C   UNL     1       1.762   8.342   3.663  0.00  0.00    +0.058 A 
BRANCH  27  28
ATOM     28  C   UNL     1       2.441   7.582   4.729  0.00  0.00    +0.243 C 
ATOM     29  O   UNL     1       2.481   6.368   4.679  0.00  0.00    -0.270 OA
ATOM     30  N   UNL     1       3.016   8.233   5.759  0.00  0.00    -0.325 N 
ATOM     31  H   UNL     1       2.984   9.202   5.799  0.00  0.00    +0.145 HD
ATOM     32  H   UNL     1       3.463   7.734   6.460  0.00  0.00    +0.145 HD
ENDBRANCH  27  28
ENDBRANCH  20  22
ENDBRANCH  17  18
ENDBRANCH   1  17
TORSDOF 6
