REMARK  Name = ZINC01747698
REMARK  6 active torsions:
REMARK  status: ('A' for Active; 'I' for Inactive)
REMARK    1  A    between atoms: C_1  and  C_2
REMARK    2  A    between atoms: C_7  and  C_8
REMARK    3  A    between atoms: C_7  and  N_52
REMARK    4  A    between atoms: C_9  and  O_30
REMARK    5  A    between atoms: C_15  and  C_26
REMARK    6  A    between atoms: C_16  and  C_19
REMARK                            x       y       z     vdW  Elec       q    Type
REMARK                         _______ _______ _______ _____ _____    ______ ____
ROOT
ATOM      1  C   UNL     1      -1.183  -0.727   0.009  0.00  0.00    +0.020 A 
ATOM      2  C   UNL     1      -1.146  -2.111   0.001  0.00  0.00    +0.122 A 
ATOM      3  C   UNL     1       0.071  -2.788  -0.014  0.00  0.00    +0.046 A 
ATOM      4  C   UNL     1       1.247  -2.092  -0.021  0.00  0.00    +0.019 A 
ATOM      5  C   UNL     1       1.226  -0.697  -0.013  0.00  0.00    +0.065 A 
ATOM      6  C   UNL     1       0.002  -0.004   0.002  0.00  0.00    +0.144 A 
ATOM      7  O   UNL     1      -0.016   1.343   0.009  0.00  0.00    -0.450 OA
ATOM      8  C   UNL     1       1.090   2.092   0.003  0.00  0.00    +0.219 A 
ATOM      9  C   UNL     1       2.337   1.553  -0.011  0.00  0.00    +0.078 A 
ATOM     10  C   UNL     1       2.474   0.087  -0.021  0.00  0.00    +0.201 A 
ATOM     11  O   UNL     1       3.567  -0.453  -0.034  0.00  0.00    -0.286 OA
ENDROOT
BRANCH   9  12
ATOM     12  C   UNL     1       3.537   2.425  -0.017  0.00  0.00    +0.008 A 
ATOM     13  C   UNL     1       4.095   2.838  -1.225  0.00  0.00    +0.010 A 
ATOM     14  C   UNL     1       5.208   3.654  -1.224  0.00  0.00    +0.001 A 
ATOM     15  C   UNL     1       5.777   4.052  -0.028  0.00  0.00    +0.001 A 
ATOM     16  C   UNL     1       5.231   3.642   1.174  0.00  0.00    +0.020 A 
ATOM     17  C   UNL     1       4.114   2.830   1.187  0.00  0.00    +0.049 A 
ATOM     18 CL   UNL     1       3.430   2.313   2.696  0.00  0.00    -0.083 Cl
ENDBRANCH   9  12
BRANCH   8  19
ATOM     19  C   UNL     1       0.949   3.592   0.012  0.00  0.00    +0.451 C 
ATOM     20  F   UNL     1       0.893   4.063  -1.304  0.00  0.00    -0.163 F 
ATOM     21  F   UNL     1      -0.226   3.946   0.684  0.00  0.00    -0.163 F 
ATOM     22  F   UNL     1       2.049   4.160   0.664  0.00  0.00    -0.163 F 
ENDBRANCH   8  19
BRANCH   2  23
ATOM     23  O   UNL     1      -2.307  -2.815   0.007  0.00  0.00    -0.506 OA
ATOM     24  H   UNL     1      -2.651  -3.014  -0.874  0.00  0.00    +0.292 HD
ENDBRANCH   2  23
BRANCH   1  25
ATOM     25  C   UNL     1      -2.507  -0.006   0.026  0.00  0.00    -0.036 C 
BRANCH  25  32
ATOM     26  C   UNL     1      -4.881   0.259  -5.167  0.00  0.00    +0.007 C 
ATOM     27  C   UNL     1      -4.563  -0.128  -3.721  0.00  0.00    -0.018 C 
ATOM     28  C   UNL     1      -4.715   1.098  -2.817  0.00  0.00    -0.016 C 
ATOM     29  C   UNL     1      -4.337   0.719  -1.384  0.00  0.00    -0.078 C 
ATOM     30  C   UNL     1      -2.790  -0.969  -2.177  0.00  0.00    -0.078 C 
ATOM     31  C   UNL     1      -3.123  -0.641  -3.635  0.00  0.00    -0.016 C 
ATOM     32  N   UNL     1      -2.933   0.257  -1.364  0.00  0.00    +0.383 N 
ATOM     33  H   UNL     1      -2.335   0.992  -1.762  0.00  0.00    -0.081 HD
ENDBRANCH  25  32
ENDBRANCH   1  25
TORSDOF 5
