REMARK  Name = ZINC01787803
REMARK  16 active torsions:
REMARK  status: ('A' for Active; 'I' for Inactive)
REMARK    1  A    between atoms: C_1  and  C_2
REMARK    2  A    between atoms: C_2  and  O_3
REMARK    3  A    between atoms: O_3  and  C_4
REMARK    4  A    between atoms: C_4  and  C_6
REMARK    5  A    between atoms: C_7  and  N_42
REMARK    6  A    between atoms: C_12  and  C_13
REMARK    7  A    between atoms: C_16  and  C_19
REMARK    8  A    between atoms: C_19  and  O_21
REMARK    9  A    between atoms: O_21  and  C_22
REMARK   10  A    between atoms: C_25  and  C_38
REMARK   11  A    between atoms: C_26  and  C_28
REMARK   12  A    between atoms: C_31  and  C_34
REMARK   13  A    between atoms: C_34  and  O_36
REMARK   14  A    between atoms: O_36  and  C_37
REMARK   15  A    between atoms: C_38  and  O_40
REMARK   16  A    between atoms: O_40  and  C_41
REMARK                            x       y       z     vdW  Elec       q    Type
REMARK                         _______ _______ _______ _____ _____    ______ ____
ROOT
ATOM      1  C   UNL     1       4.604  -0.228   0.461  0.00  0.00    +0.087 C 
ATOM      2  C   UNL     1       3.994   0.978   0.376  0.00  0.00    +0.115 C 
ATOM      3  N   UNL     1       2.649   1.145   0.031  0.00  0.00    -0.257 N 
ATOM      4  C   UNL     1       2.054   2.352  -0.051  0.00  0.00    +0.271 A 
ATOM      5  O   UNL     1       2.676   3.371   0.177  0.00  0.00    -0.266 OA
ATOM      6  C   UNL     1       0.632   2.404  -0.424  0.00  0.00    +0.079 A 
ATOM      7  C   UNL     1      -0.180   3.481  -0.576  0.00  0.00    +0.028 C 
ATOM      8  S   UNL     1       0.264   0.669  -0.630  0.00  0.00    -0.065 S 
ATOM      9  C   UNL     1       1.882   0.031  -0.242  0.00  0.00    +0.100 A 
ATOM     10  C   UNL     1       2.343  -1.247  -0.201  0.00  0.00    +0.079 C 
ATOM     11  C   UNL     1       3.795  -1.476   0.169  0.00  0.00    +0.099 C 
ENDROOT
BRANCH   7  12
ATOM     12  C   UNL     1      -1.619   3.290  -0.799  0.00  0.00    -0.024 A 
ATOM     13  C   UNL     1      -2.366   4.284  -1.445  0.00  0.00    +0.009 A 
ATOM     14  C   UNL     1      -3.703   4.103  -1.657  0.00  0.00    +0.015 A 
ATOM     15  C   UNL     1      -4.329   2.931  -1.220  0.00  0.00    +0.059 A 
ATOM     16  C   UNL     1      -3.585   1.941  -0.570  0.00  0.00    +0.015 A 
ATOM     17  C   UNL     1      -2.247   2.117  -0.362  0.00  0.00    +0.009 A 
BRANCH  15  18
ATOM     18  C   UNL     1      -5.775   2.739  -1.444  0.00  0.00    +0.339 C 
ATOM     19  O   UNL     1      -6.319   1.722  -1.064  0.00  0.00    -0.245 OA
BRANCH  18  20
ATOM     20  O   UNL     1      -6.492   3.693  -2.071  0.00  0.00    -0.464 OA
ATOM     21  C   UNL     1      -7.909   3.437  -2.257  0.00  0.00    +0.280 C 
ENDBRANCH  18  20
ENDBRANCH  15  18
ENDBRANCH   7  12
BRANCH  11  22
ATOM     22  C   UNL     1       4.461  -2.209  -0.967  0.00  0.00    -0.035 A 
ATOM     23  C   UNL     1       4.497  -1.640  -2.227  0.00  0.00    +0.005 A 
ATOM     24  C   UNL     1       5.110  -2.303  -3.270  0.00  0.00    +0.015 A 
ATOM     25  C   UNL     1       5.685  -3.557  -3.054  0.00  0.00    +0.059 A 
ATOM     26  C   UNL     1       5.640  -4.128  -1.781  0.00  0.00    +0.015 A 
ATOM     27  C   UNL     1       5.029  -3.452  -0.746  0.00  0.00    +0.005 A 
BRANCH  25  28
ATOM     28  C   UNL     1       6.337  -4.276  -4.167  0.00  0.00    +0.339 C 
ATOM     29  O   UNL     1       6.836  -5.367  -3.976  0.00  0.00    -0.245 OA
BRANCH  28  30
ATOM     30  O   UNL     1       6.379  -3.722  -5.394  0.00  0.00    -0.464 OA
ATOM     31  C   UNL     1       7.036  -4.485  -6.440  0.00  0.00    +0.280 C 
ENDBRANCH  28  30
ENDBRANCH  25  28
ENDBRANCH  11  22
BRANCH   2  32
ATOM     32  N   UNL     1       4.736   2.098   0.643  0.00  0.00    -0.344 N 
ATOM     33  H   UNL     1       5.641   2.172   0.302  0.00  0.00    +0.144 HD
ATOM     34  H   UNL     1       4.357   2.817   1.172  0.00  0.00    +0.144 HD
ENDBRANCH   2  32
BRANCH   1  35
ATOM     35  C   UNL     1       5.958  -0.320   0.815  0.00  0.00    +0.339 C 
ATOM     36  O   UNL     1       6.567   0.676   1.161  0.00  0.00    -0.245 OA
BRANCH  35  37
ATOM     37  O   UNL     1       6.588  -1.514   0.770  0.00  0.00    -0.462 OA
BRANCH  37  39
ATOM     38  C   UNL     1       8.505  -2.963   1.031  0.00  0.00    +0.048 C 
ATOM     39  C   UNL     1       7.967  -1.535   1.143  0.00  0.00    +0.229 C 
ENDBRANCH  37  39
ENDBRANCH  35  37
ENDBRANCH   1  35
BRANCH  10  40
ATOM     40  C   UNL     1       1.497  -2.327  -0.493  0.00  0.00    +0.338 C 
ATOM     41  O   UNL     1       0.333  -2.125  -0.789  0.00  0.00    -0.245 OA
BRANCH  40  42
ATOM     42  O   UNL     1       1.973  -3.590  -0.446  0.00  0.00    -0.465 OA
ATOM     43  C   UNL     1       1.056  -4.641  -0.756  0.00  0.00    +0.280 C 
ENDBRANCH  40  42
ENDBRANCH  10  40
TORSDOF 12
