REMARK  Name = ZINC10775442
REMARK  8 active torsions:
REMARK  status: ('A' for Active; 'I' for Inactive)
REMARK    1  A    between atoms: C_1  and  N_57
REMARK    2  A    between atoms: C_2  and  N_57
REMARK    3  A    between atoms: C_3  and  C_4
REMARK    4  A    between atoms: C_3  and  N_57
REMARK    5  A    between atoms: C_4  and  N_5
REMARK    6  A    between atoms: C_16  and  C_18
REMARK    7  A    between atoms: N_24  and  S_25
REMARK    8  A    between atoms: S_25  and  C_28
REMARK                            x       y       z     vdW  Elec       q    Type
REMARK                         _______ _______ _______ _____ _____    ______ ____
ROOT
ATOM      1  N   UNL     1       1.512   3.058  -2.787  0.00  0.00    -0.251 N 
ATOM      2  C   UNL     1       0.432   3.351  -3.604  0.00  0.00    +0.168 A 
ATOM      3  N   UNL     1      -0.843   3.121  -3.397  0.00  0.00    -0.221 NA
ATOM      4  C   UNL     1      -1.797   3.464  -4.290  0.00  0.00    +0.115 A 
ATOM      5  C   UNL     1      -3.197   3.275  -4.190  0.00  0.00    +0.150 A 
ATOM      6  C   UNL     1      -4.033   3.685  -5.198  0.00  0.00    +0.040 A 
ATOM      7  C   UNL     1      -3.542   4.297  -6.343  0.00  0.00    +0.004 A 
ATOM      8  C   UNL     1      -2.180   4.498  -6.473  0.00  0.00    +0.017 A 
ATOM      9  C   UNL     1      -1.335   4.089  -5.470  0.00  0.00    +0.044 A 
ATOM     10  S   UNL     1       0.421   4.145  -5.205  0.00  0.00    -0.052 S 
ATOM     11  F   UNL     1      -3.715   2.683  -3.092  0.00  0.00    -0.203 F 
ATOM     12  C   UNL     1       1.314   2.454  -1.598  0.00  0.00    +0.240 C 
ATOM     13  O   UNL     1       0.186   2.268  -1.194  0.00  0.00    -0.273 OA
ENDROOT
BRANCH  12  14
ATOM     14  C   UNL     1       2.493   2.011  -0.772  0.00  0.00    +0.166 C 
ATOM     15  C   UNL     1       2.519   2.786   0.549  0.00  0.00    +0.030 C 
ATOM     16  C   UNL     1       3.636   2.234   1.438  0.00  0.00    +0.003 C 
ATOM     17  C   UNL     1       3.363   0.760   1.748  0.00  0.00    +0.017 C 
ATOM     18  C   UNL     1       3.344  -0.036   0.444  0.00  0.00    +0.110 C 
ATOM     19  N   UNL     1       2.377   0.577  -0.477  0.00  0.00    -0.164 NA
BRANCH  19  20
ATOM     20  S   UNL     1       1.174  -0.331  -1.164  0.00  0.00    +0.068 S 
ATOM     21  O   UNL     1       1.648  -1.670  -1.204  0.00  0.00    -0.152 OA
ATOM     22  O   UNL     1       0.756   0.364  -2.331  0.00  0.00    -0.152 OA
BRANCH  20  23
ATOM     23  C   UNL     1      -0.192  -0.314  -0.051  0.00  0.00    +0.143 A 
ATOM     24  C   UNL     1      -1.312   0.449  -0.086  0.00  0.00    +0.036 A 
ATOM     25  C   UNL     1      -2.265   0.288   0.902  0.00  0.00    +0.010 A 
ATOM     26  C   UNL     1      -2.046  -0.621   1.884  0.00  0.00    +0.047 A 
ATOM     27  S   UNL     1      -0.457  -1.290   1.419  0.00  0.00    -0.077 S 
ENDBRANCH  20  23
ENDBRANCH  19  20
ENDBRANCH  12  14
BRANCH   1  28
ATOM     28  C   UNL     1       2.870   3.405  -3.215  0.00  0.00    +0.097 C 
BRANCH  28  29
ATOM     29  C   UNL     1       3.487   2.221  -3.963  0.00  0.00    -0.060 C 
BRANCH  29  32
ATOM     30  C   UNL     1       5.734   2.751  -3.234  0.00  0.00    -0.097 C 
ATOM     31  C   UNL     1       5.385   1.556  -5.311  0.00  0.00    -0.097 C 
ATOM     32  N   UNL     1       4.847   2.593  -4.406  0.00  0.00    +0.377 N 
ATOM     33  H   UNL     1       4.800   3.486  -4.911  0.00  0.00    -0.083 HD
ENDBRANCH  29  32
ENDBRANCH  28  29
ENDBRANCH   1  28
TORSDOF 6
