REMARK  Name = ZINC08767694
REMARK  11 active torsions:
REMARK  status: ('A' for Active; 'I' for Inactive)
REMARK    1  A    between atoms: C_1  and  C_2
REMARK    2  A    between atoms: C_13  and  O_15
REMARK    3  A    between atoms: O_15  and  C_16
REMARK    4  A    between atoms: C_16  and  C_18
REMARK    5  A    between atoms: C_18  and  C_19
REMARK    6  A    between atoms: C_19  and  C_20
REMARK    7  A    between atoms: N_22  and  C_23
REMARK    8  A    between atoms: C_23  and  C_24
REMARK    9  A    between atoms: C_24  and  C_25
REMARK   10  A    between atoms: C_28  and  O_31
REMARK   11  A    between atoms: C_40  and  C_41
REMARK                            x       y       z     vdW  Elec       q    Type
REMARK                         _______ _______ _______ _____ _____    ______ ____
ROOT
ATOM      1  C   UNL     1       2.427  -7.215  -7.398  0.00  0.00    +0.015 C 
ATOM      2  C   UNL     1       2.574  -7.359  -5.865  0.00  0.00    +0.008 C 
ATOM      3  C   UNL     1       1.209  -7.721  -5.337  0.00  0.00    +0.011 C 
ATOM      4  C   UNL     1       1.238  -8.360  -3.952  0.00  0.00    +0.005 C 
ATOM      5  C   UNL     1       2.154  -9.586  -4.005  0.00  0.00    +0.002 C 
ATOM      6  C   UNL     1       3.577  -9.098  -4.265  0.00  0.00    -0.003 C 
ATOM      7  C   UNL     1       3.670  -8.395  -5.615  0.00  0.00    +0.002 C 
ATOM      8  C   UNL     1       4.982  -7.566  -5.640  0.00  0.00    +0.008 C 
ATOM      9  C   UNL     1       4.594  -6.180  -5.090  0.00  0.00    +0.045 C 
ATOM     10  C   UNL     1       3.086  -6.012  -5.346  0.00  0.00    +0.183 C 
ATOM     11  C   UNL     1       4.041  -8.188  -3.131  0.00  0.00    +0.008 C 
ATOM     12  C   UNL     1       4.069  -8.978  -1.820  0.00  0.00    +0.032 C 
ATOM     13  C   UNL     1       2.715  -9.617  -1.587  0.00  0.00    -0.060 C 
ATOM     14  C   UNL     1       2.151  -9.445  -0.392  0.00  0.00    +0.046 C 
ATOM     15  C   UNL     1       0.871 -10.079  -0.068  0.00  0.00    +0.156 C 
ATOM     16  O   UNL     1       0.214  -9.725   0.892  0.00  0.00    -0.293 OA
ATOM     17  C   UNL     1       0.400 -11.193  -0.979  0.00  0.00    +0.080 C 
ATOM     18  C   UNL     1       0.621 -10.757  -2.425  0.00  0.00    +0.019 C 
ATOM     19  C   UNL     1       2.067 -10.380  -2.701  0.00  0.00    -0.007 C 
ATOM     20  C   UNL     1       2.844 -11.689  -2.890  0.00  0.00    +0.016 C 
ENDROOT
BRANCH  10  21
ATOM     21  O   UNL     1       2.397  -5.617  -4.134  0.00  0.00    -0.461 OA
BRANCH  21  22
ATOM     22  C   UNL     1       2.258  -4.301  -3.913  0.00  0.00    +0.308 C 
ATOM     23  O   UNL     1       2.699  -3.505  -4.708  0.00  0.00    -0.251 OA
BRANCH  22  24
ATOM     24  C   UNL     1       1.553  -3.814  -2.673  0.00  0.00    +0.130 C 
BRANCH  24  25
ATOM     25  C   UNL     1       1.532  -2.285  -2.665  0.00  0.00    +0.107 C 
BRANCH  25  26
ATOM     26  C   UNL     1       0.827  -1.799  -1.425  0.00  0.00    +0.214 C 
ATOM     27  O   UNL     1       0.384  -2.597  -0.627  0.00  0.00    -0.276 OA
ATOM     28  N   UNL     1       0.688  -0.476  -1.203  0.00  0.00    -0.315 N 
ATOM     29  H   UNL     1       1.042   0.162  -1.842  0.00  0.00    +0.149 HD
BRANCH  28  30
ATOM     30  C   UNL     1       0.002  -0.004   0.002  0.00  0.00    +0.109 C 
BRANCH  30  31
ATOM     31  C   UNL     1      -0.019   1.526   0.010  0.00  0.00    +0.054 C 
BRANCH  31  32
ATOM     32  C   UNL     1      -0.724   2.012   1.250  0.00  0.00    -0.046 A 
ATOM     33  C   UNL     1      -2.089   2.229   1.227  0.00  0.00    +0.007 A 
ATOM     34  C   UNL     1      -2.739   2.669   2.364  0.00  0.00    +0.045 A 
ATOM     35  C   UNL     1      -2.019   2.904   3.526  0.00  0.00    +0.117 A 
ATOM     36  C   UNL     1      -0.648   2.691   3.545  0.00  0.00    +0.045 A 
ATOM     37  C   UNL     1      -0.004   2.245   2.407  0.00  0.00    +0.007 A 
BRANCH  35  38
ATOM     38  O   UNL     1      -2.655   3.342   4.645  0.00  0.00    -0.507 OA
ATOM     39  H   UNL     1      -2.706   4.305   4.717  0.00  0.00    +0.292 HD
ENDBRANCH  35  38
ENDBRANCH  31  32
ENDBRANCH  30  31
ENDBRANCH  28  30
ENDBRANCH  25  26
ENDBRANCH  24  25
ENDBRANCH  22  24
ENDBRANCH  21  22
ENDBRANCH  10  21
TORSDOF 9
