REMARK  Name = ZINC67463039
REMARK  6 active torsions:
REMARK  status: ('A' for Active; 'I' for Inactive)
REMARK    1  A    between atoms: N_9  and  C_10
REMARK    2  A    between atoms: C_10  and  C_11
REMARK    3  A    between atoms: N_13  and  N_14
REMARK    4  A    between atoms: C_15  and  C_17
REMARK    5  A    between atoms: C_17  and  S_18
REMARK    6  A    between atoms: S_18  and  C_19
REMARK                            x       y       z     vdW  Elec       q    Type
REMARK                         _______ _______ _______ _____ _____    ______ ____
ROOT
ATOM      1  N   UNL     1       7.085   0.223   2.912  0.00  0.00    -0.234 N 
ATOM      2  C   UNL     1       8.372   0.544   3.146  0.00  0.00    +0.239 C 
ATOM      3  O   UNL     1       9.149   0.651   2.221  0.00  0.00    -0.273 OA
ATOM      4  H   UNL     1       6.463   0.138   3.652  0.00  0.00    +0.173 HD
ENDROOT
BRANCH   1   7
ATOM      5  C   UNL     1       5.356  -0.310   1.364  0.00  0.00    +0.249 C 
ATOM      6  O   UNL     1       4.579  -0.417   2.289  0.00  0.00    -0.272 OA
ATOM      7  N   UNL     1       6.644   0.012   1.599  0.00  0.00    -0.233 N 
ATOM      8  H   UNL     1       7.265   0.097   0.859  0.00  0.00    +0.173 HD
BRANCH   5   9
ATOM      9  C   UNL     1       4.881  -0.537  -0.048  0.00  0.00    +0.219 C 
BRANCH   9  18
ATOM     10  C   UNL     1      -0.017   1.362   0.009  0.00  0.00    +0.001 A 
ATOM     11  C   UNL     1       1.170   2.083   0.002  0.00  0.00    +0.002 A 
ATOM     12  C   UNL     1       2.386   1.436  -0.013  0.00  0.00    +0.026 A 
ATOM     13  C   UNL     1       2.428   0.046  -0.021  0.00  0.00    +0.049 A 
ATOM     14  C   UNL     1       1.223  -0.681  -0.013  0.00  0.00    -0.000 A 
ATOM     15  C   UNL     1       0.002  -0.004   0.002  0.00  0.00    +0.010 A 
ATOM     16  C   UNL     1       1.604  -2.095  -0.025  0.00  0.00    +0.027 A 
ATOM     17  C   UNL     1       2.945  -2.141  -0.038  0.00  0.00    +0.087 A 
ATOM     18  N   UNL     1       3.455  -0.871  -0.036  0.00  0.00    -0.338 N 
ENDBRANCH   9  18
ENDBRANCH   5   9
ENDBRANCH   1   7
BRANCH   2  19
ATOM     19  C   UNL     1       8.847   0.772   4.559  0.00  0.00    +0.176 C 
BRANCH  19  20
ATOM     20  S   UNL     1      10.613   1.185   4.544  0.00  0.00    -0.058 S 
BRANCH  20  21
ATOM     21  C   UNL     1      11.011   1.418   6.245  0.00  0.00    +0.258 A 
ATOM     22  N   UNL     1      10.165   1.295   7.237  0.00  0.00    -0.203 NA
ATOM     23  C   UNL     1      10.821   1.546   8.403  0.00  0.00    +0.110 A 
ATOM     24  C   UNL     1      10.432   1.560   9.743  0.00  0.00    +0.031 A 
ATOM     25  C   UNL     1      11.356   1.860  10.719  0.00  0.00    +0.002 A 
ATOM     26  C   UNL     1      12.668   2.148  10.378  0.00  0.00    +0.004 A 
ATOM     27  C   UNL     1      13.066   2.137   9.056  0.00  0.00    +0.048 A 
ATOM     28  C   UNL     1      12.150   1.837   8.062  0.00  0.00    +0.156 A 
ATOM     29  O   UNL     1      12.228   1.743   6.714  0.00  0.00    -0.431 OA
ENDBRANCH  20  21
ENDBRANCH  19  20
ENDBRANCH   2  19
TORSDOF 6
