REMARK  Name = ZINC18103500
REMARK  11 active torsions:
REMARK  status: ('A' for Active; 'I' for Inactive)
REMARK    1  A    between atoms: C_1  and  C_2
REMARK    2  A    between atoms: C_6  and  O_9
REMARK    3  A    between atoms: C_7  and  C_8
REMARK    4  A    between atoms: O_9  and  C_10
REMARK    5  A    between atoms: C_10  and  C_12
REMARK    6  A    between atoms: C_10  and  C_13
REMARK    7  A    between atoms: N_15  and  N_16
REMARK    8  A    between atoms: C_17  and  C_19
REMARK    9  A    between atoms: C_22  and  S_25
REMARK   10  A    between atoms: S_25  and  N_28
REMARK   11  A    between atoms: N_28  and  C_29
REMARK                            x       y       z     vdW  Elec       q    Type
REMARK                         _______ _______ _______ _____ _____    ______ ____
ROOT
ATOM      1  N   UNL     1       8.350  -0.230   0.744  0.00  0.00    -0.230 N 
ATOM      2  C   UNL     1       7.759  -1.393   1.081  0.00  0.00    +0.260 C 
ATOM      3  O   UNL     1       8.347  -2.192   1.783  0.00  0.00    -0.269 OA
ATOM      4  H   UNL     1       7.881   0.408   0.184  0.00  0.00    +0.173 HD
ENDROOT
BRANCH   2   5
ATOM      5  C   UNL     1       6.395  -1.696   0.598  0.00  0.00    +0.038 A 
ATOM      6  C   UNL     1       5.780  -2.900   0.945  0.00  0.00    +0.015 A 
ATOM      7  C   UNL     1       4.507  -3.177   0.491  0.00  0.00    +0.029 A 
ATOM      8  C   UNL     1       3.841  -2.265  -0.307  0.00  0.00    +0.109 A 
ATOM      9  C   UNL     1       4.447  -1.072  -0.659  0.00  0.00    +0.029 A 
ATOM     10  C   UNL     1       5.717  -0.780  -0.207  0.00  0.00    +0.015 A 
BRANCH   8  11
ATOM     11  S   UNL     1       2.215  -2.626  -0.882  0.00  0.00    +0.072 S 
ATOM     12  O   UNL     1       2.042  -4.031  -0.755  0.00  0.00    -0.150 OA
ATOM     13  O   UNL     1       2.063  -1.950  -2.123  0.00  0.00    -0.150 OA
BRANCH  11  14
ATOM     14  N   UNL     1       1.153  -1.921   0.175  0.00  0.00    -0.216 N 
ATOM     15  H   UNL     1       0.544  -1.233  -0.136  0.00  0.00    +0.174 HD
BRANCH  14  16
ATOM     16  C   UNL     1       1.134  -2.317   1.516  0.00  0.00    +0.048 A 
ATOM     17  C   UNL     1       1.105  -1.361   2.523  0.00  0.00    +0.027 A 
ATOM     18  C   UNL     1       1.087  -1.755   3.846  0.00  0.00    +0.040 A 
ATOM     19  C   UNL     1       1.098  -3.101   4.170  0.00  0.00    +0.124 A 
ATOM     20  C   UNL     1       1.127  -4.056   3.167  0.00  0.00    +0.040 A 
ATOM     21  C   UNL     1       1.145  -3.667   1.842  0.00  0.00    +0.027 A 
ATOM     22  F   UNL     1       1.080  -3.484   5.465  0.00  0.00    -0.205 F 
ENDBRANCH  14  16
ENDBRANCH  11  14
ENDBRANCH   8  11
ENDBRANCH   2   5
BRANCH   1  25
ATOM     23  C   UNL     1      10.234   1.222   0.865  0.00  0.00    +0.270 C 
ATOM     24  O   UNL     1       9.647   2.019   0.165  0.00  0.00    -0.270 OA
ATOM     25  N   UNL     1       9.643   0.058   1.202  0.00  0.00    -0.231 N 
ATOM     26  H   UNL     1      10.112  -0.580   1.762  0.00  0.00    +0.173 HD
BRANCH  23  27
ATOM     27  C   UNL     1      11.624   1.531   1.358  0.00  0.00    +0.257 C 
ATOM     28  C   UNL     1      11.632   1.542   2.888  0.00  0.00    +0.062 C 
BRANCH  27  29
ATOM     29  O   UNL     1      12.028   2.812   0.870  0.00  0.00    -0.480 OA
BRANCH  29  35
ATOM     30  C   UNL     1      15.688   5.894  -0.092  0.00  0.00    +0.044 C 
ATOM     31  C   UNL     1      15.185   4.536   0.326  0.00  0.00    -0.044 A 
ATOM     32  C   UNL     1      16.083   3.529   0.627  0.00  0.00    +0.004 A 
ATOM     33  C   UNL     1      15.625   2.283   1.010  0.00  0.00    +0.004 A 
ATOM     34  C   UNL     1      14.267   2.042   1.098  0.00  0.00    +0.046 A 
ATOM     35  C   UNL     1      13.364   3.048   0.790  0.00  0.00    +0.125 A 
ATOM     36  C   UNL     1      13.827   4.299   0.406  0.00  0.00    -0.006 A 
ATOM     37  C   UNL     1      12.848   5.396   0.076  0.00  0.00    +0.048 C 
ENDBRANCH  29  35
ENDBRANCH  27  29
ENDBRANCH  23  27
ENDBRANCH   1  25
TORSDOF 8
