REMARK  Name = ZINC22883607
REMARK  11 active torsions:
REMARK  status: ('A' for Active; 'I' for Inactive)
REMARK    1  A    between atoms: C_1  and  C_2
REMARK    2  A    between atoms: C_4  and  O_9
REMARK    3  A    between atoms: O_9  and  C_10
REMARK    4  A    between atoms: C_10  and  C_11
REMARK    5  A    between atoms: C_14  and  C_17
REMARK    6  A    between atoms: N_19  and  N_20
REMARK    7  A    between atoms: C_21  and  C_23
REMARK    8  A    between atoms: C_23  and  C_24
REMARK    9  A    between atoms: C_24  and  C_26
REMARK   10  A    between atoms: C_24  and  N_27
REMARK   11  A    between atoms: C_28  and  C_30
REMARK                            x       y       z     vdW  Elec       q    Type
REMARK                         _______ _______ _______ _____ _____    ______ ____
ROOT
ATOM      1  C   UNL     1       3.166   5.189  -0.000  0.00  0.00    +0.260 C 
ATOM      2  O   UNL     1       2.232   5.966   0.013  0.00  0.00    -0.269 OA
ATOM      3  N   UNL     1       2.938   3.861  -0.005  0.00  0.00    -0.230 N 
ATOM      4  H   UNL     1       3.783   3.157  -0.017  0.00  0.00    +0.173 HD
ENDROOT
BRANCH   1   8
ATOM      5  C   UNL     1       7.151   6.659  -0.030  0.00  0.00    -0.010 A 
ATOM      6  C   UNL     1       6.090   7.546  -0.015  0.00  0.00    +0.008 A 
ATOM      7  C   UNL     1       4.793   7.076  -0.006  0.00  0.00    +0.013 A 
ATOM      8  C   UNL     1       4.553   5.701  -0.011  0.00  0.00    +0.038 A 
ATOM      9  C   UNL     1       5.628   4.811  -0.020  0.00  0.00    +0.013 A 
ATOM     10  C   UNL     1       6.920   5.295  -0.035  0.00  0.00    +0.008 A 
BRANCH   5  11
ATOM     11  C   UNL     1       8.565   7.181  -0.041  0.00  0.00    +0.264 C 
BRANCH  11  12
ATOM     12  O   UNL     1       9.025   7.339   1.302  0.00  0.00    -0.487 OA
BRANCH  12  16
ATOM     13  C   UNL     1      12.644   8.648   4.304  0.00  0.00    +0.045 C 
ATOM     14  C   UNL     1      12.089   8.454   2.917  0.00  0.00    -0.029 A 
ATOM     15  C   UNL     1      10.802   7.982   2.748  0.00  0.00    +0.050 A 
ATOM     16  C   UNL     1      10.291   7.804   1.471  0.00  0.00    +0.121 A 
ATOM     17  C   UNL     1      11.076   8.097   0.365  0.00  0.00    +0.047 A 
ATOM     18  C   UNL     1      12.360   8.575   0.538  0.00  0.00    +0.024 A 
ATOM     19  C   UNL     1      12.868   8.751   1.813  0.00  0.00    +0.044 A 
ATOM     20 CL   UNL     1      14.485   9.345   2.027  0.00  0.00    -0.083 Cl
ENDBRANCH  12  16
ENDBRANCH  11  12
ENDBRANCH   5  11
ENDBRANCH   1   8
BRANCH   3  21
ATOM     21  N   UNL     1       1.623   3.376   0.005  0.00  0.00    -0.234 N 
ATOM     22  C   UNL     1       1.395   2.047  -0.000  0.00  0.00    +0.231 C 
ATOM     23  O   UNL     1       2.328   1.272  -0.013  0.00  0.00    -0.274 OA
ATOM     24  H   UNL     1       0.778   4.079   0.017  0.00  0.00    +0.173 HD
BRANCH  22  25
ATOM     25  C   UNL     1      -0.019   1.526   0.010  0.00  0.00    +0.119 C 
BRANCH  25  26
ATOM     26  C   UNL     1       0.002  -0.004   0.002  0.00  0.00    +0.079 C 
ATOM     27  C   UNL     1      -1.427  -0.534   0.139  0.00  0.00    +0.028 C 
BRANCH  26  28
ATOM     28  N   UNL     1       0.580  -0.478  -1.258  0.00  0.00    -0.308 N 
ATOM     29  C   UNL     1       1.163  -1.692  -1.318  0.00  0.00    +0.244 C 
ATOM     30  O   UNL     1       1.209  -2.393  -0.326  0.00  0.00    -0.270 OA
ATOM     31  H   UNL     1       0.539   0.157  -2.155  0.00  0.00    +0.149 HD
BRANCH  29  32
ATOM     32  C   UNL     1       1.747  -2.170  -2.589  0.00  0.00    +0.037 A 
ATOM     33  C   UNL     1       1.691  -1.369  -3.731  0.00  0.00    +0.013 A 
ATOM     34  C   UNL     1       2.242  -1.818  -4.913  0.00  0.00    +0.001 A 
ATOM     35  C   UNL     1       2.839  -3.065  -4.971  0.00  0.00    +0.000 A 
ATOM     36  C   UNL     1       2.893  -3.866  -3.844  0.00  0.00    +0.001 A 
ATOM     37  C   UNL     1       2.351  -3.426  -2.655  0.00  0.00    +0.013 A 
ENDBRANCH  29  32
ENDBRANCH  26  28
ENDBRANCH  25  26
ENDBRANCH  22  25
ENDBRANCH   3  21
TORSDOF 9
