REMARK  Name = ZINC32985157
REMARK  7 active torsions:
REMARK  status: ('A' for Active; 'I' for Inactive)
REMARK    1  A    between atoms: C_1  and  C_2
REMARK    2  A    between atoms: C_6  and  N_9
REMARK    3  A    between atoms: C_7  and  C_8
REMARK    4  A    between atoms: C_17  and  C_35
REMARK    5  A    between atoms: C_20  and  N_25
REMARK    6  A    between atoms: N_25  and  S_26
REMARK    7  A    between atoms: S_26  and  C_29
REMARK                            x       y       z     vdW  Elec       q    Type
REMARK                         _______ _______ _______ _____ _____    ______ ____
ROOT
ATOM      1  N   UNL     1      -0.656  -3.933   1.882  0.00  0.00    -0.327 N 
ATOM      2  C   UNL     1      -1.856  -4.199   2.688  0.00  0.00    +0.124 C 
ATOM      3  C   UNL     1      -1.839  -5.670   3.122  0.00  0.00    +0.125 C 
ATOM      4  N   UNL     1      -0.519  -5.976   3.693  0.00  0.00    -0.312 N 
ATOM      5  C   UNL     1       0.680  -5.710   2.887  0.00  0.00    +0.125 C 
ATOM      6  C   UNL     1       0.663  -4.245   2.451  0.00  0.00    +0.124 C 
ATOM      7  C   UNL     1      -0.408  -6.506   4.972  0.00  0.00    +0.123 A 
ATOM      8  C   UNL     1      -1.578  -6.819   5.677  0.00  0.00    +0.059 A 
ATOM      9  C   UNL     1      -1.481  -7.351   6.957  0.00  0.00    +0.076 A 
ATOM     10  C   UNL     1      -0.135  -7.554   7.499  0.00  0.00    +0.016 A 
ATOM     11  C   UNL     1       0.063  -8.083   8.777  0.00  0.00    +0.035 A 
ATOM     12  C   UNL     1       1.349  -8.257   9.247  0.00  0.00    +0.049 A 
ATOM     13  C   UNL     1       2.449  -7.908   8.454  0.00  0.00    +0.026 A 
ATOM     14  C   UNL     1       2.277  -7.392   7.208  0.00  0.00    +0.030 A 
ATOM     15  C   UNL     1       0.980  -7.202   6.698  0.00  0.00    +0.074 A 
ATOM     16  N   UNL     1       0.789  -6.701   5.475  0.00  0.00    -0.232 NA
ENDROOT
BRANCH   1  22
ATOM     17  C   UNL     1      -0.859  -0.006  -1.066  0.00  0.00    +0.044 C 
ATOM     18  C   UNL     1      -0.869  -1.500  -0.863  0.00  0.00    -0.046 A 
ATOM     19  C   UNL     1      -0.989  -2.344  -1.952  0.00  0.00    +0.004 A 
ATOM     20  C   UNL     1      -1.000  -3.714  -1.770  0.00  0.00    +0.002 A 
ATOM     21  C   UNL     1      -0.889  -4.245  -0.500  0.00  0.00    +0.023 A 
ATOM     22  C   UNL     1      -0.768  -3.400   0.596  0.00  0.00    +0.033 A 
ATOM     23  C   UNL     1      -0.753  -2.024   0.409  0.00  0.00    -0.027 A 
ATOM     24  C   UNL     1      -0.616  -1.103   1.595  0.00  0.00    +0.046 C 
ENDBRANCH   1  22
BRANCH   9  25
ATOM     25  C   UNL     1      -2.684  -7.695   7.739  0.00  0.00    +0.387 C 
ATOM     26  O   UNL     1      -3.793  -7.583   7.236  0.00  0.00    -0.241 OA
ATOM     27  O   UNL     1      -2.572  -8.094   8.890  0.00  0.00    -0.241 OA
ENDBRANCH   9  25
BRANCH  12  28
ATOM     28  N   UNL     1       1.555  -8.784  10.522  0.00  0.00    -0.216 N 
ATOM     29  H   UNL     1       1.027  -8.464  11.271  0.00  0.00    +0.174 HD
BRANCH  28  30
ATOM     30  S   UNL     1       2.700  -9.957  10.759  0.00  0.00    +0.072 S 
ATOM     31  O   UNL     1       3.912  -9.459  10.207  0.00  0.00    -0.150 OA
ATOM     32  O   UNL     1       2.591 -10.363  12.116  0.00  0.00    -0.150 OA
BRANCH  30  33
ATOM     33  C   UNL     1       2.235 -11.345   9.779  0.00  0.00    +0.108 A 
ATOM     34  C   UNL     1       1.323 -12.262  10.268  0.00  0.00    +0.029 A 
ATOM     35  C   UNL     1       0.958 -13.351   9.499  0.00  0.00    +0.002 A 
ATOM     36  C   UNL     1       1.504 -13.523   8.241  0.00  0.00    +0.000 A 
ATOM     37  C   UNL     1       2.414 -12.606   7.751  0.00  0.00    +0.002 A 
ATOM     38  C   UNL     1       2.776 -11.514   8.518  0.00  0.00    +0.029 A 
ENDBRANCH  30  33
ENDBRANCH  28  30
ENDBRANCH  12  28
TORSDOF 5
