REMARK  Name = ZINC39574956
REMARK  10 active torsions:
REMARK  status: ('A' for Active; 'I' for Inactive)
REMARK    1  A    between atoms: C_1  and  C_2
REMARK    2  A    between atoms: C_3  and  C_30
REMARK    3  A    between atoms: C_4  and  C_16
REMARK    4  A    between atoms: C_10  and  C_14
REMARK    5  A    between atoms: C_10  and  C_15
REMARK    6  A    between atoms: C_21  and  C_22
REMARK    7  A    between atoms: C_25  and  O_28
REMARK    8  A    between atoms: O_28  and  C_29
REMARK    9  A    between atoms: C_30  and  O_32
REMARK   10  A    between atoms: O_32  and  C_33
REMARK                            x       y       z     vdW  Elec       q    Type
REMARK                         _______ _______ _______ _____ _____    ______ ____
ROOT
ATOM      1  C   UNL     1       0.583   1.476  -0.074  0.00  0.00    +0.061 C 
ATOM      2  C   UNL     1       0.372  -0.015  -0.006  0.00  0.00    +0.015 C 
ATOM      3  C   UNL     1      -0.875  -0.514  -0.038  0.00  0.00    +0.062 C 
ATOM      4  C   UNL     1      -1.124  -1.993   0.019  0.00  0.00    +0.077 C 
ATOM      5  C   UNL     1       0.090  -2.726   0.534  0.00  0.00    +0.021 C 
ATOM      6  C   UNL     1       1.303  -2.134   0.537  0.00  0.00    +0.016 C 
ATOM      7  N   UNL     1       1.451  -0.850   0.081  0.00  0.00    -0.321 N 
ATOM      8  C   UNL     1       2.524  -2.867   1.034  0.00  0.00    +0.058 C 
ATOM      9  C   UNL     1       2.119  -3.858   2.128  0.00  0.00    -0.023 C 
ATOM     10  C   UNL     1       1.084  -4.827   1.548  0.00  0.00    +0.086 C 
ATOM     11  C   UNL     1      -0.079  -4.038   1.010  0.00  0.00    +0.162 C 
ATOM     12  O   UNL     1      -1.183  -4.544   0.987  0.00  0.00    -0.292 OA
ATOM     13  C   UNL     1       1.508  -3.099   3.308  0.00  0.00    +0.011 C 
ATOM     14  C   UNL     1       3.349  -4.638   2.596  0.00  0.00    +0.011 C 
ATOM     15  H   UNL     1       2.328  -0.530  -0.181  0.00  0.00    +0.152 HD
ENDROOT
BRANCH   4  16
ATOM     16  C   UNL     1      -1.458  -2.501  -1.385  0.00  0.00    +0.095 C 
ATOM     17  C   UNL     1      -0.214  -2.536  -2.250  0.00  0.00    +0.118 C 
ATOM     18  N   UNL     1      -0.044  -3.774  -2.585  0.00  0.00    -0.161 NA
ATOM     19  N   UNL     1      -1.023  -4.608  -2.055  0.00  0.00    -0.153 NA
ATOM     20  C   UNL     1      -1.899  -3.951  -1.338  0.00  0.00    +0.080 C 
BRANCH  20  21
ATOM     21  C   UNL     1      -3.065  -4.500  -0.632  0.00  0.00    -0.001 A 
ATOM     22  C   UNL     1      -3.975  -3.642  -0.004  0.00  0.00    +0.013 A 
ATOM     23  C   UNL     1      -5.066  -4.162   0.655  0.00  0.00    +0.046 A 
ATOM     24  C   UNL     1      -5.265  -5.537   0.698  0.00  0.00    +0.120 A 
ATOM     25  C   UNL     1      -4.364  -6.394   0.076  0.00  0.00    +0.046 A 
ATOM     26  C   UNL     1      -3.273  -5.884  -0.590  0.00  0.00    +0.013 A 
BRANCH  24  27
ATOM     27  O   UNL     1      -6.342  -6.045   1.350  0.00  0.00    -0.495 OA
ATOM     28  C   UNL     1      -6.486  -7.467   1.355  0.00  0.00    +0.277 C 
ENDBRANCH  24  27
ENDBRANCH  20  21
ENDBRANCH   4  16
BRANCH   3  29
ATOM     29  C   UNL     1      -1.975   0.371  -0.126  0.00  0.00    +0.337 C 
ATOM     30  O   UNL     1      -1.795   1.573  -0.068  0.00  0.00    -0.245 OA
BRANCH  29  31
ATOM     31  O   UNL     1      -3.224  -0.118  -0.274  0.00  0.00    -0.465 OA
ATOM     32  C   UNL     1      -4.298   0.825  -0.243  0.00  0.00    +0.280 C 
ENDBRANCH  29  31
ENDBRANCH   3  29
TORSDOF 5
