REMARK  Name = ZINC38752281
REMARK  6 active torsions:
REMARK  status: ('A' for Active; 'I' for Inactive)
REMARK    1  A    between atoms: C_1  and  O_2
REMARK    2  A    between atoms: O_2  and  C_3
REMARK    3  A    between atoms: C_5  and  C_10
REMARK    4  A    between atoms: C_8  and  O_9
REMARK    5  A    between atoms: C_25  and  N_29
REMARK    6  A    between atoms: C_26  and  C_27
REMARK                            x       y       z     vdW  Elec       q    Type
REMARK                         _______ _______ _______ _____ _____    ______ ____
ROOT
ATOM      1  C   UNL     1       2.462   0.334   4.204  0.00  0.00    +0.084 C 
ATOM      2  C   UNL     1       3.962   0.032   4.274  0.00  0.00    +0.154 C 
ATOM      3  C   UNL     1       4.419   0.572   5.619  0.00  0.00    +0.129 C 
ATOM      4  C   UNL     1       5.407   1.546   5.630  0.00  0.00    +0.035 A 
ATOM      5  C   UNL     1       5.896   2.081   6.839  0.00  0.00    +0.013 A 
ATOM      6  C   UNL     1       6.870   3.030   6.809  0.00  0.00    +0.001 A 
ATOM      7  C   UNL     1       7.397   3.488   5.605  0.00  0.00    +0.002 A 
ATOM      8  C   UNL     1       6.964   3.011   4.404  0.00  0.00    +0.024 A 
ATOM      9  C   UNL     1       5.959   2.031   4.359  0.00  0.00    +0.044 A 
ATOM     10  N   UNL     1       5.528   1.569   3.179  0.00  0.00    -0.284 N 
ATOM     11  C   UNL     1       4.597   0.625   3.036  0.00  0.00    +0.229 C 
ATOM     12  O   UNL     1       4.251   0.245   1.933  0.00  0.00    -0.275 OA
ATOM     13  O   UNL     1       3.842   0.099   6.726  0.00  0.00    -0.444 OA
ATOM     14  C   UNL     1       2.503  -0.097   6.675  0.00  0.00    +0.198 C 
ATOM     15  C   UNL     1       1.814  -0.008   5.518  0.00  0.00    +0.095 C 
ATOM     16  H   UNL     1       5.921   1.939   2.373  0.00  0.00    +0.155 HD
ENDROOT
BRANCH   1  19
ATOM     17  C   UNL     1       0.626  -0.619   1.042  0.00  0.00    +0.162 A 
ATOM     18  C   UNL     1       1.202   0.137   2.051  0.00  0.00    +0.053 A 
ATOM     19  C   UNL     1       1.836  -0.490   3.108  0.00  0.00    -0.034 A 
ATOM     20  C   UNL     1       1.897  -1.870   3.161  0.00  0.00    +0.008 A 
ATOM     21  C   UNL     1       1.325  -2.630   2.158  0.00  0.00    +0.049 A 
ATOM     22  C   UNL     1       0.683  -2.008   1.099  0.00  0.00    +0.158 A 
BRANCH  17  24
ATOM     23  C   UNL     1      -0.017   1.425   0.010  0.00  0.00    +0.277 C 
ATOM     24  O   UNL     1       0.002  -0.004   0.002  0.00  0.00    -0.491 OA
ENDBRANCH  17  24
BRANCH  22  25
ATOM     25  O   UNL     1       0.115  -2.754   0.114  0.00  0.00    -0.503 OA
ATOM     26  H   UNL     1       0.711  -2.957  -0.620  0.00  0.00    +0.292 HD
ENDBRANCH  22  25
ENDBRANCH   1  19
BRANCH  14  27
ATOM     27  N   UNL     1       1.829  -0.396   7.833  0.00  0.00    -0.328 N 
ATOM     28  H   UNL     1       2.311  -0.464   8.671  0.00  0.00    +0.145 HD
ATOM     29  H   UNL     1       0.869  -0.538   7.812  0.00  0.00    +0.145 HD
ENDBRANCH  14  27
BRANCH  15  30
ATOM     30  C   UNL     1       0.402  -0.247   5.543  0.00  0.00    +0.100 C 
ATOM     31  N   UNL     1      -0.718  -0.437   5.563  0.00  0.00    -0.191 NA
ENDBRANCH  15  30
TORSDOF 5
