REMARK  Name = ZINC36369499
REMARK  9 active torsions:
REMARK  status: ('A' for Active; 'I' for Inactive)
REMARK    1  A    between atoms: C_1  and  C_2
REMARK    2  A    between atoms: C_8  and  C_43
REMARK    3  A    between atoms: C_9  and  O_42
REMARK    4  A    between atoms: C_19  and  C_21
REMARK    5  A    between atoms: C_21  and  N_22
REMARK    6  A    between atoms: N_25  and  C_28
REMARK    7  A    between atoms: C_28  and  C_29
REMARK    8  A    between atoms: C_28  and  C_35
REMARK    9  A    between atoms: C_28  and  O_41
REMARK                            x       y       z     vdW  Elec       q    Type
REMARK                         _______ _______ _______ _____ _____    ______ ____
ROOT
ATOM      1  N   UNL     1       1.913   0.355   7.144  0.00  0.00    +0.382 N 
ATOM      2  C   UNL     1       2.052   1.498   6.231  0.00  0.00    -0.063 C 
ATOM      3  C   UNL     1       2.945   2.560   6.875  0.00  0.00    +0.069 C 
ATOM      4  N   UNL     1       2.346   2.995   8.145  0.00  0.00    -0.271 NA
ATOM      5  C   UNL     1       2.177   1.858   9.060  0.00  0.00    +0.069 C 
ATOM      6  C   UNL     1       1.290   0.801   8.397  0.00  0.00    -0.063 C 
ATOM      7  H   UNL     1       2.824  -0.031   7.340  0.00  0.00    -0.082 HD
ENDROOT
BRANCH   1   8
ATOM      8  C   UNL     1       1.070  -0.672   6.517  0.00  0.00    -0.064 C 
BRANCH   8  23
ATOM      9  C   UNL     1      -0.005  -0.018   0.609  0.00  0.00    +0.008 C 
ATOM     10  C   UNL     1       0.247  -1.518   0.784  0.00  0.00    -0.001 C 
ATOM     11  C   UNL     1       0.944  -2.052  -0.467  0.00  0.00    +0.008 C 
ATOM     12  C   UNL     1       1.105  -3.568  -0.314  0.00  0.00    +0.027 C 
ATOM     13  C   UNL     1       1.861  -3.842   0.955  0.00  0.00    -0.027 C 
ATOM     14  C   UNL     1       1.859  -3.034   1.973  0.00  0.00    -0.061 C 
ATOM     15  C   UNL     1       1.111  -1.732   2.024  0.00  0.00    +0.018 C 
ATOM     16  C   UNL     1       0.232  -1.711   3.271  0.00  0.00    +0.132 C 
ATOM     17  C   UNL     1       0.868  -2.211   4.533  0.00  0.00    +0.071 C 
ATOM     18  C   UNL     1       1.720  -3.483   4.414  0.00  0.00    +0.187 C 
ATOM     19  C   UNL     1       2.654  -3.423   3.202  0.00  0.00    +0.076 C 
ATOM     20  O   UNL     1       2.583  -3.385   5.582  0.00  0.00    -0.460 OA
ATOM     21  C   UNL     1       2.961  -2.093   5.692  0.00  0.00    +0.309 C 
ATOM     22  O   UNL     1       4.039  -1.693   6.056  0.00  0.00    -0.251 OA
ATOM     23  C   UNL     1       1.779  -1.227   5.274  0.00  0.00    +0.090 C 
ATOM     24  C   UNL     1       2.120  -0.580   2.080  0.00  0.00    +0.018 C 
BRANCH  16  25
ATOM     25  O   UNL     1      -0.945  -2.494   3.029  0.00  0.00    -0.391 OA
ATOM     26  H   UNL     1      -1.555  -2.529   3.779  0.00  0.00    +0.210 HD
ENDBRANCH  16  25
ENDBRANCH   8  23
ENDBRANCH   1   8
BRANCH   4  27
ATOM     27  C   UNL     1       3.146   4.058   8.768  0.00  0.00    +0.172 C 
BRANCH  27  28
ATOM     28  C   UNL     1       3.249   5.228   7.824  0.00  0.00    +0.003 A 
ATOM     29  C   UNL     1       2.196   5.531   6.981  0.00  0.00    +0.008 A 
ATOM     30  C   UNL     1       2.291   6.605   6.115  0.00  0.00    +0.000 A 
ATOM     31  C   UNL     1       3.438   7.375   6.093  0.00  0.00    +0.000 A 
ATOM     32  C   UNL     1       4.491   7.073   6.936  0.00  0.00    +0.000 A 
ATOM     33  C   UNL     1       4.394   6.002   7.805  0.00  0.00    +0.008 A 
ENDBRANCH  27  28
BRANCH  27  34
ATOM     34  C   UNL     1       2.484   4.501  10.047  0.00  0.00    +0.003 A 
ATOM     35  C   UNL     1       1.106   4.486  10.153  0.00  0.00    +0.008 A 
ATOM     36  C   UNL     1       0.498   4.893  11.326  0.00  0.00    +0.000 A 
ATOM     37  C   UNL     1       1.269   5.314  12.394  0.00  0.00    +0.000 A 
ATOM     38  C   UNL     1       2.647   5.328  12.288  0.00  0.00    +0.000 A 
ATOM     39  C   UNL     1       3.255   4.918  11.116  0.00  0.00    +0.008 A 
ENDBRANCH  27  34
BRANCH  27  40
ATOM     40  O   UNL     1       4.455   3.562   9.056  0.00  0.00    -0.366 OA
ATOM     41  H   UNL     1       4.465   2.806   9.659  0.00  0.00    +0.212 HD
ENDBRANCH  27  40
ENDBRANCH   4  27
TORSDOF 7
