REMARK  Name = ZINC64428732
REMARK  8 active torsions:
REMARK  status: ('A' for Active; 'I' for Inactive)
REMARK    1  A    between atoms: C_1  and  C_2
REMARK    2  A    between atoms: C_2  and  O_3
REMARK    3  A    between atoms: O_3  and  C_4
REMARK    4  A    between atoms: C_4  and  C_6
REMARK    5  A    between atoms: C_6  and  C_12
REMARK    6  A    between atoms: C_12  and  C_14
REMARK    7  A    between atoms: C_14  and  S_15
REMARK    8  A    between atoms: S_15  and  C_16
REMARK                            x       y       z     vdW  Elec       q    Type
REMARK                         _______ _______ _______ _____ _____    ______ ____
ROOT
ATOM      1  C   UNL     1      -3.391  -2.524   1.431  0.00  0.00    +0.198 C 
ATOM      2  O   UNL     1      -3.194  -3.526   2.076  0.00  0.00    -0.292 OA
ENDROOT
BRANCH   1   3
ATOM      3  C   UNL     1      -2.881  -2.427   0.017  0.00  0.00    +0.267 C 
ATOM      4  C   UNL     1      -2.861  -3.828  -0.639  0.00  0.00    +0.079 C 
ATOM      5  C   UNL     1      -4.173  -3.780  -1.472  0.00  0.00    +0.125 C 
ATOM      6  C   UNL     1      -4.225  -2.300  -1.839  0.00  0.00    +0.309 C 
ATOM      7  O   UNL     1      -4.603  -1.829  -2.886  0.00  0.00    -0.251 OA
ATOM      8  O   UNL     1      -3.767  -1.622  -0.770  0.00  0.00    -0.439 OA
BRANCH   3   9
ATOM      9  C   UNL     1      -1.496  -1.832   0.006  0.00  0.00    +0.359 C 
ATOM     10  O   UNL     1      -0.528  -2.555  -0.007  0.00  0.00    -0.246 OA
BRANCH   9  11
ATOM     11  O   UNL     1      -1.339  -0.499   0.012  0.00  0.00    -0.462 OA
BRANCH  11  13
ATOM     12  C   UNL     1      -0.019   1.526   0.010  0.00  0.00    +0.048 C 
ATOM     13  C   UNL     1       0.002  -0.004   0.002  0.00  0.00    +0.229 C 
ENDBRANCH  11  13
ENDBRANCH   9  11
ENDBRANCH   3   9
ENDBRANCH   1   3
BRANCH   1  14
ATOM     14  C   UNL     1      -4.146  -1.372   2.042  0.00  0.00    +0.152 C 
BRANCH  14  15
ATOM     15  S   UNL     1      -4.622  -1.793   3.740  0.00  0.00    -0.107 S 
BRANCH  15  16
ATOM     16  C   UNL     1      -5.510  -0.323   4.325  0.00  0.00    +0.236 C 
ATOM     17  N   UNL     1      -6.638  -0.028   3.433  0.00  0.00    -0.355 N 
ATOM     18  C   UNL     1      -6.441   1.158   2.933  0.00  0.00    +0.061 A 
ATOM     19  C   UNL     1      -7.209   1.986   1.993  0.00  0.00    +0.027 A 
ATOM     20  C   UNL     1      -6.747   3.204   1.649  0.00  0.00    +0.002 A 
ATOM     21  C   UNL     1      -5.545   3.730   2.155  0.00  0.00    +0.002 A 
ATOM     22  C   UNL     1      -4.764   3.054   3.022  0.00  0.00    +0.027 A 
ATOM     23  C   UNL     1      -5.168   1.714   3.468  0.00  0.00    +0.061 A 
ATOM     24  N   UNL     1      -4.628   0.850   4.278  0.00  0.00    -0.355 N 
ATOM     25  H   UNL     1      -7.392  -0.610   3.249  0.00  0.00    +0.162 HD
ATOM     26  H   UNL     1      -3.795   0.961   4.763  0.00  0.00    +0.162 HD
ENDBRANCH  15  16
ENDBRANCH  14  15
ENDBRANCH   1  14
TORSDOF 7
