REMARK  Name = ZINC12502530
REMARK  8 active torsions:
REMARK  status: ('A' for Active; 'I' for Inactive)
REMARK    1  A    between atoms: C_8  and  C_10
REMARK    2  A    between atoms: N_12  and  C_13
REMARK    3  A    between atoms: C_13  and  N_15
REMARK    4  A    between atoms: N_15  and  N_16
REMARK    5  A    between atoms: C_17  and  C_19
REMARK    6  A    between atoms: C_19  and  C_20
REMARK    7  A    between atoms: C_20  and  C_21
REMARK    8  A    between atoms: N_23  and  C_24
REMARK                            x       y       z     vdW  Elec       q    Type
REMARK                         _______ _______ _______ _____ _____    ______ ____
ROOT
ATOM      1  N   UNL     1       3.324   9.994   0.074  0.00  0.00    -0.246 N 
ATOM      2  H   UNL     1       3.996  10.693   0.074  0.00  0.00    +0.172 HD
ENDROOT
BRANCH   1   3
ATOM      3  N   UNL     1       1.964  10.331   0.078  0.00  0.00    -0.235 N 
ATOM      4  C   UNL     1       1.590  11.626   0.081  0.00  0.00    +0.230 C 
ATOM      5  O   UNL     1       2.431  12.499   0.081  0.00  0.00    -0.274 OA
ATOM      6  H   UNL     1       1.291   9.632   0.077  0.00  0.00    +0.173 HD
BRANCH   4   7
ATOM      7  C   UNL     1       0.127  11.988   0.085  0.00  0.00    +0.106 C 
BRANCH   7   8
ATOM      8  C   UNL     1      -0.021  13.511   0.089  0.00  0.00    +0.105 C 
BRANCH   8   9
ATOM      9  C   UNL     1      -1.484  13.873   0.092  0.00  0.00    +0.218 C 
ATOM     10  O   UNL     1      -2.325  12.999   0.092  0.00  0.00    -0.275 OA
ATOM     11  N   UNL     1      -1.857  15.168   0.096  0.00  0.00    -0.284 N 
ATOM     12  H   UNL     1      -1.187  15.866   0.162  0.00  0.00    +0.155 HD
BRANCH  11  13
ATOM     13  C   UNL     1      -3.213  15.506   0.005  0.00  0.00    +0.052 A 
ATOM     14  C   UNL     1      -4.172  14.699   0.601  0.00  0.00    +0.025 A 
ATOM     15  C   UNL     1      -5.509  15.038   0.514  0.00  0.00    +0.002 A 
ATOM     16  C   UNL     1      -5.892  16.173  -0.175  0.00  0.00    +0.002 A 
ATOM     17  C   UNL     1      -4.940  16.977  -0.775  0.00  0.00    +0.022 A 
ATOM     18  C   UNL     1      -3.601  16.646  -0.687  0.00  0.00    +0.062 A 
ATOM     19 CL   UNL     1      -2.406  17.655  -1.441  0.00  0.00    -0.082 Cl
ENDBRANCH  11  13
ENDBRANCH   8   9
ENDBRANCH   7   8
ENDBRANCH   4   7
ENDBRANCH   1   3
BRANCH   1  20
ATOM     20  C   UNL     1       3.697   8.699   0.070  0.00  0.00    +0.153 C 
ATOM     21  S   UNL     1       5.359   8.287   0.066  0.00  0.00    -0.017 S 
BRANCH  20  24
ATOM     22  C   UNL     1       3.136   6.433   0.067  0.00  0.00    +0.258 C 
ATOM     23  O   UNL     1       4.317   6.141   0.064  0.00  0.00    -0.269 OA
ATOM     24  N   UNL     1       2.762   7.728   0.070  0.00  0.00    -0.262 N 
ATOM     25  H   UNL     1       1.821   7.961   0.073  0.00  0.00    +0.157 HD
BRANCH  22  33
ATOM     26  C   UNL     1      -0.018   1.075   0.062  0.00  0.00    +0.001 A 
ATOM     27  C   UNL     1      -1.240   1.737   0.060  0.00  0.00    +0.001 A 
ATOM     28  C   UNL     1      -1.266   3.116   0.068  0.00  0.00    +0.016 A 
ATOM     29  C   UNL     1      -0.079   3.818   0.067  0.00  0.00    +0.021 A 
ATOM     30  C   UNL     1       1.179   3.171   0.064  0.00  0.00    +0.008 A 
ATOM     31  C   UNL     1       1.159   1.753   0.061  0.00  0.00    +0.010 A 
ATOM     32  C   UNL     1       2.297   4.026   0.063  0.00  0.00    +0.068 A 
ATOM     33  C   UNL     1       2.118   5.376   0.066  0.00  0.00    +0.094 A 
ATOM     34  S   UNL     1       0.342   5.543   0.070  0.00  0.00    -0.082 S 
ATOM     35 CL   UNL     1       3.901   3.361   0.058  0.00  0.00    -0.082 Cl
ENDBRANCH  22  33
ENDBRANCH  20  24
ENDBRANCH   1  20
TORSDOF 8
