REMARK  Name = ZINC62723885
REMARK  7 active torsions:
REMARK  status: ('A' for Active; 'I' for Inactive)
REMARK    1  A    between atoms: C_2  and  C_9
REMARK    2  A    between atoms: C_4  and  O_8
REMARK    3  A    between atoms: C_6  and  O_7
REMARK    4  A    between atoms: C_9  and  C_11
REMARK    5  A    between atoms: C_11  and  C_13
REMARK    6  A    between atoms: C_15  and  O_20
REMARK    7  A    between atoms: C_17  and  O_19
REMARK                            x       y       z     vdW  Elec       q    Type
REMARK                         _______ _______ _______ _____ _____    ______ ____
ROOT
ATOM      1  C   UNL     1       1.172   3.568   0.002  0.00  0.00    +0.233 C 
ATOM      2  O   UNL     1       0.509   3.491  -1.012  0.00  0.00    -0.283 OA
ENDROOT
BRANCH   1   4
ATOM      3  C   UNL     1      -0.438   2.109   1.218  0.00  0.00    +0.057 A 
ATOM      4  C   UNL     1       0.766   2.821   1.206  0.00  0.00    +0.032 A 
ATOM      5  C   UNL     1       1.583   2.821   2.341  0.00  0.00    +0.057 A 
ATOM      6  C   UNL     1       1.197   2.118   3.469  0.00  0.00    +0.121 A 
ATOM      7  C   UNL     1       0.001   1.413   3.475  0.00  0.00    +0.090 A 
ATOM      8  C   UNL     1      -0.814   1.409   2.351  0.00  0.00    +0.121 A 
BRANCH   8   9
ATOM      9  O   UNL     1      -1.984   0.717   2.364  0.00  0.00    -0.507 OA
ATOM     10  H   UNL     1      -1.902  -0.199   2.065  0.00  0.00    +0.292 HD
ENDBRANCH   8   9
BRANCH   6  11
ATOM     11  O   UNL     1       1.990   2.117   4.573  0.00  0.00    -0.507 OA
ATOM     12  H   UNL     1       1.799   2.833   5.194  0.00  0.00    +0.292 HD
ENDBRANCH   6  11
ENDBRANCH   1   4
BRANCH   1  13
ATOM     13  C   UNL     1       2.398   4.417   0.029  0.00  0.00    +0.233 C 
ATOM     14  O   UNL     1       3.495   3.900  -0.012  0.00  0.00    -0.283 OA
BRANCH  13  15
ATOM     15  C   UNL     1       2.276   5.885   0.106  0.00  0.00    +0.032 A 
ATOM     16  C   UNL     1       1.020   6.477   0.271  0.00  0.00    +0.057 A 
ATOM     17  C   UNL     1       0.912   7.855   0.343  0.00  0.00    +0.121 A 
ATOM     18  C   UNL     1       2.047   8.649   0.251  0.00  0.00    +0.090 A 
ATOM     19  C   UNL     1       3.296   8.066   0.086  0.00  0.00    +0.121 A 
ATOM     20  C   UNL     1       3.417   6.689   0.019  0.00  0.00    +0.057 A 
BRANCH  19  21
ATOM     21  O   UNL     1       4.404   8.849  -0.004  0.00  0.00    -0.507 OA
ATOM     22  H   UNL     1       4.822   9.037   0.848  0.00  0.00    +0.292 HD
ENDBRANCH  19  21
BRANCH  17  23
ATOM     23  O   UNL     1      -0.308   8.432   0.504  0.00  0.00    -0.507 OA
ATOM     24  H   UNL     1      -0.563   8.561   1.427  0.00  0.00    +0.292 HD
ENDBRANCH  17  23
ENDBRANCH  13  15
ENDBRANCH   1  13
TORSDOF 7
