REMARK  Name = ZINC12559349
REMARK  3 active torsions:
REMARK  status: ('A' for Active; 'I' for Inactive)
REMARK    1  A    between atoms: C_4  and  O_7
REMARK    2  A    between atoms: O_7  and  C_8
REMARK    3  A    between atoms: C_12  and  C_14
REMARK                            x       y       z     vdW  Elec       q    Type
REMARK                         _______ _______ _______ _____ _____    ______ ____
ROOT
ATOM      1  C   UNL     1       6.303  -4.682   0.145  0.00  0.00    +0.209 C 
ATOM      2  N   UNL     1       6.295  -5.881  -0.713  0.00  0.00    -0.294 N 
ATOM      3  C   UNL     1       5.717  -7.036  -0.208  0.00  0.00    +0.159 C 
ATOM      4  N   UNL     1       6.160  -7.454   1.048  0.00  0.00    -0.259 N 
ATOM      5  C   UNL     1       6.490  -6.429   1.930  0.00  0.00    +0.205 A 
ATOM      6  N   UNL     1       6.571  -5.115   1.522  0.00  0.00    -0.288 N 
ATOM      7  C   UNL     1       6.925  -4.373   2.611  0.00  0.00    +0.072 A 
ATOM      8  C   UNL     1       7.157  -3.015   2.796  0.00  0.00    +0.028 A 
ATOM      9  C   UNL     1       7.506  -2.602   4.071  0.00  0.00    +0.002 A 
ATOM     10  C   UNL     1       7.623  -3.492   5.125  0.00  0.00    +0.002 A 
ATOM     11  C   UNL     1       7.398  -4.847   4.968  0.00  0.00    +0.030 A 
ATOM     12  C   UNL     1       7.044  -5.288   3.688  0.00  0.00    +0.091 A 
ATOM     13  N   UNL     1       6.763  -6.518   3.203  0.00  0.00    -0.214 NA
ATOM     14  N   UNL     1       4.810  -7.696  -0.870  0.00  0.00    -0.375 N 
ATOM     15  H   UNL     1       6.232  -8.391   1.288  0.00  0.00    +0.158 HD
ATOM     16  H   UNL     1       4.521  -7.382  -1.742  0.00  0.00    +0.158 HD
ATOM     17  H   UNL     1       6.682  -5.862  -1.603  0.00  0.00    +0.151 HD
ATOM     18  H   UNL     1       4.423  -8.501  -0.492  0.00  0.00    +0.158 HD
ENDROOT
BRANCH   1  23
ATOM     19  C   UNL     1       3.657  -1.988  -0.010  0.00  0.00    +0.129 A 
ATOM     20  C   UNL     1       2.495  -2.747  -0.046  0.00  0.00    +0.046 A 
ATOM     21  C   UNL     1       2.571  -4.125  -0.020  0.00  0.00    +0.004 A 
ATOM     22  C   UNL     1       3.803  -4.750   0.042  0.00  0.00    +0.007 A 
ATOM     23  C   UNL     1       4.962  -3.997   0.077  0.00  0.00    -0.003 A 
ATOM     24  C   UNL     1       4.892  -2.618   0.046  0.00  0.00    +0.053 A 
BRANCH  19  25
ATOM     25  O   UNL     1       3.586  -0.632  -0.036  0.00  0.00    -0.456 OA
BRANCH  25  29
ATOM     26  C   UNL     1       3.329   1.363   3.566  0.00  0.00    +0.000 A 
ATOM     27  C   UNL     1       3.411  -0.017   3.546  0.00  0.00    +0.004 A 
ATOM     28  C   UNL     1       3.497  -0.688   2.341  0.00  0.00    +0.046 A 
ATOM     29  C   UNL     1       3.501   0.025   1.150  0.00  0.00    +0.128 A 
ATOM     30  C   UNL     1       3.419   1.410   1.174  0.00  0.00    +0.046 A 
ATOM     31  C   UNL     1       3.333   2.076   2.381  0.00  0.00    +0.004 A 
ENDBRANCH  25  29
ENDBRANCH  19  25
ENDBRANCH   1  23
TORSDOF 3
