REMARK  Name = ZINC01900074
REMARK  10 active torsions:
REMARK  status: ('A' for Active; 'I' for Inactive)
REMARK    1  A    between atoms: C_1  and  C_2
REMARK    2  A    between atoms: C_2  and  O_3
REMARK    3  A    between atoms: O_3  and  C_4
REMARK    4  A    between atoms: C_7  and  N_10
REMARK    5  A    between atoms: C_11  and  C_30
REMARK    6  A    between atoms: C_14  and  S_15
REMARK    7  A    between atoms: S_15  and  C_16
REMARK    8  A    between atoms: C_16  and  C_17
REMARK    9  A    between atoms: N_19  and  N_20
REMARK   10  A    between atoms: C_21  and  C_22
REMARK                            x       y       z     vdW  Elec       q    Type
REMARK                         _______ _______ _______ _____ _____    ______ ____
ROOT
ATOM      1  N   UNL     1       1.099  -5.965   1.732  0.00  0.00    -0.270 N 
ATOM      2  C   UNL     1       0.651  -6.726   2.789  0.00  0.00    +0.169 A 
ATOM      3  N   UNL     1       1.014  -7.966   2.552  0.00  0.00    -0.128 NA
ATOM      4  N   UNL     1       1.647  -8.033   1.436  0.00  0.00    -0.122 NA
ATOM      5  C   UNL     1       1.724  -6.840   0.887  0.00  0.00    +0.197 A 
ENDROOT
BRANCH   2   6
ATOM      6  C   UNL     1      -0.095  -6.239   3.969  0.00  0.00    +0.020 A 
ATOM      7  C   UNL     1      -0.736  -5.000   3.930  0.00  0.00    +0.013 A 
ATOM      8  C   UNL     1      -1.431  -4.551   5.033  0.00  0.00    +0.021 A 
ATOM      9  C   UNL     1      -1.494  -5.328   6.178  0.00  0.00    +0.041 A 
ATOM     10  C   UNL     1      -0.861  -6.559   6.223  0.00  0.00    +0.021 A 
ATOM     11  C   UNL     1      -0.167  -7.020   5.124  0.00  0.00    +0.013 A 
ATOM     12 CL   UNL     1      -2.371  -4.756   7.563  0.00  0.00    -0.084 Cl
ENDBRANCH   2   6
BRANCH   1  16
ATOM     13  C   UNL     1       0.628  -1.853   1.207  0.00  0.00    +0.121 A 
ATOM     14  C   UNL     1      -0.037  -2.740   0.373  0.00  0.00    +0.047 A 
ATOM     15  C   UNL     1       0.118  -4.101   0.546  0.00  0.00    +0.030 A 
ATOM     16  C   UNL     1       0.941  -4.582   1.555  0.00  0.00    +0.051 A 
ATOM     17  C   UNL     1       1.606  -3.695   2.390  0.00  0.00    +0.030 A 
ATOM     18  C   UNL     1       1.454  -2.334   2.213  0.00  0.00    +0.047 A 
BRANCH  13  19
ATOM     19  O   UNL     1       0.475  -0.513   1.036  0.00  0.00    -0.492 OA
BRANCH  19  21
ATOM     20  C   UNL     1      -0.437   1.440  -0.056  0.00  0.00    +0.048 C 
ATOM     21  C   UNL     1      -0.391  -0.089  -0.018  0.00  0.00    +0.225 C 
ENDBRANCH  19  21
ENDBRANCH  13  19
ENDBRANCH   1  16
BRANCH   5  22
ATOM     22  S   UNL     1       2.494  -6.444  -0.647  0.00  0.00    -0.076 S 
BRANCH  22  23
ATOM     23  C   UNL     1       3.119  -8.036  -1.250  0.00  0.00    +0.174 C 
BRANCH  23  24
ATOM     24  C   UNL     1       3.809  -7.837  -2.574  0.00  0.00    +0.242 C 
ATOM     25  O   UNL     1       3.873  -6.728  -3.064  0.00  0.00    -0.273 OA
ATOM     26  N   UNL     1       4.356  -8.889  -3.215  0.00  0.00    -0.206 N 
ATOM     27  H   UNL     1       4.305  -9.775  -2.824  0.00  0.00    +0.177 HD
BRANCH  26  28
ATOM     28  N   UNL     1       4.998  -8.703  -4.446  0.00  0.00    -0.188 NA
ATOM     29  C   UNL     1       5.524  -9.716  -5.063  0.00  0.00    +0.142 C 
BRANCH  29  30
ATOM     30  C   UNL     1       6.199  -9.521  -6.359  0.00  0.00    +0.048 A 
ATOM     31  C   UNL     1       6.280  -8.244  -6.924  0.00  0.00    +0.133 A 
ATOM     32  C   UNL     1       6.915  -8.069  -8.139  0.00  0.00    +0.039 A 
ATOM     33  C   UNL     1       7.469  -9.154  -8.796  0.00  0.00    +0.004 A 
ATOM     34  C   UNL     1       7.392 -10.420  -8.243  0.00  0.00    +0.021 A 
ATOM     35  C   UNL     1       6.767 -10.610  -7.027  0.00  0.00    +0.052 A 
ATOM     36 CL   UNL     1       6.680 -12.198  -6.332  0.00  0.00    -0.083 Cl
ATOM     37  F   UNL     1       5.739  -7.184  -6.285  0.00  0.00    -0.205 F 
ENDBRANCH  29  30
ENDBRANCH  26  28
ENDBRANCH  23  24
ENDBRANCH  22  23
ENDBRANCH   5  22
TORSDOF 9
