REMARK  Name = ZINC37733092
REMARK  5 active torsions:
REMARK  status: ('A' for Active; 'I' for Inactive)
REMARK    1  A    between atoms: C_1  and  C_2
REMARK    2  A    between atoms: C_4  and  C_19
REMARK    3  A    between atoms: C_7  and  S_8
REMARK    4  A    between atoms: S_8  and  C_9
REMARK    5  A    between atoms: N_13  and  C_14
REMARK                            x       y       z     vdW  Elec       q    Type
REMARK                         _______ _______ _______ _____ _____    ______ ____
ROOT
ATOM      1  S   UNL     1       0.026   0.170   2.733  0.00  0.00    -0.048 S 
ENDROOT
BRANCH   1   8
ATOM      2  C   UNL     1       2.698  -1.045   1.975  0.00  0.00    +0.045 C 
ATOM      3  C   UNL     1       1.587  -1.229   0.974  0.00  0.00    -0.035 A 
ATOM      4  C   UNL     1       1.821  -1.919  -0.194  0.00  0.00    +0.023 A 
ATOM      5  C   UNL     1       0.790  -2.089  -1.123  0.00  0.00    +0.052 A 
ATOM      6  C   UNL     1      -0.477  -1.558  -0.861  0.00  0.00    +0.020 A 
ATOM      7  C   UNL     1      -0.705  -0.869   0.309  0.00  0.00    +0.016 A 
ATOM      8  C   UNL     1       0.323  -0.706   1.234  0.00  0.00    +0.019 A 
BRANCH   5   9
ATOM      9  C   UNL     1       1.030  -2.805  -2.339  0.00  0.00    +0.099 C 
ATOM     10  N   UNL     1       1.221  -3.374  -3.304  0.00  0.00    -0.191 NA
ENDBRANCH   5   9
ENDBRANCH   1   8
BRANCH   1  11
ATOM     11  C   UNL     1      -0.095  -1.098   3.951  0.00  0.00    +0.214 A 
ATOM     12  N   UNL     1      -0.070  -2.395   3.733  0.00  0.00    -0.101 NA
ATOM     13  N   UNL     1      -0.179  -3.038   4.839  0.00  0.00    -0.022 NA
ATOM     14  N   UNL     1      -0.281  -2.217   5.827  0.00  0.00    -0.043 NA
ATOM     15  N   UNL     1      -0.224  -0.921   5.287  0.00  0.00    -0.217 N 
BRANCH  15  16
ATOM     16  C   UNL     1      -0.293   0.350   6.013  0.00  0.00    +0.112 C 
ATOM     17  C   UNL     1       0.828   0.416   7.071  0.00  0.00    +0.027 C 
ATOM     18  C   UNL     1       0.173   1.140   8.273  0.00  0.00    +0.002 C 
ATOM     19  C   UNL     1      -1.267   0.571   8.273  0.00  0.00    +0.002 C 
ATOM     20  C   UNL     1      -1.625   0.448   6.777  0.00  0.00    +0.027 C 
ENDBRANCH  15  16
ENDBRANCH   1  11
TORSDOF 4
