REMARK  Name = ZINC20749952
REMARK  3 active torsions:
REMARK  status: ('A' for Active; 'I' for Inactive)
REMARK    1  A    between atoms: C_4  and  C_8
REMARK    2  A    between atoms: C_18  and  N_25
REMARK    3  A    between atoms: C_21  and  O_24
REMARK                            x       y       z     vdW  Elec       q    Type
REMARK                         _______ _______ _______ _____ _____    ______ ____
ROOT
ATOM      1  C   UNL     1      -0.387   3.076  -1.446  0.00  0.00    +0.108 C 
ATOM      2  C   UNL     1      -0.821   1.629  -1.204  0.00  0.00    +0.029 C 
ATOM      3  C   UNL     1      -0.013   1.086   0.008  0.00  0.00    +0.033 C 
ATOM      4  C   UNL     1      -0.778   1.602   1.210  0.00  0.00    -0.030 C 
ATOM      5  C   UNL     1      -2.013   1.896   0.873  0.00  0.00    -0.023 C 
ATOM      6  C   UNL     1      -2.240   1.626  -0.597  0.00  0.00    +0.051 C 
ATOM      7  C   UNL     1      -3.102   2.694  -1.204  0.00  0.00    +0.014 A 
ATOM      8  C   UNL     1      -4.452   2.709  -0.873  0.00  0.00    +0.132 A 
ATOM      9  C   UNL     1      -5.296   3.665  -1.397  0.00  0.00    +0.037 A 
ATOM     10  C   UNL     1      -4.803   4.625  -2.262  0.00  0.00    +0.049 A 
ATOM     11  C   UNL     1      -3.463   4.620  -2.599  0.00  0.00    +0.138 A 
ATOM     12  C   UNL     1      -2.606   3.650  -2.070  0.00  0.00    +0.076 A 
ATOM     13  N   UNL     1      -1.261   3.686  -2.449  0.00  0.00    -0.334 N 
ATOM     14  H   UNL     1      -0.832   4.103  -3.372  0.00  0.00    +0.147 HD
ENDROOT
BRANCH   1  18
ATOM     15  C   UNL     1       3.650   3.139  -2.844  0.00  0.00    +0.003 A 
ATOM     16  C   UNL     1       3.364   3.508  -1.543  0.00  0.00    +0.020 A 
ATOM     17  C   UNL     1       2.057   3.488  -1.089  0.00  0.00    +0.047 A 
ATOM     18  C   UNL     1       1.036   3.099  -1.939  0.00  0.00    +0.010 A 
ATOM     19  C   UNL     1       1.324   2.725  -3.239  0.00  0.00    +0.047 A 
ATOM     20  C   UNL     1       2.631   2.751  -3.693  0.00  0.00    +0.020 A 
ATOM     21 CL   UNL     1       0.045   2.230  -4.303  0.00  0.00    -0.083 Cl
ATOM     22 CL   UNL     1       1.697   3.950   0.545  0.00  0.00    -0.083 Cl
ENDBRANCH   1  18
BRANCH   8  23
ATOM     23  N   UNL     1      -4.989   1.687   0.053  0.00  0.00    +0.057 N 
ATOM     24  O   UNL     1      -6.171   1.693   0.348  0.00  0.00    -0.126 OA
ATOM     25  O   UNL     1      -4.250   0.839   0.520  0.00  0.00    -0.126 OA
ENDBRANCH   8  23
BRANCH  11  26
ATOM     26  O   UNL     1      -2.975   5.563  -3.450  0.00  0.00    -0.505 OA
ATOM     27  H   UNL     1      -1.909   5.561  -3.720  0.00  0.00    +0.292 HD
ENDBRANCH  11  26
TORSDOF 3
