REMARK  Name = ZINC40140882
REMARK  6 active torsions:
REMARK  status: ('A' for Active; 'I' for Inactive)
REMARK    1  A    between atoms: C_1  and  N_2
REMARK    2  A    between atoms: N_2  and  C_3
REMARK    3  A    between atoms: N_2  and  C_4
REMARK    4  A    between atoms: C_7  and  C_10
REMARK    5  A    between atoms: N_11  and  C_12
REMARK    6  A    between atoms: C_14  and  C_25
REMARK                            x       y       z     vdW  Elec       q    Type
REMARK                         _______ _______ _______ _____ _____    ______ ____
ROOT
ATOM      1  C   UNL     1      -0.017  -2.667  -7.212  0.00  0.00    +0.222 C 
ATOM      2  C   UNL     1       1.263  -2.533  -8.014  0.00  0.00    +0.002 C 
ATOM      3  C   UNL     1       1.136  -2.150  -9.353  0.00  0.00    +0.003 A 
ATOM      4  C   UNL     1       2.275  -2.002 -10.171  0.00  0.00    +0.025 A 
ATOM      5  C   UNL     1       2.124  -1.629 -11.471  0.00  0.00    +0.019 A 
ATOM      6  C   UNL     1       0.862  -1.388 -12.013  0.00  0.00    +0.017 A 
ATOM      7  C   UNL     1      -0.274  -1.514 -11.273  0.00  0.00    +0.025 A 
ATOM      8  C   UNL     1      -0.192  -1.897  -9.922  0.00  0.00    +0.041 A 
ATOM      9  N   UNL     1      -1.309  -2.020  -9.196  0.00  0.00    -0.283 N 
ATOM     10  C   UNL     1      -1.317  -2.375  -7.927  0.00  0.00    +0.246 C 
ATOM     11  O   UNL     1      -2.373  -2.467  -7.329  0.00  0.00    -0.273 OA
ATOM     12 BR   UNL     1       3.655  -1.431 -12.563  0.00  0.00    -0.050 Br
ATOM     13  H   UNL     1      -2.159  -1.839  -9.628  0.00  0.00    +0.155 HD
ENDROOT
BRANCH   2  14
ATOM     14  C   UNL     1       2.531  -2.785  -7.433  0.00  0.00    -0.019 A 
ATOM     15  C   UNL     1       3.466  -1.745  -7.299  0.00  0.00    +0.008 A 
ATOM     16  C   UNL     1       4.695  -2.000  -6.732  0.00  0.00    +0.001 A 
ATOM     17  C   UNL     1       5.011  -3.276  -6.296  0.00  0.00    +0.000 A 
ATOM     18  C   UNL     1       4.096  -4.309  -6.424  0.00  0.00    +0.001 A 
ATOM     19  C   UNL     1       2.859  -4.074  -6.982  0.00  0.00    +0.008 A 
ENDBRANCH   2  14
BRANCH   1  21
ATOM     20  C   UNL     1       0.086  -2.245  -4.861  0.00  0.00    +0.114 C 
ATOM     21  N   UNL     1       0.076  -1.764  -6.062  0.00  0.00    -0.274 NA
BRANCH  20  25
ATOM     22  C   UNL     1       0.358   0.370  -1.528  0.00  0.00    +0.029 A 
ATOM     23  C   UNL     1       0.280  -1.004  -1.327  0.00  0.00    +0.024 A 
ATOM     24  C   UNL     1       0.191  -1.855  -2.405  0.00  0.00    +0.011 A 
ATOM     25  C   UNL     1       0.180  -1.337  -3.704  0.00  0.00    -0.007 A 
ATOM     26  C   UNL     1       0.259   0.044  -3.902  0.00  0.00    +0.011 A 
ATOM     27  C   UNL     1       0.342   0.890  -2.819  0.00  0.00    +0.024 A 
BRANCH  22  29
ATOM     28  C   UNL     1       0.524   2.676  -0.645  0.00  0.00    +0.129 C 
ATOM     29  N   UNL     1       0.447   1.228  -0.436  0.00  0.00    -0.336 N 
ATOM     30  C   UNL     1       0.464   0.683   0.924  0.00  0.00    +0.129 C 
ENDBRANCH  22  29
ENDBRANCH  20  25
ENDBRANCH   1  21
TORSDOF 4
