REMARK  Name = ZINC39729977
REMARK  8 active torsions:
REMARK  status: ('A' for Active; 'I' for Inactive)
REMARK    1  A    between atoms: C_1  and  C_2
REMARK    2  A    between atoms: C_2  and  C_3
REMARK    3  A    between atoms: N_10  and  O_11
REMARK    4  A    between atoms: O_11  and  C_12
REMARK    5  A    between atoms: C_12  and  C_13
REMARK    6  A    between atoms: C_16  and  C_19
REMARK    7  A    between atoms: N_25  and  C_30
REMARK    8  A    between atoms: N_28  and  C_29
REMARK                            x       y       z     vdW  Elec       q    Type
REMARK                         _______ _______ _______ _____ _____    ______ ____
ROOT
ATOM      1  C   UNL     1       0.727  -0.532   1.212  0.00  0.00    -0.004 C 
ATOM      2  C   UNL     1       0.042  -0.774   2.347  0.00  0.00    +0.118 C 
ATOM      3  N   UNL     1       0.600  -1.134   3.510  0.00  0.00    -0.243 NA
ATOM      4  C   UNL     1       1.875  -1.323   3.655  0.00  0.00    +0.123 C 
ATOM      5  C   UNL     1       2.772  -1.264   2.432  0.00  0.00    +0.191 C 
ATOM      6  C   UNL     1       2.139  -0.720   1.169  0.00  0.00    +0.104 C 
ATOM      7  N   UNL     1       2.841  -0.439   0.112  0.00  0.00    -0.088 NA
ATOM      8  C   UNL     1       3.933  -0.389   2.818  0.00  0.00    +0.239 C 
ATOM      9  O   UNL     1       4.488   0.296   1.986  0.00  0.00    -0.274 OA
ATOM     10  N   UNL     1       4.350  -0.375   4.101  0.00  0.00    -0.228 N 
ATOM     11  C   UNL     1       3.699  -1.034   5.074  0.00  0.00    +0.316 C 
ATOM     12  O   UNL     1       4.228  -1.167   6.159  0.00  0.00    -0.252 OA
ATOM     13  N   UNL     1       2.466  -1.552   4.869  0.00  0.00    -0.245 N 
ATOM     14  C   UNL     1       1.789  -2.331   5.908  0.00  0.00    +0.141 C 
ATOM     15  C   UNL     1       5.554   0.386   4.445  0.00  0.00    +0.143 C 
ENDROOT
BRANCH   1  17
ATOM     16  C   UNL     1       0.044   1.463  -0.093  0.00  0.00    +0.009 C 
ATOM     17  C   UNL     1      -0.006  -0.064  -0.019  0.00  0.00    +0.035 C 
ENDBRANCH   1  17
BRANCH   7  18
ATOM     18  O   UNL     1       2.229   0.197  -0.996  0.00  0.00    -0.389 OA
BRANCH  18  19
ATOM     19  C   UNL     1       3.117   0.445  -2.087  0.00  0.00    +0.298 C 
BRANCH  19  20
ATOM     20  C   UNL     1       2.364   1.122  -3.204  0.00  0.00    -0.008 A 
ATOM     21  C   UNL     1       1.742   0.363  -4.177  0.00  0.00    +0.007 A 
ATOM     22  C   UNL     1       1.052   0.984  -5.201  0.00  0.00    +0.013 A 
ATOM     23  C   UNL     1       0.983   2.364  -5.252  0.00  0.00    +0.055 A 
ATOM     24  C   UNL     1       1.604   3.123  -4.277  0.00  0.00    +0.013 A 
ATOM     25  C   UNL     1       2.291   2.502  -3.251  0.00  0.00    +0.007 A 
BRANCH  23  26
ATOM     26  C   UNL     1       0.231   3.040  -6.369  0.00  0.00    +0.417 C 
ATOM     27  F   UNL     1      -1.104   3.221  -5.990  0.00  0.00    -0.166 F 
ATOM     28  F   UNL     1       0.813   4.284  -6.636  0.00  0.00    -0.166 F 
ATOM     29  F   UNL     1       0.286   2.243  -7.517  0.00  0.00    -0.166 F 
ENDBRANCH  23  26
ENDBRANCH  19  20
ENDBRANCH  18  19
ENDBRANCH   7  18
TORSDOF 5
