REMARK  Name = ZINC45351706
REMARK  7 active torsions:
REMARK  status: ('A' for Active; 'I' for Inactive)
REMARK    1  A    between atoms: C_1  and  C_2
REMARK    2  A    between atoms: C_4  and  C_14
REMARK    3  A    between atoms: N_16  and  C_17
REMARK    4  A    between atoms: C_17  and  C_19
REMARK    5  A    between atoms: C_17  and  C_26
REMARK    6  A    between atoms: C_26  and  C_27
REMARK    7  A    between atoms: C_26  and  C_28
REMARK                            x       y       z     vdW  Elec       q    Type
REMARK                         _______ _______ _______ _____ _____    ______ ____
ROOT
ATOM      1  C   UNL     1       0.134   0.035  -2.651  0.00  0.00    +0.258 C 
ATOM      2  O   UNL     1      -0.463  -0.747  -3.361  0.00  0.00    -0.272 OA
ATOM      3  N   UNL     1       0.235   1.330  -3.009  0.00  0.00    -0.305 N 
ATOM      4  H   UNL     1       0.764   1.941  -2.474  0.00  0.00    +0.149 HD
ENDROOT
BRANCH   1   7
ATOM      5  C   UNL     1       1.500  -2.563  -2.480  0.00  0.00    +0.056 C 
ATOM      6  C   UNL     1       1.964  -1.343  -1.682  0.00  0.00    +0.220 C 
ATOM      7  C   UNL     1       0.761  -0.443  -1.367  0.00  0.00    +0.299 C 
ATOM      8  O   UNL     1       1.228   0.679  -0.610  0.00  0.00    -0.472 OA
ATOM      9  C   UNL     1       2.073   0.411   0.423  0.00  0.00    +0.163 A 
ATOM     10  C   UNL     1       2.274   1.370   1.405  0.00  0.00    +0.049 A 
ATOM     11  C   UNL     1       3.131   1.114   2.458  0.00  0.00    +0.004 A 
ATOM     12  C   UNL     1       3.792  -0.098   2.536  0.00  0.00    +0.004 A 
ATOM     13  C   UNL     1       3.595  -1.058   1.562  0.00  0.00    +0.049 A 
ATOM     14  C   UNL     1       2.734  -0.809   0.503  0.00  0.00    +0.163 A 
ATOM     15  O   UNL     1       2.544  -1.768  -0.444  0.00  0.00    -0.481 OA
ENDBRANCH   1   7
BRANCH   3  16
ATOM     16  C   UNL     1      -0.453   1.814  -4.209  0.00  0.00    +0.106 C 
BRANCH  16  17
ATOM     17  C   UNL     1      -0.712   3.292  -4.077  0.00  0.00    -0.027 A 
ATOM     18  C   UNL     1       0.252   4.116  -3.526  0.00  0.00    +0.008 A 
ATOM     19  C   UNL     1       0.016   5.473  -3.405  0.00  0.00    +0.038 A 
ATOM     20  C   UNL     1      -1.188   6.006  -3.835  0.00  0.00    +0.123 A 
ATOM     21  C   UNL     1      -2.153   5.180  -4.386  0.00  0.00    +0.038 A 
ATOM     22  C   UNL     1      -1.912   3.825  -4.511  0.00  0.00    +0.008 A 
ATOM     23  F   UNL     1      -1.420   7.332  -3.717  0.00  0.00    -0.205 F 
ENDBRANCH  16  17
BRANCH  16  24
ATOM     24  C   UNL     1       0.421   1.557  -5.437  0.00  0.00    +0.008 C 
ATOM     25  C   UNL     1       0.684   0.056  -5.571  0.00  0.00    +0.009 C 
ATOM     26  C   UNL     1      -0.297   2.063  -6.690  0.00  0.00    +0.009 C 
ENDBRANCH  16  24
ENDBRANCH   3  16
TORSDOF 4
