REMARK  Name = ZINC13033724
REMARK  7 active torsions:
REMARK  status: ('A' for Active; 'I' for Inactive)
REMARK    1  A    between atoms: C_3  and  C_6
REMARK    2  A    between atoms: C_6  and  N_63
REMARK    3  A    between atoms: C_7  and  C_8
REMARK    4  A    between atoms: C_7  and  N_63
REMARK    5  A    between atoms: C_24  and  C_25
REMARK    6  A    between atoms: C_24  and  N_63
REMARK    7  A    between atoms: N_29  and  C_30
REMARK                            x       y       z     vdW  Elec       q    Type
REMARK                         _______ _______ _______ _____ _____    ______ ____
ROOT
ATOM      1  N   UNL     1      -0.711  -2.983  -1.689  0.00  0.00    +0.390 N 
ATOM      2  H   UNL     1      -0.160  -2.947  -0.824  0.00  0.00    -0.080 HD
ENDROOT
BRANCH   1   3
ATOM      3  C   UNL     1      -1.739  -4.037  -1.559  0.00  0.00    -0.035 C 
BRANCH   3   6
ATOM      4  C   UNL     1      -0.232  -6.807   0.579  0.00  0.00    +0.008 A 
ATOM      5  C   UNL     1      -0.839  -5.598   0.295  0.00  0.00    +0.009 A 
ATOM      6  C   UNL     1      -1.092  -5.278  -0.998  0.00  0.00    -0.027 A 
ATOM      7  S   UNL     1      -0.455  -6.703  -1.863  0.00  0.00    -0.103 S 
ATOM      8  C   UNL     1       0.100  -7.632  -0.444  0.00  0.00    +0.045 A 
ENDBRANCH   3   6
ENDBRANCH   1   3
BRANCH   1   9
ATOM      9  C   UNL     1       0.189  -3.292  -2.819  0.00  0.00    -0.036 C 
BRANCH   9  10
ATOM     10  C   UNL     1       1.465  -2.508  -2.649  0.00  0.00    +0.001 A 
ATOM     11  C   UNL     1       2.523  -3.067  -2.009  0.00  0.00    +0.017 A 
ATOM     12  C   UNL     1       3.748  -2.282  -1.865  0.00  0.00    +0.002 A 
ATOM     13  C   UNL     1       4.872  -2.809  -1.218  0.00  0.00    +0.059 A 
ATOM     14  C   UNL     1       6.012  -2.043  -1.093  0.00  0.00    +0.163 A 
ATOM     15  C   UNL     1       6.048  -0.745  -1.609  0.00  0.00    +0.164 A 
ATOM     16  C   UNL     1       4.941  -0.215  -2.250  0.00  0.00    +0.075 A 
ATOM     17  C   UNL     1       3.785  -0.973  -2.384  0.00  0.00    +0.053 A 
ATOM     18  N   UNL     1       2.671  -0.461  -3.019  0.00  0.00    -0.322 N 
ATOM     19  H   UNL     1       2.697   0.441  -3.376  0.00  0.00    +0.169 HD
ATOM     20  C   UNL     1       1.552  -1.193  -3.151  0.00  0.00    +0.251 A 
ATOM     21  O   UNL     1       0.588  -0.708  -3.717  0.00  0.00    -0.268 OA
ATOM     22  O   UNL     1       7.170   0.016  -1.494  0.00  0.00    -0.485 OA
ATOM     23  C   UNL     1       8.134  -0.401  -0.521  0.00  0.00    +0.270 C 
ATOM     24  C   UNL     1       8.350  -1.912  -0.675  0.00  0.00    +0.270 C 
ATOM     25  O   UNL     1       7.096  -2.569  -0.458  0.00  0.00    -0.485 OA
ENDBRANCH   9  10
ENDBRANCH   1   9
BRANCH   1  26
ATOM     26  C   UNL     1      -1.357  -1.671  -1.902  0.00  0.00    +0.001 C 
BRANCH  26  27
ATOM     27  C   UNL     1      -2.092  -1.281  -0.645  0.00  0.00    +0.135 A 
ATOM     28  N   UNL     1      -3.341  -1.548  -0.354  0.00  0.00    -0.115 NA
ATOM     29  N   UNL     1      -3.595  -1.049   0.806  0.00  0.00    -0.023 NA
ATOM     30  N   UNL     1      -2.539  -0.474   1.265  0.00  0.00    -0.044 NA
ATOM     31  N   UNL     1      -1.591  -0.591   0.397  0.00  0.00    -0.228 N 
BRANCH  31  32
ATOM     32  C   UNL     1      -0.226  -0.075   0.524  0.00  0.00    +0.111 C 
ATOM     33  C   UNL     1      -0.268   1.447   0.677  0.00  0.00    +0.027 C 
ATOM     34  C   UNL     1       1.157   1.986   0.810  0.00  0.00    +0.002 C 
ATOM     35  C   UNL     1       1.824   1.367   2.040  0.00  0.00    +0.000 C 
ATOM     36  C   UNL     1       1.866  -0.155   1.887  0.00  0.00    +0.002 C 
ATOM     37  C   UNL     1       0.440  -0.694   1.754  0.00  0.00    +0.027 C 
ENDBRANCH  31  32
ENDBRANCH  26  27
ENDBRANCH   1  26
TORSDOF 7
