REMARK  Name = ZINC09550003
REMARK  9 active torsions:
REMARK  status: ('A' for Active; 'I' for Inactive)
REMARK    1  A    between atoms: C_1  and  C_2
REMARK    2  A    between atoms: C_3  and  C_16
REMARK    3  A    between atoms: C_4  and  C_15
REMARK    4  A    between atoms: C_9  and  C_11
REMARK    5  A    between atoms: C_16  and  C_17
REMARK    6  A    between atoms: C_17  and  C_18
REMARK    7  A    between atoms: N_20  and  C_21
REMARK    8  A    between atoms: C_21  and  C_22
REMARK    9  A    between atoms: C_22  and  N_66
REMARK                            x       y       z     vdW  Elec       q    Type
REMARK                         _______ _______ _______ _____ _____    ______ ____
ROOT
ATOM      1  C   UNL     1       0.251   0.906  -2.284  0.00  0.00    +0.213 C 
ATOM      2  O   UNL     1       1.271   0.253  -2.204  0.00  0.00    -0.276 OA
ATOM      3  N   UNL     1      -0.397   1.283  -1.164  0.00  0.00    -0.317 N 
ATOM      4  H   UNL     1      -1.212   1.804  -1.228  0.00  0.00    +0.149 HD
ENDROOT
BRANCH   1   5
ATOM      5  C   UNL     1      -0.290   1.294  -3.635  0.00  0.00    +0.100 C 
BRANCH   5   6
ATOM      6  C   UNL     1       0.627   0.745  -4.730  0.00  0.00    +0.048 C 
BRANCH   6   9
ATOM      7  C   UNL     1      -1.242  -1.003  -6.119  0.00  0.00    +0.066 C 
ATOM      8  C   UNL     1      -0.813   0.295  -6.752  0.00  0.00    +0.047 A 
ATOM      9  C   UNL     1       0.086   1.134  -6.081  0.00  0.00    -0.005 A 
ATOM     10  C   UNL     1       0.469   2.299  -6.665  0.00  0.00    +0.048 A 
ATOM     11  N   UNL     1      -0.037   2.622  -7.885  0.00  0.00    -0.200 N 
ATOM     12  C   UNL     1      -0.917   1.784  -8.511  0.00  0.00    +0.254 A 
ATOM     13  N   UNL     1      -1.288   0.638  -7.928  0.00  0.00    -0.216 NA
ATOM     14  N   UNL     1      -1.239   2.346  -9.670  0.00  0.00    -0.186 NA
ATOM     15  C   UNL     1      -0.600   3.501  -9.801  0.00  0.00    +0.257 A 
ATOM     16  N   UNL     1       0.144   3.716  -8.742  0.00  0.00    -0.139 NA
ATOM     17  C   UNL     1       1.439   3.219  -5.971  0.00  0.00    +0.066 C 
BRANCH  15  18
ATOM     18  C   UNL     1      -0.712   4.426 -10.985  0.00  0.00    +0.454 C 
ATOM     19  F   UNL     1       0.006   3.895 -12.062  0.00  0.00    -0.163 F 
ATOM     20  F   UNL     1      -2.058   4.563 -11.345  0.00  0.00    -0.163 F 
ATOM     21  F   UNL     1      -0.190   5.680 -10.649  0.00  0.00    -0.163 F 
ENDBRANCH  15  18
ENDBRANCH   6   9
ENDBRANCH   5   6
ENDBRANCH   1   5
BRANCH   3  22
ATOM     22  C   UNL     1       0.129   0.905   0.150  0.00  0.00    +0.092 C 
BRANCH  22  23
ATOM     23  C   UNL     1      -0.867   1.315   1.236  0.00  0.00    -0.050 C 
ATOM     24  C   UNL     1      -1.215   2.796   1.076  0.00  0.00    -0.010 C 
ATOM     25  C   UNL     1       0.057   3.636   1.208  0.00  0.00    -0.001 C 
ATOM     26  C   UNL     1       0.680   3.404   2.586  0.00  0.00    -0.000 C 
ATOM     27  C   UNL     1       1.028   1.922   2.746  0.00  0.00    -0.001 C 
ATOM     28  C   UNL     1      -0.244   1.083   2.614  0.00  0.00    -0.010 C 
BRANCH  23  34
ATOM     29  C   UNL     1      -1.788  -0.924   1.222  0.00  0.00    -0.078 C 
ATOM     30  C   UNL     1      -3.094  -1.722   1.232  0.00  0.00    -0.019 C 
ATOM     31  C   UNL     1      -3.865  -1.444  -0.061  0.00  0.00    -0.004 C 
ATOM     32  C   UNL     1      -4.124   0.061  -0.180  0.00  0.00    -0.019 C 
ATOM     33  C   UNL     1      -2.788   0.806  -0.148  0.00  0.00    -0.078 C 
ATOM     34  N   UNL     1      -2.107   0.517   1.132  0.00  0.00    +0.384 N 
ATOM     35  H   UNL     1      -2.732   0.769   1.906  0.00  0.00    -0.081 HD
ENDBRANCH  23  34
ENDBRANCH  22  23
ENDBRANCH   3  22
TORSDOF 7
