REMARK  Name = ZINC12691343
REMARK  10 active torsions:
REMARK  status: ('A' for Active; 'I' for Inactive)
REMARK    1  A    between atoms: C_1  and  C_2
REMARK    2  A    between atoms: N_8  and  S_9
REMARK    3  A    between atoms: S_9  and  C_12
REMARK    4  A    between atoms: C_16  and  C_18
REMARK    5  A    between atoms: N_20  and  C_21
REMARK    6  A    between atoms: C_21  and  C_22
REMARK    7  A    between atoms: C_22  and  C_24
REMARK    8  A    between atoms: C_22  and  N_58
REMARK    9  A    between atoms: C_29  and  N_58
REMARK   10  A    between atoms: C_30  and  N_58
REMARK                            x       y       z     vdW  Elec       q    Type
REMARK                         _______ _______ _______ _____ _____    ______ ____
ROOT
ATOM      1  C   UNL     1      -4.323   2.649   1.413  0.00  0.00    +0.106 A 
ATOM      2  C   UNL     1      -4.797   2.213   2.639  0.00  0.00    +0.029 A 
ATOM      3  C   UNL     1      -5.884   1.361   2.704  0.00  0.00    +0.018 A 
ATOM      4  C   UNL     1      -6.504   0.939   1.544  0.00  0.00    +0.030 A 
ATOM      5  C   UNL     1      -6.031   1.376   0.305  0.00  0.00    +0.052 A 
ATOM      6  C   UNL     1      -4.936   2.240   0.248  0.00  0.00    +0.042 A 
ATOM      7 BR   UNL     1      -7.990  -0.227   1.634  0.00  0.00    -0.050 Br
ENDROOT
BRANCH   5   8
ATOM      8  C   UNL     1      -6.689   0.929  -0.941  0.00  0.00    +0.245 C 
ATOM      9  O   UNL     1      -7.645   0.180  -0.888  0.00  0.00    -0.270 OA
ATOM     10  N   UNL     1      -6.230   1.352  -2.135  0.00  0.00    -0.312 N 
ATOM     11  H   UNL     1      -5.468   1.950  -2.177  0.00  0.00    +0.149 HD
BRANCH  10  12
ATOM     12  C   UNL     1      -6.883   0.909  -3.369  0.00  0.00    +0.097 C 
BRANCH  12  13
ATOM     13  C   UNL     1      -6.250   1.623  -4.566  0.00  0.00    +0.016 C 
BRANCH  13  14
ATOM     14  C   UNL     1      -6.847   1.089  -5.842  0.00  0.00    +0.093 A 
ATOM     15  C   UNL     1      -7.678   1.758  -6.662  0.00  0.00    +0.043 A 
ATOM     16  C   UNL     1      -7.987   0.886  -7.732  0.00  0.00    +0.041 A 
ATOM     17  C   UNL     1      -7.332  -0.265  -7.498  0.00  0.00    +0.195 A 
ATOM     18  O   UNL     1      -6.643  -0.137  -6.352  0.00  0.00    -0.469 OA
ENDBRANCH  13  14
BRANCH  13  21
ATOM     19  C   UNL     1      -4.499  -0.035  -4.778  0.00  0.00    -0.096 C 
ATOM     20  C   UNL     1      -4.131   2.222  -5.572  0.00  0.00    -0.096 C 
ATOM     21  N   UNL     1      -4.790   1.394  -4.540  0.00  0.00    +0.384 N 
ATOM     22  H   UNL     1      -4.427   1.659  -3.617  0.00  0.00    -0.082 HD
ENDBRANCH  13  21
ENDBRANCH  12  13
ENDBRANCH  10  12
ENDBRANCH   5   8
BRANCH   1  23
ATOM     23  S   UNL     1      -2.937   3.735   1.343  0.00  0.00    +0.061 S 
ATOM     24  O   UNL     1      -2.792   4.293   2.642  0.00  0.00    -0.153 OA
ATOM     25  O   UNL     1      -3.110   4.540   0.184  0.00  0.00    -0.153 OA
BRANCH  23  32
ATOM     26  C   UNL     1      -1.550   2.558   3.515  0.00  0.00    +0.026 C 
ATOM     27  C   UNL     1      -0.924   2.121   2.190  0.00  0.00    +0.077 C 
ATOM     28  C   UNL     1       0.561   2.498   2.174  0.00  0.00    +0.020 C 
ATOM     29  C   UNL     1       1.149   2.182   0.797  0.00  0.00    +0.003 C 
ATOM     30  C   UNL     1       0.429   3.010  -0.269  0.00  0.00    +0.017 C 
ATOM     31  C   UNL     1      -1.057   2.638  -0.282  0.00  0.00    +0.110 C 
ATOM     32  N   UNL     1      -1.596   2.802   1.075  0.00  0.00    -0.174 NA
ENDBRANCH  23  32
ENDBRANCH   1  23
TORSDOF 7
