REMARK  Name = ZINC37137920
REMARK  6 active torsions:
REMARK  status: ('A' for Active; 'I' for Inactive)
REMARK    1  A    between atoms: C_1  and  C_2
REMARK    2  A    between atoms: C_2  and  N_3
REMARK    3  A    between atoms: C_6  and  N_9
REMARK    4  A    between atoms: N_9  and  C_10
REMARK    5  A    between atoms: C_13  and  S_17
REMARK    6  A    between atoms: S_17  and  N_20
REMARK                            x       y       z     vdW  Elec       q    Type
REMARK                         _______ _______ _______ _____ _____    ______ ____
ROOT
ATOM      1  C   UNL     1      -5.310  -3.834  -1.298  0.00  0.00    +0.042 A 
ATOM      2  C   UNL     1      -4.346  -4.714  -1.772  0.00  0.00    +0.026 A 
ATOM      3  C   UNL     1      -4.703  -5.997  -2.138  0.00  0.00    +0.030 A 
ATOM      4  C   UNL     1      -6.019  -6.406  -2.033  0.00  0.00    +0.106 A 
ATOM      5  C   UNL     1      -6.983  -5.534  -1.561  0.00  0.00    +0.045 A 
ATOM      6  C   UNL     1      -6.632  -4.251  -1.188  0.00  0.00    +0.041 A 
ATOM      7 BR   UNL     1      -7.949  -3.060  -0.536  0.00  0.00    -0.048 Br
ENDROOT
BRANCH   4   8
ATOM      8  S   UNL     1      -6.470  -8.044  -2.502  0.00  0.00    +0.056 S 
ATOM      9  O   UNL     1      -7.854  -8.008  -2.824  0.00  0.00    -0.153 OA
ATOM     10  O   UNL     1      -5.485  -8.488  -3.424  0.00  0.00    -0.153 OA
BRANCH   8  11
ATOM     11  N   UNL     1      -6.323  -8.997  -1.156  0.00  0.00    -0.204 NA
ATOM     12  H   UNL     1      -6.894  -9.773  -1.046  0.00  0.00    +0.144 HD
ATOM     13  H   UNL     1      -5.665  -8.779  -0.477  0.00  0.00    +0.144 HD
ENDBRANCH   8  11
ENDBRANCH   4   8
BRANCH   1  14
ATOM     14  N   UNL     1      -4.952  -2.536  -0.926  0.00  0.00    -0.340 N 
ATOM     15  H   UNL     1      -5.626  -1.924  -0.591  0.00  0.00    +0.146 HD
BRANCH  14  19
ATOM     16  N   UNL     1      -1.376  -0.512   0.012  0.00  0.00    +0.380 N 
ATOM     17  C   UNL     1      -2.051  -0.118  -1.230  0.00  0.00    -0.077 C 
ATOM     18  C   UNL     1      -3.511  -0.575  -1.189  0.00  0.00    +0.003 C 
ATOM     19  C   UNL     1      -3.559  -2.099  -1.042  0.00  0.00    +0.067 C 
ATOM     20  C   UNL     1      -2.788  -2.505   0.218  0.00  0.00    +0.003 C 
ATOM     21  C   UNL     1      -1.355  -1.976   0.125  0.00  0.00    -0.077 C 
ATOM     22  H   UNL     1      -1.871  -0.123   0.800  0.00  0.00    -0.082 HD
BRANCH  16  24
ATOM     23  C   UNL     1      -0.019   1.526   0.010  0.00  0.00    -0.017 C 
ATOM     24  C   UNL     1       0.002  -0.004   0.002  0.00  0.00    -0.082 C 
ENDBRANCH  16  24
ENDBRANCH  14  19
ENDBRANCH   1  14
TORSDOF 5
