REMARK  Name = ZINC44322777
REMARK  9 active torsions:
REMARK  status: ('A' for Active; 'I' for Inactive)
REMARK    1  A    between atoms: C_1  and  C_2
REMARK    2  A    between atoms: C_7  and  C_35
REMARK    3  A    between atoms: C_8  and  C_11
REMARK    4  A    between atoms: C_11  and  CA_12
REMARK    5  A    between atoms: CA_12  and  C_14
REMARK    6  A    between atoms: CA_12  and  N_17
REMARK    7  A    between atoms: C_18  and  O_20
REMARK    8  A    between atoms: O_20  and  C_21
REMARK    9  A    between atoms: C_21  and  C_22
REMARK                            x       y       z     vdW  Elec       q    Type
REMARK                         _______ _______ _______ _____ _____    ______ ____
ROOT
ATOM      1  CA  UNL     1      -1.785  -2.661   3.974  0.00  0.00    +0.195 C 
ENDROOT
BRANCH   1   2
ATOM      2  N   UNL     1      -2.476  -1.655   3.164  0.00  0.00    -0.267 N 
ATOM      3  C   UNL     1      -3.787  -1.798   2.888  0.00  0.00    +0.401 C 
ATOM      4  O   UNL     1      -4.396  -2.761   3.310  0.00  0.00    -0.226 OA
ATOM      5  H   UNL     1      -1.990  -0.886   2.828  0.00  0.00    +0.153 HD
BRANCH   3   6
ATOM      6  O   UNL     1      -4.423  -0.873   2.144  0.00  0.00    -0.449 OA
BRANCH   6   7
ATOM      7  C   UNL     1      -5.812  -1.088   1.889  0.00  0.00    +0.246 C 
BRANCH   7   8
ATOM      8  C   UNL     1      -6.358   0.058   1.034  0.00  0.00    +0.088 C 
ATOM      9  C   UNL     1      -6.374   1.339   1.832  0.00  0.00    -0.029 A 
ATOM     10  C   UNL     1      -5.370   2.067   2.434  0.00  0.00    +0.005 A 
ATOM     11  C   UNL     1      -5.673   3.232   3.117  0.00  0.00    +0.000 A 
ATOM     12  C   UNL     1      -6.984   3.667   3.197  0.00  0.00    +0.001 A 
ATOM     13  C   UNL     1      -7.995   2.945   2.598  0.00  0.00    +0.009 A 
ATOM     14  C   UNL     1      -7.696   1.769   1.907  0.00  0.00    -0.014 A 
ATOM     15  C   UNL     1      -8.569   0.813   1.183  0.00  0.00    -0.014 A 
ATOM     16  C   UNL     1      -7.793  -0.215   0.654  0.00  0.00    -0.029 A 
ATOM     17  C   UNL     1      -8.382  -1.232  -0.067  0.00  0.00    +0.005 A 
ATOM     18  C   UNL     1      -9.751  -1.234  -0.269  0.00  0.00    +0.000 A 
ATOM     19  C   UNL     1     -10.530  -0.218   0.252  0.00  0.00    +0.001 A 
ATOM     20  C   UNL     1      -9.949   0.803   0.975  0.00  0.00    +0.009 A 
ENDBRANCH   7   8
ENDBRANCH   6   7
ENDBRANCH   3   6
ENDBRANCH   1   2
BRANCH   1  21
ATOM     21  C   UNL     1      -1.979  -2.350   5.436  0.00  0.00    +0.376 C 
ATOM     22  O   UNL     1      -2.474  -1.288   5.772  0.00  0.00    -0.244 OA
ATOM     23  OXT UNL     1      -1.642  -3.161   6.282  0.00  0.00    -0.244 OA
ENDBRANCH   1  21
BRANCH   1  24
ATOM     24  C   UNL     1      -0.291  -2.643   3.643  0.00  0.00    +0.090 C 
BRANCH  24  32
ATOM     25  C   UNL     1       0.007  -8.050   2.461  0.00  0.00    +0.045 C 
ATOM     26  C   UNL     1       0.072  -6.733   1.731  0.00  0.00    -0.034 A 
ATOM     27  C   UNL     1       0.260  -6.713   0.339  0.00  0.00    +0.008 A 
ATOM     28  C   UNL     1       0.319  -5.523  -0.316  0.00  0.00    +0.045 A 
ATOM     29  C   UNL     1       0.189  -4.324   0.415  0.00  0.00    +0.116 A 
ATOM     30  N   UNL     1       0.207  -3.053   0.045  0.00  0.00    -0.339 N 
ATOM     31  C   UNL     1       0.040  -2.278   1.129  0.00  0.00    +0.068 A 
ATOM     32  C   UNL     1      -0.087  -3.087   2.218  0.00  0.00    +0.051 A 
ATOM     33  N   UNL     1       0.006  -4.376   1.773  0.00  0.00    -0.304 N 
ATOM     34  C   UNL     1      -0.056  -5.578   2.417  0.00  0.00    +0.096 A 
ATOM     35  H   UNL     1       0.322  -2.732  -0.863  0.00  0.00    +0.167 HD
BRANCH  31  36
ATOM     36  C   UNL     1       0.002  -0.794   1.139  0.00  0.00    +0.000 A 
ATOM     37  C   UNL     1       0.764  -0.081   2.062  0.00  0.00    +0.010 A 
ATOM     38  C   UNL     1       0.725   1.298   2.067  0.00  0.00    +0.001 A 
ATOM     39  C   UNL     1      -0.069   1.973   1.157  0.00  0.00    +0.000 A 
ATOM     40  C   UNL     1      -0.828   1.270   0.239  0.00  0.00    +0.001 A 
ATOM     41  C   UNL     1      -0.792  -0.109   0.221  0.00  0.00    +0.010 A 
ENDBRANCH  31  36
ENDBRANCH  24  32
ENDBRANCH   1  24
TORSDOF 8
