REMARK  Name = ZINC51046131
REMARK  7 active torsions:
REMARK  status: ('A' for Active; 'I' for Inactive)
REMARK    1  A    between atoms: C_1  and  C_2
REMARK    2  A    between atoms: C_2  and  C_4
REMARK    3  A    between atoms: C_2  and  N_14
REMARK    4  A    between atoms: N_10  and  C_11
REMARK    5  A    between atoms: N_10  and  C_12
REMARK    6  A    between atoms: C_18  and  C_21
REMARK    7  A    between atoms: N_23  and  C_24
REMARK                            x       y       z     vdW  Elec       q    Type
REMARK                         _______ _______ _______ _____ _____    ______ ____
ROOT
ATOM      1  C   UNL     1      -0.019   1.526   0.010  0.00  0.00    -0.005 C 
ATOM      2  C   UNL     1       0.002  -0.004   0.002  0.00  0.00    -0.002 C 
ENDROOT
BRANCH   2   3
ATOM      3  C   UNL     1      -1.412  -0.526   0.013  0.00  0.00    +0.123 A 
ATOM      4  N   UNL     1      -2.124  -0.477   1.125  0.00  0.00    -0.201 NA
ATOM      5  C   UNL     1      -3.373  -0.936   1.138  0.00  0.00    +0.217 A 
ATOM      6  N   UNL     1      -3.904  -1.444   0.031  0.00  0.00    -0.181 NA
ATOM      7  C   UNL     1      -3.185  -1.492  -1.085  0.00  0.00    +0.222 A 
ATOM      8  N   UNL     1      -1.938  -1.026  -1.091  0.00  0.00    -0.201 NA
ATOM      9  N   UNL     1      -3.732  -2.019  -2.237  0.00  0.00    -0.306 N 
ATOM     10  C   UNL     1      -5.106  -2.527  -2.229  0.00  0.00    +0.132 C 
ATOM     11  C   UNL     1      -2.938  -2.071  -3.467  0.00  0.00    +0.132 C 
ATOM     12  N   UNL     1      -4.116  -0.885   2.300  0.00  0.00    -0.327 N 
ATOM     13  H   UNL     1      -3.728  -0.514   3.108  0.00  0.00    +0.145 HD
ATOM     14  H   UNL     1      -5.026  -1.220   2.309  0.00  0.00    +0.145 HD
ENDBRANCH   2   3
BRANCH   2  15
ATOM     15  N   UNL     1       0.713  -0.491   1.192  0.00  0.00    +0.387 N 
ATOM     16  C   UNL     1       2.087   0.025   1.185  0.00  0.00    -0.078 C 
ATOM     17  C   UNL     1       2.806  -0.412   2.463  0.00  0.00    -0.018 C 
ATOM     18  C   UNL     1       2.834  -1.941   2.528  0.00  0.00    +0.009 C 
ATOM     19  C   UNL     1       1.399  -2.472   2.460  0.00  0.00    +0.058 C 
ATOM     20  C   UNL     1       0.732  -1.958   1.183  0.00  0.00    -0.065 C 
ATOM     21  H   UNL     1       0.238  -0.167   2.022  0.00  0.00    -0.081 HD
BRANCH  19  22
ATOM     22  C   UNL     1       1.420  -3.979   2.448  0.00  0.00    +0.215 C 
ATOM     23  O   UNL     1       0.944  -4.584   1.511  0.00  0.00    -0.276 OA
ATOM     24  N   UNL     1       1.967  -4.654   3.478  0.00  0.00    -0.312 N 
ATOM     25  H   UNL     1       2.348  -4.170   4.227  0.00  0.00    +0.149 HD
BRANCH  24  26
ATOM     26  C   UNL     1       1.987  -6.118   3.466  0.00  0.00    +0.073 C 
ATOM     27  C   UNL     1       1.619  -6.841   4.764  0.00  0.00    +0.024 C 
ATOM     28  C   UNL     1       3.073  -6.817   4.287  0.00  0.00    +0.024 C 
ENDBRANCH  24  26
ENDBRANCH  19  22
ENDBRANCH   2  15
TORSDOF 4
