REMARK  Name = ZINC63295819
REMARK  7 active torsions:
REMARK  status: ('A' for Active; 'I' for Inactive)
REMARK    1  A    between atoms: C_1  and  O_2
REMARK    2  A    between atoms: O_2  and  C_3
REMARK    3  A    between atoms: C_8  and  C_13
REMARK    4  A    between atoms: N_15  and  C_16
REMARK    5  A    between atoms: C_16  and  C_17
REMARK    6  A    between atoms: C_17  and  C_18
REMARK    7  A    between atoms: N_20  and  C_21
REMARK                            x       y       z     vdW  Elec       q    Type
REMARK                         _______ _______ _______ _____ _____    ______ ____
ROOT
ATOM      1  C   UNL     1       1.298  -4.761  -4.734  0.00  0.00    +0.239 C 
ATOM      2  O   UNL     1       0.207  -5.184  -4.418  0.00  0.00    -0.273 OA
ATOM      3  N   UNL     1       1.757  -4.949  -5.987  0.00  0.00    -0.313 N 
ATOM      4  H   UNL     1       2.631  -4.610  -6.240  0.00  0.00    +0.149 HD
ENDROOT
BRANCH   1  10
ATOM      5  C   UNL     1       0.605  -0.606  -1.053  0.00  0.00    +0.122 A 
ATOM      6  C   UNL     1       1.171   0.200  -2.059  0.00  0.00    +0.046 A 
ATOM      7  C   UNL     1       1.785  -0.338  -3.135  0.00  0.00    +0.013 A 
ATOM      8  C   UNL     1       1.862  -1.799  -3.257  0.00  0.00    -0.003 A 
ATOM      9  C   UNL     1       2.399  -2.610  -4.195  0.00  0.00    +0.016 C 
ATOM     10  C   UNL     1       2.142  -4.025  -3.725  0.00  0.00    +0.190 C 
ATOM     11  N   UNL     1       1.419  -3.902  -2.454  0.00  0.00    -0.370 N 
ATOM     12  C   UNL     1       1.260  -2.626  -2.186  0.00  0.00    +0.047 A 
ATOM     13  C   UNL     1       0.643  -1.962  -1.097  0.00  0.00    +0.071 A 
ATOM     14  H   UNL     1       1.112  -4.639  -1.904  0.00  0.00    +0.161 HD
BRANCH   5  16
ATOM     15  C   UNL     1      -0.017   1.425   0.010  0.00  0.00    +0.277 C 
ATOM     16  O   UNL     1       0.002  -0.004   0.002  0.00  0.00    -0.495 OA
ENDBRANCH   5  16
ENDBRANCH   1  10
BRANCH   3  17
ATOM     17  C   UNL     1       0.938  -5.665  -6.968  0.00  0.00    +0.113 C 
BRANCH  17  18
ATOM     18  C   UNL     1       1.686  -5.739  -8.301  0.00  0.00    +0.114 C 
BRANCH  18  19
ATOM     19  C   UNL     1       0.843  -6.476  -9.309  0.00  0.00    +0.216 C 
ATOM     20  O   UNL     1      -0.249  -6.899  -8.994  0.00  0.00    -0.276 OA
ATOM     21  N   UNL     1       1.302  -6.664 -10.562  0.00  0.00    -0.288 N 
ATOM     22  H   UNL     1       2.175  -6.325 -10.815  0.00  0.00    +0.151 HD
BRANCH  21  23
ATOM     23  C   UNL     1       0.482  -7.380 -11.543  0.00  0.00    +0.224 C 
ATOM     24  N   UNL     1       1.033  -7.237 -12.898  0.00  0.00    -0.316 N 
ATOM     25  C   UNL     1       1.447  -8.398 -13.551  0.00  0.00    +0.043 A 
ATOM     26  C   UNL     1       1.996  -8.457 -14.844  0.00  0.00    +0.024 A 
ATOM     27  C   UNL     1       2.374  -9.656 -15.402  0.00  0.00    +0.002 A 
ATOM     28  C   UNL     1       2.227 -10.844 -14.711  0.00  0.00    +0.001 A 
ATOM     29  C   UNL     1       1.688 -10.816 -13.435  0.00  0.00    +0.016 A 
ATOM     30  C   UNL     1       1.310  -9.615 -12.877  0.00  0.00    +0.032 A 
ATOM     31  S   UNL     1       0.598  -9.198 -11.301  0.00  0.00    -0.082 S 
ATOM     32  H   UNL     1       1.107  -6.368 -13.322  0.00  0.00    +0.149 HD
ENDBRANCH  21  23
ENDBRANCH  18  19
ENDBRANCH  17  18
ENDBRANCH   3  17
TORSDOF 6
