REMARK  Name = ZINC27667347
REMARK  9 active torsions:
REMARK  status: ('A' for Active; 'I' for Inactive)
REMARK    1  A    between atoms: C_1  and  C_2
REMARK    2  A    between atoms: C_3  and  C_15
REMARK    3  A    between atoms: N_5  and  C_7
REMARK    4  A    between atoms: N_17  and  C_18
REMARK    5  A    between atoms: C_18  and  C_19
REMARK    6  A    between atoms: C_19  and  C_21
REMARK    7  A    between atoms: C_19  and  N_29
REMARK    8  A    between atoms: C_24  and  O_27
REMARK    9  A    between atoms: O_27  and  C_28
REMARK                            x       y       z     vdW  Elec       q    Type
REMARK                         _______ _______ _______ _____ _____    ______ ____
ROOT
ATOM      1  C   UNL     1       1.314   0.112  -0.484  0.00  0.00    +0.249 C 
ATOM      2  O   UNL     1       1.815  -0.453   0.469  0.00  0.00    -0.270 OA
ATOM      3  N   UNL     1       0.740  -0.608  -1.468  0.00  0.00    -0.312 N 
ATOM      4  H   UNL     1       0.287  -0.098  -2.331  0.00  0.00    +0.149 HD
ENDROOT
BRANCH   1   7
ATOM      5  C   UNL     1       3.593   1.865  -1.827  0.00  0.00    +0.068 C 
ATOM      6  C   UNL     1       2.343   2.376  -1.158  0.00  0.00    +0.074 A 
ATOM      7  C   UNL     1       1.335   1.582  -0.564  0.00  0.00    +0.096 A 
ATOM      8  C   UNL     1       0.371   2.445  -0.077  0.00  0.00    +0.145 A 
ATOM      9  N   UNL     1       0.778   3.698  -0.353  0.00  0.00    -0.220 N 
ATOM     10  N   UNL     1       2.002   3.628  -1.027  0.00  0.00    -0.170 NA
ATOM     11 CL   UNL     1      -1.092   1.996   0.743  0.00  0.00    -0.061 Cl
BRANCH   9  12
ATOM     12  C   UNL     1       0.088   4.875  -0.026  0.00  0.00    +0.067 A 
ATOM     13  C   UNL     1      -1.300   4.897  -0.053  0.00  0.00    +0.030 A 
ATOM     14  C   UNL     1      -1.977   6.055   0.273  0.00  0.00    +0.040 A 
ATOM     15  C   UNL     1      -1.273   7.197   0.618  0.00  0.00    +0.124 A 
ATOM     16  C   UNL     1       0.111   7.178   0.641  0.00  0.00    +0.040 A 
ATOM     17  C   UNL     1       0.792   6.020   0.320  0.00  0.00    +0.030 A 
ATOM     18  F   UNL     1      -1.938   8.331   0.931  0.00  0.00    -0.205 F 
ENDBRANCH   9  12
ENDBRANCH   1   7
BRANCH   3  19
ATOM     19  C   UNL     1       0.719  -2.071  -1.389  0.00  0.00    +0.094 C 
BRANCH  19  20
ATOM     20  C   UNL     1       0.013  -2.639  -2.622  0.00  0.00    -0.020 C 
BRANCH  20  21
ATOM     21  N   UNL     1      -1.323  -2.039  -2.741  0.00  0.00    +0.385 N 
ATOM     22  C   UNL     1      -2.154  -2.369  -1.576  0.00  0.00    -0.078 C 
ATOM     23  C   UNL     1      -3.481  -1.612  -1.664  0.00  0.00    -0.019 C 
ATOM     24  C   UNL     1      -4.202  -2.005  -2.956  0.00  0.00    -0.004 C 
ATOM     25  C   UNL     1      -3.296  -1.696  -4.152  0.00  0.00    -0.019 C 
ATOM     26  C   UNL     1      -1.974  -2.450  -3.992  0.00  0.00    -0.078 C 
ATOM     27  H   UNL     1      -1.203  -0.946  -2.769  0.00  0.00    -0.081 HD
ENDBRANCH  20  21
BRANCH  20  28
ATOM     28  C   UNL     1      -0.118  -4.133  -2.482  0.00  0.00    -0.059 A 
ATOM     29  C   UNL     1      -0.640  -4.675  -1.322  0.00  0.00    +0.005 A 
ATOM     30  C   UNL     1      -0.766  -6.045  -1.194  0.00  0.00    +0.046 A 
ATOM     31  C   UNL     1      -0.358  -6.878  -2.226  0.00  0.00    +0.120 A 
ATOM     32  C   UNL     1       0.171  -6.332  -3.387  0.00  0.00    +0.046 A 
ATOM     33  C   UNL     1       0.289  -4.961  -3.513  0.00  0.00    +0.005 A 
BRANCH  31  34
ATOM     34  O   UNL     1      -0.475  -8.226  -2.100  0.00  0.00    -0.495 OA
ATOM     35  C   UNL     1      -1.028  -8.717  -0.877  0.00  0.00    +0.277 C 
ENDBRANCH  31  34
ENDBRANCH  20  28
ENDBRANCH  19  20
ENDBRANCH   3  19
TORSDOF 7
