REMARK  Name = ZINC15743970
REMARK  7 active torsions:
REMARK  status: ('A' for Active; 'I' for Inactive)
REMARK    1  A    between atoms: C_3  and  N_22
REMARK    2  A    between atoms: C_6  and  N_7
REMARK    3  A    between atoms: C_8  and  C_10
REMARK    4  A    between atoms: C_10  and  S_11
REMARK    5  A    between atoms: S_11  and  C_12
REMARK    6  A    between atoms: N_22  and  S_23
REMARK    7  A    between atoms: S_23  and  C_26
REMARK                            x       y       z     vdW  Elec       q    Type
REMARK                         _______ _______ _______ _____ _____    ______ ____
ROOT
ATOM      1  C   UNL     1       6.808  -5.086  -0.177  0.00  0.00    +0.025 A 
ATOM      2  C   UNL     1       8.009  -5.742   0.006  0.00  0.00    +0.026 A 
ATOM      3  C   UNL     1       8.047  -7.130   0.012  0.00  0.00    +0.048 A 
ATOM      4  C   UNL     1       6.877  -7.858  -0.160  0.00  0.00    +0.026 A 
ATOM      5  C   UNL     1       5.676  -7.201  -0.338  0.00  0.00    +0.025 A 
ATOM      6  C   UNL     1       5.637  -5.813  -0.344  0.00  0.00    +0.034 A 
ENDROOT
BRANCH   6   7
ATOM      7  N   UNL     1       4.418  -5.147  -0.524  0.00  0.00    -0.285 N 
ATOM      8  C   UNL     1       3.285  -5.662  -0.008  0.00  0.00    +0.227 C 
ATOM      9  O   UNL     1       3.306  -6.745   0.540  0.00  0.00    -0.275 OA
ATOM     10  H   UNL     1       4.389  -4.314  -1.021  0.00  0.00    +0.155 HD
BRANCH   8  11
ATOM     11  C   UNL     1       1.992  -4.895  -0.110  0.00  0.00    +0.170 C 
BRANCH  11  12
ATOM     12  S   UNL     1       0.660  -5.846   0.673  0.00  0.00    -0.116 S 
BRANCH  12  13
ATOM     13  C   UNL     1      -0.764  -4.828   0.472  0.00  0.00    +0.012 A 
ATOM     14  C   UNL     1      -0.659  -3.604  -0.176  0.00  0.00    +0.018 A 
ATOM     15  C   UNL     1      -1.775  -2.806  -0.331  0.00  0.00    +0.050 A 
ATOM     16  C   UNL     1      -3.004  -3.223   0.159  0.00  0.00    +0.162 A 
ATOM     17  C   UNL     1      -3.114  -4.448   0.805  0.00  0.00    +0.163 A 
ATOM     18  C   UNL     1      -1.993  -5.249   0.963  0.00  0.00    +0.064 A 
ATOM     19  O   UNL     1      -4.313  -4.878   1.285  0.00  0.00    -0.485 OA
ATOM     20  C   UNL     1      -5.336  -3.889   1.442  0.00  0.00    +0.270 C 
ATOM     21  C   UNL     1      -5.375  -3.033   0.169  0.00  0.00    +0.270 C 
ATOM     22  O   UNL     1      -4.092  -2.418   0.003  0.00  0.00    -0.485 OA
ENDBRANCH  12  13
ENDBRANCH  11  12
ENDBRANCH   8  11
ENDBRANCH   6   7
BRANCH   3  23
ATOM     23  N   UNL     1       9.265  -7.796   0.192  0.00  0.00    -0.216 N 
ATOM     24  H   UNL     1       9.322  -8.546   0.804  0.00  0.00    +0.174 HD
BRANCH  23  25
ATOM     25  S   UNL     1      10.608  -7.303  -0.642  0.00  0.00    +0.072 S 
ATOM     26  O   UNL     1      10.720  -5.901  -0.441  0.00  0.00    -0.150 OA
ATOM     27  O   UNL     1      11.651  -8.207  -0.303  0.00  0.00    -0.150 OA
BRANCH  25  28
ATOM     28  C   UNL     1      10.274  -7.542  -2.356  0.00  0.00    +0.111 A 
ATOM     29  C   UNL     1      10.496  -8.776  -2.938  0.00  0.00    +0.032 A 
ATOM     30  C   UNL     1      10.229  -8.966  -4.281  0.00  0.00    +0.043 A 
ATOM     31  C   UNL     1       9.750  -7.918  -5.047  0.00  0.00    +0.159 A 
ATOM     32  C   UNL     1       9.532  -6.679  -4.464  0.00  0.00    +0.160 A 
ATOM     33  C   UNL     1       9.795  -6.492  -3.118  0.00  0.00    +0.070 A 
ATOM     34  F   UNL     1       9.064  -5.654  -5.210  0.00  0.00    -0.202 F 
ATOM     35  F   UNL     1       9.493  -8.102  -6.360  0.00  0.00    -0.202 F 
ENDBRANCH  25  28
ENDBRANCH  23  25
ENDBRANCH   3  23
TORSDOF 7
