REMARK  Name = ZINC63403649
REMARK  5 active torsions:
REMARK  status: ('A' for Active; 'I' for Inactive)
REMARK    1  A    between atoms: C_1  and  C_2
REMARK    2  A    between atoms: N_4  and  C_5
REMARK    3  A    between atoms: C_5  and  C_7
REMARK    4  A    between atoms: C_5  and  C_17
REMARK    5  A    between atoms: C_7  and  C_8
REMARK                            x       y       z     vdW  Elec       q    Type
REMARK                         _______ _______ _______ _____ _____    ______ ____
ROOT
ATOM      1  C   UNL     1      -2.297  -1.441  -1.101  0.00  0.00    +0.163 C 
ENDROOT
BRANCH   1   2
ATOM      2  C   UNL     1      -1.867  -1.917  -2.465  0.00  0.00    +0.236 C 
ATOM      3  O   UNL     1      -1.736  -1.122  -3.371  0.00  0.00    -0.274 OA
ATOM      4  N   UNL     1      -1.629  -3.227  -2.677  0.00  0.00    -0.297 N 
ATOM      5  C   UNL     1      -1.790  -4.202  -1.590  0.00  0.00    +0.127 C 
ATOM      6  C   UNL     1      -2.763  -5.294  -2.051  0.00  0.00    +0.128 C 
ATOM      7  N   UNL     1      -2.338  -5.773  -3.374  0.00  0.00    -0.282 N 
ATOM      8  C   UNL     1      -2.176  -4.797  -4.462  0.00  0.00    +0.128 C 
ATOM      9  C   UNL     1      -1.209  -3.705  -4.002  0.00  0.00    +0.127 C 
ATOM     10  C   UNL     1      -2.099  -7.082  -3.587  0.00  0.00    +0.305 C 
ATOM     11  O   UNL     1      -2.385  -7.898  -2.732  0.00  0.00    -0.252 OA
ATOM     12  N   UNL     1      -1.545  -7.487  -4.747  0.00  0.00    -0.285 N 
ATOM     13  C   UNL     1      -0.630  -6.607  -5.486  0.00  0.00    +0.109 C 
ATOM     14  C   UNL     1       0.675  -7.364  -5.750  0.00  0.00    +0.019 C 
ATOM     15  C   UNL     1       0.361  -8.683  -6.460  0.00  0.00    +0.003 C 
ATOM     16  C   UNL     1      -0.525  -9.549  -5.562  0.00  0.00    +0.019 C 
ATOM     17  C   UNL     1      -1.840  -8.819  -5.292  0.00  0.00    +0.109 C 
ENDBRANCH   1   2
BRANCH   1  21
ATOM     18  C   UNL     1      -2.914   2.262  -1.855  0.00  0.00    +0.109 C 
ATOM     19  C   UNL     1      -2.253   0.913  -1.730  0.00  0.00    +0.211 C 
ATOM     20  O   UNL     1      -1.103   0.766  -2.087  0.00  0.00    -0.276 OA
ATOM     21  N   UNL     1      -2.940  -0.130  -1.222  0.00  0.00    -0.304 N 
ATOM     22  H   UNL     1      -3.859  -0.012  -0.937  0.00  0.00    +0.149 HD
ENDBRANCH   1  21
BRANCH   1  23
ATOM     23  C   UNL     1      -1.072  -1.326  -0.192  0.00  0.00    +0.065 C 
BRANCH  23  24
ATOM     24  C   UNL     1      -1.514  -0.969   1.204  0.00  0.00    -0.039 C 
ATOM     25  C   UNL     1      -1.740  -1.822   2.229  0.00  0.00    -0.001 A 
ATOM     26  C   UNL     1      -1.646  -3.282   2.347  0.00  0.00    +0.010 A 
ATOM     27  C   UNL     1      -1.943  -3.865   3.530  0.00  0.00    +0.001 A 
ATOM     28  C   UNL     1      -2.337  -3.112   4.644  0.00  0.00    +0.002 A 
ATOM     29  C   UNL     1      -2.447  -1.767   4.614  0.00  0.00    +0.026 A 
ATOM     30  C   UNL     1      -2.159  -1.049   3.420  0.00  0.00    +0.043 A 
ATOM     31  N   UNL     1      -2.191   0.232   3.143  0.00  0.00    -0.380 N 
ATOM     32  C   UNL     1      -1.790   0.417   1.744  0.00  0.00    +0.144 C 
ATOM     33  H   UNL     1      -2.435   0.939   3.760  0.00  0.00    +0.160 HD
ENDBRANCH  23  24
ENDBRANCH   1  23
TORSDOF 4
