REMARK  Name = ZINC35745540
REMARK  12 active torsions:
REMARK  status: ('A' for Active; 'I' for Inactive)
REMARK    1  A    between atoms: C_1  and  C_2
REMARK    2  A    between atoms: C_15  and  C_17
REMARK    3  A    between atoms: C_17  and  N_18
REMARK    4  A    between atoms: N_18  and  C_19
REMARK    5  A    between atoms: N_18  and  C_23
REMARK    6  A    between atoms: C_19  and  C_20
REMARK    7  A    between atoms: C_20  and  C_21
REMARK    8  A    between atoms: C_20  and  C_22
REMARK    9  A    between atoms: C_23  and  C_24
REMARK   10  A    between atoms: C_24  and  C_25
REMARK   11  A    between atoms: C_24  and  C_26
REMARK   12  A    between atoms: C_24  and  O_27
REMARK                            x       y       z     vdW  Elec       q    Type
REMARK                         _______ _______ _______ _____ _____    ______ ____
ROOT
ATOM      1  C   UNL     1      -4.037  -0.951  -0.329  0.00  0.00    +0.008 C 
ATOM      2  C   UNL     1      -3.328  -2.306  -0.309  0.00  0.00    -0.009 C 
ATOM      3  C   UNL     1      -2.346  -2.389  -1.482  0.00  0.00    +0.008 C 
ATOM      4  C   UNL     1      -1.819  -3.818  -1.617  0.00  0.00    +0.037 C 
ATOM      5  C   UNL     1      -1.267  -4.272  -0.269  0.00  0.00    -0.023 A 
ATOM      6  C   UNL     1      -1.621  -3.631   0.870  0.00  0.00    -0.004 A 
ATOM      7  S   UNL     1      -0.758  -4.480   2.168  0.00  0.00    -0.073 S 
ATOM      8  C   UNL     1       0.073  -5.687   1.185  0.00  0.00    +0.116 A 
ATOM      9  C   UNL     1      -0.351  -5.389  -0.129  0.00  0.00    +0.075 A 
ATOM     10  C   UNL     1       0.165  -6.216  -1.183  0.00  0.00    +0.260 A 
ATOM     11  O   UNL     1      -0.139  -6.042  -2.351  0.00  0.00    -0.267 OA
ATOM     12  N   UNL     1       1.010  -7.201  -0.797  0.00  0.00    -0.312 N 
ATOM     13  H   UNL     1       1.383  -7.784  -1.477  0.00  0.00    +0.170 HD
ATOM     14  C   UNL     1       1.360  -7.411   0.495  0.00  0.00    +0.094 A 
ATOM     15  N   UNL     1       0.909  -6.676   1.488  0.00  0.00    -0.229 NA
ATOM     16  C   UNL     1      -2.546  -2.459   1.003  0.00  0.00    +0.046 C 
ENDROOT
BRANCH  14  17
ATOM     17  C   UNL     1       2.309  -8.538   0.809  0.00  0.00    -0.003 C 
BRANCH  17  18
ATOM     18  N   UNL     1       2.685  -8.481   2.228  0.00  0.00    +0.386 N 
ATOM     19  H   UNL     1       1.883  -8.212   2.777  0.00  0.00    -0.081 HD
BRANCH  18  20
ATOM     20  C   UNL     1       3.759  -7.495   2.411  0.00  0.00    -0.075 C 
BRANCH  20  21
ATOM     21  C   UNL     1       3.178  -6.084   2.301  0.00  0.00    -0.034 C 
ATOM     22  C   UNL     1       2.207  -5.840   3.458  0.00  0.00    +0.005 C 
ATOM     23  C   UNL     1       4.313  -5.059   2.365  0.00  0.00    +0.005 C 
ENDBRANCH  20  21
ENDBRANCH  18  20
BRANCH  18  24
ATOM     24  C   UNL     1       3.155  -9.803   2.663  0.00  0.00    -0.044 C 
BRANCH  24  25
ATOM     25  C   UNL     1       1.963 -10.755   2.781  0.00  0.00    +0.046 C 
ATOM     26  C   UNL     1       2.425 -12.077   3.397  0.00  0.00    +0.039 C 
ATOM     27  C   UNL     1       0.892 -10.123   3.672  0.00  0.00    +0.039 C 
BRANCH  25  28
ATOM     28  O   UNL     1       1.419 -11.000   1.482  0.00  0.00    -0.391 OA
ATOM     29  H   UNL     1       0.658 -11.596   1.481  0.00  0.00    +0.210 HD
ENDBRANCH  25  28
ENDBRANCH  24  25
ENDBRANCH  18  24
ENDBRANCH  17  18
ENDBRANCH  14  17
TORSDOF 7
