REMARK  Name = ZINC10990218
REMARK  7 active torsions:
REMARK  status: ('A' for Active; 'I' for Inactive)
REMARK    1  A    between atoms: C_1  and  C_2
REMARK    2  A    between atoms: C_2  and  O_3
REMARK    3  A    between atoms: O_3  and  C_4
REMARK    4  A    between atoms: C_7  and  N_10
REMARK    5  A    between atoms: C_11  and  C_25
REMARK    6  A    between atoms: C_14  and  S_15
REMARK    7  A    between atoms: S_15  and  C_16
REMARK                            x       y       z     vdW  Elec       q    Type
REMARK                         _______ _______ _______ _____ _____    ______ ____
ROOT
ATOM      1  N   UNL     1      -0.002  -3.453  -2.763  0.00  0.00    -0.270 N 
ATOM      2  C   UNL     1      -0.418  -2.893  -3.951  0.00  0.00    +0.169 A 
ATOM      3  N   UNL     1      -0.253  -1.595  -3.843  0.00  0.00    -0.128 NA
ATOM      4  N   UNL     1       0.225  -1.307  -2.685  0.00  0.00    -0.122 NA
ATOM      5  C   UNL     1       0.396  -2.403  -1.981  0.00  0.00    +0.197 A 
ENDROOT
BRANCH   2   6
ATOM      6  C   UNL     1      -0.944  -3.617  -5.127  0.00  0.00    +0.021 A 
ATOM      7  C   UNL     1      -1.030  -2.976  -6.364  0.00  0.00    +0.012 A 
ATOM      8  C   UNL     1      -1.521  -3.657  -7.458  0.00  0.00    +0.002 A 
ATOM      9  C   UNL     1      -1.929  -4.973  -7.332  0.00  0.00    +0.020 A 
ATOM     10  C   UNL     1      -1.848  -5.615  -6.108  0.00  0.00    +0.042 A 
ATOM     11  C   UNL     1      -1.353  -4.946  -5.006  0.00  0.00    +0.031 A 
ATOM     12 CL   UNL     1      -2.362  -7.267  -5.960  0.00  0.00    -0.084 Cl
ENDBRANCH   2   6
BRANCH   1  16
ATOM     13  C   UNL     1       0.028  -7.501  -1.757  0.00  0.00    +0.121 A 
ATOM     14  C   UNL     1      -0.800  -6.623  -1.073  0.00  0.00    +0.047 A 
ATOM     15  C   UNL     1      -0.811  -5.283  -1.406  0.00  0.00    +0.030 A 
ATOM     16  C   UNL     1       0.008  -4.814  -2.424  0.00  0.00    +0.051 A 
ATOM     17  C   UNL     1       0.833  -5.694  -3.112  0.00  0.00    +0.030 A 
ATOM     18  C   UNL     1       0.847  -7.033  -2.775  0.00  0.00    +0.047 A 
BRANCH  13  19
ATOM     19  O   UNL     1       0.037  -8.821  -1.430  0.00  0.00    -0.492 OA
BRANCH  19  21
ATOM     20  C   UNL     1       0.787 -11.106  -1.668  0.00  0.00    +0.048 C 
ATOM     21  C   UNL     1       0.914  -9.668  -2.175  0.00  0.00    +0.225 C 
ENDBRANCH  19  21
ENDBRANCH  13  19
ENDBRANCH   1  16
BRANCH   5  22
ATOM     22  S   UNL     1       1.026  -2.503  -0.339  0.00  0.00    -0.073 S 
BRANCH  22  23
ATOM     23  C   UNL     1       1.321  -0.748  -0.008  0.00  0.00    +0.140 C 
ATOM     24  C   UNL     1       1.979  -0.587   1.365  0.00  0.00    +0.024 C 
ATOM     25  C   UNL     1       2.769   0.707   1.433  0.00  0.00    +0.003 C 
ATOM     26  C   UNL     1       1.907   1.955   1.372  0.00  0.00    +0.019 C 
ATOM     27  C   UNL     1       1.243   2.092   0.001  0.00  0.00    +0.104 C 
ATOM     28  N   UNL     1      -0.016   1.329   0.009  0.00  0.00    -0.314 N 
ATOM     29  C   UNL     1       0.002  -0.004   0.002  0.00  0.00    +0.226 C 
ATOM     30  O   UNL     1      -1.041  -0.623   0.004  0.00  0.00    -0.275 OA
ATOM     31  H   UNL     1      -0.864   1.800   0.016  0.00  0.00    +0.149 HD
ENDBRANCH  22  23
ENDBRANCH   5  22
TORSDOF 6
