REMARK  Name = ZINC64491442
REMARK  13 active torsions:
REMARK  status: ('A' for Active; 'I' for Inactive)
REMARK    1  A    between atoms: C_1  and  C_2
REMARK    2  A    between atoms: C_6  and  C_8
REMARK    3  A    between atoms: C_9  and  N_34
REMARK    4  A    between atoms: N_17  and  C_18
REMARK    5  A    between atoms: N_17  and  C_19
REMARK    6  A    between atoms: C_19  and  C_20
REMARK    7  A    between atoms: N_22  and  C_23
REMARK    8  A    between atoms: C_23  and  C_24
REMARK    9  A    between atoms: C_24  and  C_25
REMARK   10  A    between atoms: N_34  and  C_35
REMARK   11  A    between atoms: C_35  and  C_36
REMARK   12  A    between atoms: C_35  and  C_37
REMARK   13  A    between atoms: C_35  and  C_38
REMARK                            x       y       z     vdW  Elec       q    Type
REMARK                         _______ _______ _______ _____ _____    ______ ____
ROOT
ATOM      1  C   UNL     1       0.081  -2.962   2.674  0.00  0.00    +0.082 C 
ATOM      2  C   UNL     1      -0.150  -4.459   2.740  0.00  0.00    +0.212 C 
ATOM      3  N   UNL     1      -0.792  -4.654   4.056  0.00  0.00    -0.196 N 
ATOM      4  C   UNL     1      -0.146  -3.548   4.837  0.00  0.00    +0.277 C 
ATOM      5  N   UNL     1       0.038  -2.470   3.872  0.00  0.00    -0.250 NA
ATOM      6  S   UNL     1      -1.546  -3.208   5.979  0.00  0.00    -0.041 S 
ATOM      7  C   UNL     1      -2.309  -4.823   5.844  0.00  0.00    +0.178 C 
ATOM      8  N   UNL     1      -1.731  -5.344   4.795  0.00  0.00    -0.157 NA
ATOM      9  N   UNL     1      -3.283  -5.386   6.659  0.00  0.00    -0.303 N 
ATOM     10  C   UNL     1      -3.782  -6.735   6.379  0.00  0.00    +0.132 C 
ENDROOT
BRANCH   1  16
ATOM     11  C   UNL     1      -0.408   1.260   0.062  0.00  0.00    +0.044 C 
ATOM     12  C   UNL     1       0.089  -0.158   0.178  0.00  0.00    -0.050 A 
ATOM     13  C   UNL     1       0.772  -0.738  -0.876  0.00  0.00    +0.003 A 
ATOM     14  C   UNL     1       1.232  -2.040  -0.778  0.00  0.00    +0.001 A 
ATOM     15  C   UNL     1       1.011  -2.768   0.373  0.00  0.00    +0.010 A 
ATOM     16  C   UNL     1       0.322  -2.189   1.440  0.00  0.00    -0.001 A 
ATOM     17  C   UNL     1      -0.134  -0.873   1.337  0.00  0.00    +0.013 A 
ENDBRANCH   1  16
BRANCH   2  18
ATOM     18  N   UNL     1      -1.046  -4.892   1.659  0.00  0.00    -0.288 NA
ATOM     19  H   UNL     1      -1.126  -4.181   0.949  0.00  0.00    +0.125 HD
BRANCH  18  20
ATOM     20  C   UNL     1      -0.596  -6.165   1.081  0.00  0.00    +0.013 C 
ATOM     21  C   UNL     1      -0.477  -7.215   2.188  0.00  0.00    +0.027 C 
ATOM     22  C   UNL     1      -1.609  -6.638   0.036  0.00  0.00    +0.027 C 
ATOM     23  C   UNL     1       0.768  -5.969   0.416  0.00  0.00    +0.027 C 
ENDBRANCH  18  20
ENDBRANCH   2  18
BRANCH   9  24
ATOM     24  C   UNL     1      -3.810  -4.632   7.798  0.00  0.00    +0.202 C 
BRANCH  24  25
ATOM     25  C   UNL     1      -5.005  -3.825   7.357  0.00  0.00    +0.230 C 
ATOM     26  O   UNL     1      -5.378  -3.876   6.204  0.00  0.00    -0.274 OA
ATOM     27  N   UNL     1      -5.657  -3.048   8.244  0.00  0.00    -0.314 N 
ATOM     28  H   UNL     1      -5.359  -3.007   9.166  0.00  0.00    +0.149 HD
BRANCH  27  29
ATOM     29  C   UNL     1      -6.818  -2.264   7.815  0.00  0.00    +0.108 C 
BRANCH  29  30
ATOM     30  C   UNL     1      -7.369  -1.476   9.005  0.00  0.00    +0.052 C 
BRANCH  30  31
ATOM     31  C   UNL     1      -8.563  -0.669   8.564  0.00  0.00    -0.040 C 
ATOM     32  C   UNL     1      -9.865  -1.022   8.664  0.00  0.00    -0.001 A 
ATOM     33  C   UNL     1     -10.533  -2.217   9.193  0.00  0.00    +0.010 A 
ATOM     34  C   UNL     1     -11.883  -2.285   9.155  0.00  0.00    +0.001 A 
ATOM     35  C   UNL     1     -12.659  -1.244   8.625  0.00  0.00    +0.002 A 
ATOM     36  C   UNL     1     -12.117  -0.115   8.121  0.00  0.00    +0.026 A 
ATOM     37  C   UNL     1     -10.707   0.063   8.110  0.00  0.00    +0.043 A 
ATOM     38  N   UNL     1      -9.954   1.048   7.684  0.00  0.00    -0.380 N 
ATOM     39  C   UNL     1      -8.549   0.702   7.925  0.00  0.00    +0.144 C 
ATOM     40  H   UNL     1     -10.273   1.870   7.280  0.00  0.00    +0.160 HD
ENDBRANCH  30  31
ENDBRANCH  29  30
ENDBRANCH  27  29
ENDBRANCH  24  25
ENDBRANCH   9  24
TORSDOF 8
