REMARK  Name = ZINC17782829
REMARK  4 active torsions:
REMARK  status: ('A' for Active; 'I' for Inactive)
REMARK    1  A    between atoms: C_1  and  N_2
REMARK    2  A    between atoms: C_9  and  C_12
REMARK    3  A    between atoms: C_9  and  O_26
REMARK    4  A    between atoms: C_12  and  C_13
REMARK                            x       y       z     vdW  Elec       q    Type
REMARK                         _______ _______ _______ _____ _____    ______ ____
ROOT
ATOM      1  C   UNL     1      -0.087   1.306  -0.314  0.00  0.00    +0.138 C 
ATOM      2  N   UNL     1      -0.053  -0.154  -0.189  0.00  0.00    -0.271 N 
ATOM      3  C   UNL     1      -1.193  -0.953  -0.090  0.00  0.00    +0.043 A 
ATOM      4  C   UNL     1      -2.545  -0.615  -0.084  0.00  0.00    +0.025 A 
ATOM      5  C   UNL     1      -3.504  -1.600   0.027  0.00  0.00    +0.022 A 
ATOM      6  C   UNL     1      -3.134  -2.929   0.132  0.00  0.00    +0.041 A 
ATOM      7  C   UNL     1      -1.792  -3.272   0.126  0.00  0.00    +0.028 A 
ATOM      8  C   UNL     1      -0.833  -2.291   0.016  0.00  0.00    +0.016 A 
ATOM      9  C   UNL     1       0.677  -2.329  -0.021  0.00  0.00    +0.175 C 
ATOM     10  C   UNL     1       1.079  -0.877  -0.163  0.00  0.00    +0.256 C 
ATOM     11  O   UNL     1       2.211  -0.446  -0.235  0.00  0.00    -0.272 OA
ATOM     12 CL   UNL     1      -4.347  -4.163   0.272  0.00  0.00    -0.084 Cl
ENDROOT
BRANCH   9  13
ATOM     13  O   UNL     1       1.132  -3.082  -1.147  0.00  0.00    -0.374 OA
ATOM     14  H   UNL     1       2.094  -3.139  -1.220  0.00  0.00    +0.211 HD
ENDBRANCH   9  13
BRANCH   9  15
ATOM     15  C   UNL     1       1.230  -2.919   1.278  0.00  0.00    +0.128 C 
BRANCH  15  16
ATOM     16  C   UNL     1       2.735  -2.834   1.268  0.00  0.00    +0.166 C 
ATOM     17  O   UNL     1       3.348  -1.698   1.657  0.00  0.00    -0.292 OA
ATOM     18  C   UNL     1       3.467  -3.893   0.871  0.00  0.00    +0.043 C 
ATOM     19  C   UNL     1       4.966  -3.872   1.010  0.00  0.00    +0.047 C 
ATOM     20  C   UNL     1       5.484  -5.244   1.430  0.00  0.00    +0.041 C 
ATOM     21  C   UNL     1       4.945  -6.319   0.526  0.00  0.00    -0.036 A 
ATOM     22  C   UNL     1       5.731  -7.407   0.201  0.00  0.00    +0.004 A 
ATOM     23  C   UNL     1       5.231  -8.406  -0.614  0.00  0.00    +0.000 A 
ATOM     24  C   UNL     1       3.941  -8.327  -1.109  0.00  0.00    +0.001 A 
ATOM     25  C   UNL     1       3.147  -7.242  -0.798  0.00  0.00    +0.012 A 
ATOM     26  C   UNL     1       3.651  -6.228   0.015  0.00  0.00    +0.025 A 
ATOM     27  C   UNL     1       2.829  -5.035   0.324  0.00  0.00    +0.193 C 
ATOM     28  O   UNL     1       1.631  -5.035   0.109  0.00  0.00    -0.287 OA
ENDBRANCH  15  16
ENDBRANCH   9  15
TORSDOF 3
