REMARK  Name = ZINC06659209
REMARK  10 active torsions:
REMARK  status: ('A' for Active; 'I' for Inactive)
REMARK    1  A    between atoms: C_1  and  O_2
REMARK    2  A    between atoms: O_2  and  C_3
REMARK    3  A    between atoms: C_3  and  C_5
REMARK    4  A    between atoms: C_6  and  C_27
REMARK    5  A    between atoms: N_7  and  C_20
REMARK    6  A    between atoms: C_8  and  N_19
REMARK    7  A    between atoms: C_9  and  C_17
REMARK    8  A    between atoms: C_10  and  C_12
REMARK    9  A    between atoms: C_27  and  O_29
REMARK   10  A    between atoms: O_29  and  C_30
REMARK                            x       y       z     vdW  Elec       q    Type
REMARK                         _______ _______ _______ _____ _____    ______ ____
ROOT
ATOM      1  C   UNL     1      -0.280  -1.470  -0.707  0.00  0.00    +0.078 C 
ATOM      2  C   UNL     1       0.129  -2.752  -0.833  0.00  0.00    +0.135 C 
ATOM      3  N   UNL     1      -0.339  -3.729   0.020  0.00  0.00    -0.250 N 
ATOM      4  C   UNL     1      -1.476  -3.507   0.764  0.00  0.00    +0.107 C 
ATOM      5  C   UNL     1      -1.946  -2.247   0.950  0.00  0.00    +0.078 C 
ATOM      6  C   UNL     1      -1.246  -1.054   0.365  0.00  0.00    +0.108 C 
ENDROOT
BRANCH   3   7
ATOM      7  C   UNL     1       0.342  -4.946   0.130  0.00  0.00    +0.040 A 
ATOM      8  C   UNL     1       1.383  -5.081   1.040  0.00  0.00    +0.026 A 
ATOM      9  C   UNL     1       2.050  -6.285   1.150  0.00  0.00    +0.040 A 
ATOM     10  C   UNL     1       1.690  -7.354   0.347  0.00  0.00    +0.124 A 
ATOM     11  C   UNL     1       0.656  -7.220  -0.565  0.00  0.00    +0.040 A 
ATOM     12  C   UNL     1      -0.018  -6.020  -0.675  0.00  0.00    +0.026 A 
ATOM     13  F   UNL     1       2.347  -8.530   0.453  0.00  0.00    -0.205 F 
ENDBRANCH   3   7
BRANCH   6  14
ATOM     14  C   UNL     1      -0.495  -0.336   1.457  0.00  0.00    +0.003 A 
ATOM     15  C   UNL     1      -0.636   0.940   1.894  0.00  0.00    +0.012 A 
ATOM     16  C   UNL     1       0.172   1.389   2.921  0.00  0.00    +0.008 A 
ATOM     17  C   UNL     1       1.081   0.542   3.461  0.00  0.00    +0.045 A 
ATOM     18  S   UNL     1       0.811  -0.945   2.510  0.00  0.00    -0.101 S 
ENDBRANCH   6  14
BRANCH   4  19
ATOM     19  N   UNL     1      -2.141  -4.572   1.324  0.00  0.00    -0.345 N 
ATOM     20  H   UNL     1      -2.897  -4.416   1.912  0.00  0.00    +0.144 HD
ATOM     21  H   UNL     1      -1.854  -5.478   1.132  0.00  0.00    +0.144 HD
ENDBRANCH   4  19
BRANCH   1  22
ATOM     22  C   UNL     1       0.231  -0.462  -1.637  0.00  0.00    +0.338 C 
ATOM     23  O   UNL     1       0.935  -0.797  -2.570  0.00  0.00    -0.245 OA
BRANCH  22  25
ATOM     24  C   UNL     1       0.453   1.768  -2.407  0.00  0.00    +0.280 C 
ATOM     25  O   UNL     1      -0.080   0.839  -1.461  0.00  0.00    -0.465 OA
ENDBRANCH  22  25
ENDBRANCH   1  22
BRANCH   5  26
ATOM     26  C   UNL     1      -3.136  -2.051   1.721  0.00  0.00    +0.099 C 
ATOM     27  N   UNL     1      -4.081  -1.896   2.333  0.00  0.00    -0.191 NA
ENDBRANCH   5  26
BRANCH   2  28
ATOM     28  C   UNL     1       1.093  -3.111  -1.900  0.00  0.00    +0.354 C 
ATOM     29  O   UNL     1       0.690  -3.535  -2.964  0.00  0.00    -0.244 OA
BRANCH  28  30
ATOM     30  O   UNL     1       2.415  -2.968  -1.689  0.00  0.00    -0.464 OA
ATOM     31  C   UNL     1       3.295  -3.239  -2.812  0.00  0.00    +0.280 C 
ENDBRANCH  28  30
ENDBRANCH   2  28
TORSDOF 8
