REMARK  Name = ZINC44260613
REMARK  8 active torsions:
REMARK  status: ('A' for Active; 'I' for Inactive)
REMARK    1  A    between atoms: C_1  and  C_2
REMARK    2  A    between atoms: C_5  and  C_9
REMARK    3  A    between atoms: C_7  and  C_8
REMARK    4  A    between atoms: C_9  and  C_11
REMARK    5  A    between atoms: C_9  and  O_26
REMARK    6  A    between atoms: C_11  and  N_12
REMARK    7  A    between atoms: C_15  and  C_19
REMARK    8  A    between atoms: C_15  and  C_20
REMARK                            x       y       z     vdW  Elec       q    Type
REMARK                         _______ _______ _______ _____ _____    ______ ____
ROOT
ATOM      1  N   UNL     1      -1.359  -6.263  -0.157  0.00  0.00    -0.221 N 
ATOM      2  C   UNL     1      -1.135  -7.101  -1.188  0.00  0.00    +0.251 C 
ATOM      3  O   UNL     1      -0.903  -6.799  -2.339  0.00  0.00    -0.272 OA
ATOM      4  C   UNL     1      -1.235  -8.498  -0.611  0.00  0.00    +0.135 C 
ATOM      5  N   UNL     1      -1.530  -8.264   0.814  0.00  0.00    -0.281 N 
ATOM      6  C   UNL     1      -1.578  -6.930   0.982  0.00  0.00    +0.310 C 
ATOM      7  O   UNL     1      -1.800  -6.392   2.049  0.00  0.00    -0.252 OA
ATOM      8  C   UNL     1       0.093  -9.242  -0.769  0.00  0.00    +0.047 C 
ATOM      9  H   UNL     1      -1.662  -8.940   1.497  0.00  0.00    +0.152 HD
ENDROOT
BRANCH   4  10
ATOM     10  C   UNL     1      -2.355  -9.265  -1.265  0.00  0.00    -0.016 A 
ATOM     11  C   UNL     1      -2.702  -8.996  -2.576  0.00  0.00    +0.006 A 
ATOM     12  C   UNL     1      -3.729  -9.699  -3.177  0.00  0.00    +0.000 A 
ATOM     13  C   UNL     1      -4.410 -10.671  -2.467  0.00  0.00    +0.000 A 
ATOM     14  C   UNL     1      -4.062 -10.940  -1.157  0.00  0.00    +0.000 A 
ATOM     15  C   UNL     1      -3.032 -10.240  -0.557  0.00  0.00    +0.006 A 
ENDBRANCH   4  10
BRANCH   1  16
ATOM     16  C   UNL     1      -1.356  -4.802  -0.267  0.00  0.00    +0.154 C 
BRANCH  16  17
ATOM     17  C   UNL     1       0.059  -4.275  -0.021  0.00  0.00    +0.162 C 
BRANCH  17  22
ATOM     18  C   UNL     1      -0.018   1.503   0.010  0.00  0.00    +0.044 C 
ATOM     19  C   UNL     1       0.002  -0.004   0.002  0.00  0.00    -0.048 A 
ATOM     20  C   UNL     1       0.006  -0.689  -1.199  0.00  0.00    +0.004 A 
ATOM     21  C   UNL     1       0.025  -2.071  -1.207  0.00  0.00    +0.006 A 
ATOM     22  C   UNL     1       0.040  -2.768  -0.013  0.00  0.00    -0.017 A 
ATOM     23  C   UNL     1       0.037  -2.084   1.188  0.00  0.00    +0.009 A 
ATOM     24  C   UNL     1       0.023  -0.702   1.195  0.00  0.00    -0.047 A 
ATOM     25  C   UNL     1       0.025   0.045   2.504  0.00  0.00    +0.044 C 
ENDBRANCH  17  22
BRANCH  17  26
ATOM     26  O   UNL     1       0.926  -4.735  -1.061  0.00  0.00    -0.386 OA
ATOM     27  H   UNL     1       0.664  -4.448  -1.946  0.00  0.00    +0.210 HD
ENDBRANCH  17  26
ENDBRANCH  16  17
ENDBRANCH   1  16
TORSDOF 5
