REMARK  Name = ZINC06141429
REMARK  8 active torsions:
REMARK  status: ('A' for Active; 'I' for Inactive)
REMARK    1  A    between atoms: C_1  and  C_2
REMARK    2  A    between atoms: C_3  and  O_29
REMARK    3  A    between atoms: C_12  and  C_13
REMARK    4  A    between atoms: C_13  and  S_14
REMARK    5  A    between atoms: S_14  and  C_15
REMARK    6  A    between atoms: C_18  and  C_21
REMARK    7  A    between atoms: C_24  and  O_27
REMARK    8  A    between atoms: O_27  and  C_28
REMARK                            x       y       z     vdW  Elec       q    Type
REMARK                         _______ _______ _______ _____ _____    ______ ____
ROOT
ATOM      1  C   UNL     1       0.071  -4.351   2.466  0.00  0.00    +0.113 C 
ENDROOT
BRANCH   1  13
ATOM      2  C   UNL     1      -0.018   1.503   0.010  0.00  0.00    +0.051 C 
ATOM      3  C   UNL     1       0.002  -0.004   0.002  0.00  0.00    +0.034 A 
ATOM      4  C   UNL     1       0.006  -0.693  -1.200  0.00  0.00    +0.123 A 
ATOM      5  C   UNL     1       0.024  -2.086  -1.219  0.00  0.00    +0.046 A 
ATOM      6  C   UNL     1       0.039  -2.792  -0.051  0.00  0.00    +0.015 A 
ATOM      7  C   UNL     1       0.036  -2.113   1.173  0.00  0.00    +0.022 A 
ATOM      8  C   UNL     1       0.023  -0.706   1.198  0.00  0.00    +0.146 A 
ATOM      9  O   UNL     1       0.025  -0.054   2.380  0.00  0.00    -0.422 OA
ATOM     10  C   UNL     1       0.045  -0.719   3.546  0.00  0.00    +0.338 A 
ATOM     11  O   UNL     1       0.046  -0.089   4.588  0.00  0.00    -0.245 OA
ATOM     12  C   UNL     1       0.065  -2.128   3.595  0.00  0.00    +0.097 A 
ATOM     13  C   UNL     1       0.051  -2.845   2.441  0.00  0.00    -0.020 A 
BRANCH   4  14
ATOM     14  O   UNL     1      -0.009  -0.004  -2.370  0.00  0.00    -0.506 OA
ATOM     15  H   UNL     1       0.870   0.207  -2.713  0.00  0.00    +0.292 HD
ENDBRANCH   4  14
ENDBRANCH   1  13
BRANCH   1  16
ATOM     16  S   UNL     1      -1.575  -4.984   2.040  0.00  0.00    -0.082 S 
BRANCH  16  17
ATOM     17  C   UNL     1      -1.390  -6.735   2.111  0.00  0.00    +0.185 A 
ATOM     18  N   UNL     1      -0.285  -7.384   2.411  0.00  0.00    -0.201 NA
ATOM     19  H   UNL     1      -3.281  -7.464   1.633  0.00  0.00    +0.191 HD
ATOM     20  C   UNL     1      -0.513  -8.705   2.368  0.00  0.00    +0.182 A 
ATOM     21  N   UNL     1      -1.769  -8.910   2.040  0.00  0.00    -0.152 NA
ATOM     22  N   UNL     1      -2.359  -7.647   1.873  0.00  0.00    -0.253 N 
BRANCH  20  23
ATOM     23  C   UNL     1       0.490  -9.762   2.646  0.00  0.00    +0.021 A 
ATOM     24  C   UNL     1       1.795  -9.414   2.990  0.00  0.00    +0.015 A 
ATOM     25  C   UNL     1       2.725 -10.399   3.248  0.00  0.00    +0.046 A 
ATOM     26  C   UNL     1       2.362 -11.737   3.164  0.00  0.00    +0.120 A 
ATOM     27  C   UNL     1       1.063 -12.087   2.821  0.00  0.00    +0.046 A 
ATOM     28  C   UNL     1       0.127 -11.106   2.568  0.00  0.00    +0.015 A 
BRANCH  26  29
ATOM     29  O   UNL     1       3.281 -12.706   3.417  0.00  0.00    -0.495 OA
ATOM     30  C   UNL     1       2.840 -14.061   3.313  0.00  0.00    +0.277 C 
ENDBRANCH  26  29
ENDBRANCH  20  23
ENDBRANCH  16  17
ENDBRANCH   1  16
TORSDOF 6
