REMARK  Name = ZINC66825354
REMARK  8 active torsions:
REMARK  status: ('A' for Active; 'I' for Inactive)
REMARK    1  A    between atoms: C_1  and  C_2
REMARK    2  A    between atoms: C_5  and  N_8
REMARK    3  A    between atoms: N_8  and  C_9
REMARK    4  A    between atoms: C_10  and  C_12
REMARK    5  A    between atoms: C_12  and  N_13
REMARK    6  A    between atoms: N_13  and  C_14
REMARK    7  A    between atoms: C_18  and  C_20
REMARK    8  A    between atoms: C_26  and  O_29
REMARK                            x       y       z     vdW  Elec       q    Type
REMARK                         _______ _______ _______ _____ _____    ______ ____
ROOT
ATOM      1  C   UNL     1      -4.084  -3.332   6.257  0.00  0.00    +0.028 A 
ATOM      2  C   UNL     1      -4.014  -2.065   6.824  0.00  0.00    +0.023 A 
ATOM      3  C   UNL     1      -4.487  -1.849   8.105  0.00  0.00    +0.003 A 
ATOM      4  C   UNL     1      -5.033  -2.889   8.829  0.00  0.00    +0.013 A 
ATOM      5  C   UNL     1      -5.108  -4.165   8.268  0.00  0.00    +0.039 A 
ATOM      6  C   UNL     1      -4.635  -4.383   6.974  0.00  0.00    +0.036 A 
ENDROOT
BRANCH   5   7
ATOM      7  C   UNL     1      -5.691  -5.282   9.042  0.00  0.00    +0.247 C 
ATOM      8  O   UNL     1      -6.734  -5.123   9.647  0.00  0.00    -0.270 OA
ATOM      9  N   UNL     1      -5.067  -6.476   9.077  0.00  0.00    -0.295 N 
ATOM     10  C   UNL     1      -3.854  -6.710   8.282  0.00  0.00    +0.108 C 
ATOM     11  C   UNL     1      -2.749  -7.226   9.209  0.00  0.00    +0.021 C 
ATOM     12  C   UNL     1      -3.254  -8.458   9.963  0.00  0.00    +0.034 C 
ATOM     13  C   UNL     1      -4.464  -8.075  10.819  0.00  0.00    +0.132 C 
ATOM     14  C   UNL     1      -5.585  -7.567   9.914  0.00  0.00    +0.139 C 
BRANCH  13  15
ATOM     15  O   UNL     1      -4.915  -9.219  11.546  0.00  0.00    -0.390 OA
ATOM     16  H   UNL     1      -5.681  -9.049  12.111  0.00  0.00    +0.210 HD
ENDBRANCH  13  15
ENDBRANCH   5   7
BRANCH   1  17
ATOM     17  N   UNL     1      -3.604  -3.545   4.962  0.00  0.00    -0.335 N 
ATOM     18  H   UNL     1      -3.657  -4.428   4.565  0.00  0.00    +0.147 HD
BRANCH  17  19
ATOM     19  C   UNL     1      -3.022  -2.435   4.205  0.00  0.00    +0.197 C 
BRANCH  19  22
ATOM     20  N   UNL     1      -2.018  -2.073   1.973  0.00  0.00    -0.300 N 
ATOM     21  C   UNL     1      -1.825  -0.668   2.340  0.00  0.00    +0.132 C 
ATOM     22  C   UNL     1      -2.585  -2.926   2.849  0.00  0.00    +0.233 C 
ATOM     23  O   UNL     1      -2.744  -4.090   2.545  0.00  0.00    -0.274 OA
BRANCH  20  28
ATOM     24  C   UNL     1      -4.425   0.126  -1.227  0.00  0.00    +0.007 C 
ATOM     25  C   UNL     1      -3.333  -0.933  -1.059  0.00  0.00    -0.014 C 
ATOM     26  C   UNL     1      -3.881  -2.106  -0.243  0.00  0.00    +0.005 C 
ATOM     27  C   UNL     1      -2.789  -3.164  -0.075  0.00  0.00    +0.023 C 
ATOM     28  C   UNL     1      -1.593  -2.551   0.655  0.00  0.00    +0.076 C 
ATOM     29  C   UNL     1      -1.045  -1.378  -0.160  0.00  0.00    +0.023 C 
ATOM     30  C   UNL     1      -2.137  -0.319  -0.329  0.00  0.00    +0.005 C 
ENDBRANCH  20  28
ENDBRANCH  19  22
ENDBRANCH  17  19
ENDBRANCH   1  17
TORSDOF 6
