REMARK  Name = ZINC65024146
REMARK  6 active torsions:
REMARK  status: ('A' for Active; 'I' for Inactive)
REMARK    1  A    between atoms: C_1  and  N_2
REMARK    2  A    between atoms: C_3  and  N_11
REMARK    3  A    between atoms: N_7  and  C_10
REMARK    4  A    between atoms: C_15  and  C_18
REMARK    5  A    between atoms: N_20  and  C_21
REMARK    6  A    between atoms: C_21  and  C_22
REMARK                            x       y       z     vdW  Elec       q    Type
REMARK                         _______ _______ _______ _____ _____    ______ ____
ROOT
ATOM      1  N   UNL     1      -2.271   0.142   0.010  0.00  0.00    -0.316 N 
ATOM      2  C   UNL     1      -2.206   1.600  -0.154  0.00  0.00    +0.106 C 
ATOM      3  C   UNL     1      -2.950   2.261   1.010  0.00  0.00    +0.020 C 
ATOM      4  C   UNL     1      -4.372   1.700   1.085  0.00  0.00    +0.016 C 
ATOM      5  C   UNL     1      -4.314   0.193   1.342  0.00  0.00    +0.092 C 
ATOM      6  C   UNL     1      -3.586  -0.492   0.176  0.00  0.00    +0.119 C 
ENDROOT
BRANCH   1   9
ATOM      7  C   UNL     1      -1.356  -0.870  -2.430  0.00  0.00    +0.155 C 
ATOM      8  N   UNL     1      -0.644  -1.129  -1.177  0.00  0.00    -0.285 N 
ATOM      9  C   UNL     1      -1.127  -0.614   0.002  0.00  0.00    +0.110 A 
ATOM     10  C   UNL     1      -0.456  -0.862   1.167  0.00  0.00    +0.112 A 
ATOM     11  C   UNL     1       0.713  -1.638   1.129  0.00  0.00    +0.258 A 
ATOM     12  O   UNL     1       1.328  -1.872   2.155  0.00  0.00    -0.267 OA
ATOM     13  N   UNL     1       1.151  -2.124  -0.049  0.00  0.00    -0.264 N 
ATOM     14  C   UNL     1       0.476  -1.875  -1.186  0.00  0.00    +0.333 A 
ATOM     15  O   UNL     1       0.885  -2.328  -2.237  0.00  0.00    -0.246 OA
ATOM     16  C   UNL     1       2.371  -2.934  -0.092  0.00  0.00    +0.157 C 
ENDBRANCH   1   9
BRANCH   5  17
ATOM     17  C   UNL     1      -5.715  -0.353   1.449  0.00  0.00    +0.218 C 
ATOM     18  O   UNL     1      -6.093  -1.208   0.676  0.00  0.00    -0.275 OA
ATOM     19  N   UNL     1      -6.547   0.108   2.404  0.00  0.00    -0.311 N 
ATOM     20  H   UNL     1      -6.244   0.791   3.022  0.00  0.00    +0.149 HD
BRANCH  19  21
ATOM     21  C   UNL     1      -7.908  -0.423   2.508  0.00  0.00    +0.139 C 
BRANCH  21  22
ATOM     22  C   UNL     1      -8.626   0.254   3.648  0.00  0.00    -0.030 A 
ATOM     23  C   UNL     1      -8.561  -0.283   4.920  0.00  0.00    +0.006 A 
ATOM     24  C   UNL     1      -9.219   0.337   5.966  0.00  0.00    +0.020 A 
ATOM     25  C   UNL     1      -9.941   1.495   5.739  0.00  0.00    +0.041 A 
ATOM     26  C   UNL     1     -10.005   2.032   4.465  0.00  0.00    +0.020 A 
ATOM     27  C   UNL     1      -9.343   1.414   3.422  0.00  0.00    +0.006 A 
ATOM     28 CL   UNL     1     -10.768   2.274   7.052  0.00  0.00    -0.084 Cl
ENDBRANCH  21  22
ENDBRANCH  19  21
ENDBRANCH   5  17
TORSDOF 4
