REMARK  Name = ZINC24779667
REMARK  11 active torsions:
REMARK  status: ('A' for Active; 'I' for Inactive)
REMARK    1  A    between atoms: C_1  and  C_2
REMARK    2  A    between atoms: C_3  and  C_14
REMARK    3  A    between atoms: C_4  and  C_13
REMARK    4  A    between atoms: N_5  and  C_7
REMARK    5  A    between atoms: N_21  and  C_22
REMARK    6  A    between atoms: C_22  and  C_23
REMARK    7  A    between atoms: N_25  and  C_26
REMARK    8  A    between atoms: C_26  and  C_28
REMARK    9  A    between atoms: C_26  and  C_34
REMARK   10  A    between atoms: C_34  and  C_35
REMARK   11  A    between atoms: C_34  and  C_36
REMARK                            x       y       z     vdW  Elec       q    Type
REMARK                         _______ _______ _______ _____ _____    ______ ____
ROOT
ATOM      1  C   UNL     1      -1.280   1.825   0.015  0.00  0.00    +0.054 C 
ATOM      2  C   UNL     1       0.070   1.185  -0.143  0.00  0.00    +0.204 C 
ATOM      3  O   UNL     1       0.131  -0.020  -0.261  0.00  0.00    -0.277 OA
ATOM      4  N   UNL     1       1.207   1.890  -0.164  0.00  0.00    -0.318 N 
ATOM      5  C   UNL     1       1.240   3.346  -0.065  0.00  0.00    +0.085 C 
ATOM      6  C   UNL     1      -0.084   3.863   0.501  0.00  0.00    -0.058 C 
ATOM      7  N   UNL     1      -1.191   3.264  -0.261  0.00  0.00    +0.397 N 
ATOM      8  H   UNL     1       2.145   1.323  -0.260  0.00  0.00    +0.149 HD
ATOM      9  H   UNL     1      -0.988   3.396  -1.334  0.00  0.00    -0.079 HD
ENDROOT
BRANCH   1  12
ATOM     10  C   UNL     1      -1.402   2.320  -3.113  0.00  0.00    +0.068 C 
ATOM     11  C   UNL     1      -2.306   1.405  -2.326  0.00  0.00    +0.063 A 
ATOM     12  C   UNL     1      -2.251   1.188  -0.945  0.00  0.00    -0.009 A 
ATOM     13  C   UNL     1      -3.221   0.300  -0.624  0.00  0.00    +0.044 A 
ATOM     14  N   UNL     1      -3.872  -0.027  -1.763  0.00  0.00    -0.237 N 
ATOM     15  N   UNL     1      -3.277   0.678  -2.817  0.00  0.00    -0.171 NA
ATOM     16  C   UNL     1      -3.522  -0.227   0.755  0.00  0.00    +0.066 C 
BRANCH  14  17
ATOM     17  C   UNL     1      -4.949  -0.918  -1.871  0.00  0.00    +0.066 A 
ATOM     18  C   UNL     1      -5.004  -1.819  -2.926  0.00  0.00    +0.028 A 
ATOM     19  C   UNL     1      -6.064  -2.698  -3.027  0.00  0.00    +0.002 A 
ATOM     20  C   UNL     1      -7.075  -2.676  -2.084  0.00  0.00    +0.000 A 
ATOM     21  C   UNL     1      -7.026  -1.777  -1.035  0.00  0.00    +0.002 A 
ATOM     22  C   UNL     1      -5.965  -0.898  -0.926  0.00  0.00    +0.028 A 
ENDBRANCH  14  17
ENDBRANCH   1  12
BRANCH   7  23
ATOM     23  C   UNL     1      -2.462   3.938   0.037  0.00  0.00    +0.020 C 
BRANCH  23  24
ATOM     24  C   UNL     1      -2.407   5.357  -0.466  0.00  0.00    +0.197 C 
ATOM     25  O   UNL     1      -1.408   5.767  -1.019  0.00  0.00    -0.278 OA
ATOM     26  N   UNL     1      -3.468   6.172  -0.302  0.00  0.00    -0.310 N 
ATOM     27  H   UNL     1      -4.374   5.800   0.199  0.00  0.00    +0.149 HD
BRANCH  26  28
ATOM     28  C   UNL     1      -3.416   7.552  -0.791  0.00  0.00    +0.106 C 
BRANCH  28  29
ATOM     29  C   UNL     1      -4.814   8.044  -1.059  0.00  0.00    -0.027 A 
ATOM     30  C   UNL     1      -5.841   7.713  -0.194  0.00  0.00    +0.005 A 
ATOM     31  C   UNL     1      -7.124   8.167  -0.438  0.00  0.00    +0.000 A 
ATOM     32  C   UNL     1      -7.381   8.946  -1.550  0.00  0.00    +0.000 A 
ATOM     33  C   UNL     1      -6.356   9.273  -2.418  0.00  0.00    +0.000 A 
ATOM     34  C   UNL     1      -5.072   8.821  -2.172  0.00  0.00    +0.005 A 
ENDBRANCH  28  29
BRANCH  28  35
ATOM     35  C   UNL     1      -2.755   8.442   0.264  0.00  0.00    +0.008 C 
ATOM     36  C   UNL     1      -1.335   7.942   0.535  0.00  0.00    +0.009 C 
ATOM     37  C   UNL     1      -2.700   9.883  -0.247  0.00  0.00    +0.009 C 
ENDBRANCH  28  35
ENDBRANCH  26  28
ENDBRANCH  23  24
ENDBRANCH   7  23
TORSDOF 7
