REMARK  Name = ZINC22846781
REMARK  9 active torsions:
REMARK  status: ('A' for Active; 'I' for Inactive)
REMARK    1  A    between atoms: C_1  and  C_2
REMARK    2  A    between atoms: C_2  and  C_3
REMARK    3  A    between atoms: C_3  and  C_4
REMARK    4  A    between atoms: C_4  and  N_5
REMARK    5  A    between atoms: C_6  and  N_34
REMARK    6  A    between atoms: C_7  and  N_14
REMARK    7  A    between atoms: N_14  and  C_15
REMARK    8  A    between atoms: C_20  and  C_22
REMARK    9  A    between atoms: C_22  and  N_23
REMARK                            x       y       z     vdW  Elec       q    Type
REMARK                         _______ _______ _______ _____ _____    ______ ____
ROOT
ATOM      1  N   UNL     1      -2.493   1.171   0.043  0.00  0.00    -0.260 N 
ATOM      2  C   UNL     1      -3.635   1.858  -0.165  0.00  0.00    +0.238 C 
ATOM      3  O   UNL     1      -4.670   1.263  -0.383  0.00  0.00    -0.274 OA
ENDROOT
BRANCH   1   6
ATOM      4  N   UNL     1       0.177   3.273   1.440  0.00  0.00    -0.280 N 
ATOM      5  C   UNL     1      -1.020   2.607   1.326  0.00  0.00    +0.127 A 
ATOM      6  C   UNL     1      -1.272   1.862   0.192  0.00  0.00    +0.140 A 
ATOM      7  C   UNL     1      -0.287   1.799  -0.812  0.00  0.00    +0.277 A 
ATOM      8  O   UNL     1      -0.481   1.144  -1.822  0.00  0.00    -0.266 OA
ATOM      9  N   UNL     1       0.870   2.471  -0.651  0.00  0.00    -0.273 N 
ATOM     10  H   UNL     1       1.643   2.430  -1.432  0.00  0.00    +0.173 HD
ATOM     11  C   UNL     1       1.095   3.196   0.459  0.00  0.00    +0.331 A 
ATOM     12  O   UNL     1       2.148   3.792   0.579  0.00  0.00    -0.246 OA
BRANCH   5  13
ATOM     13  N   UNL     1      -1.958   2.686   2.327  0.00  0.00    -0.343 N 
ATOM     14  H   UNL     1      -2.914   2.150   2.230  0.00  0.00    +0.144 HD
ATOM     15  H   UNL     1      -1.753   3.285   3.227  0.00  0.00    +0.144 HD
ENDBRANCH   5  13
BRANCH   4  16
ATOM     16  C   UNL     1       0.455   4.072   2.636  0.00  0.00    +0.128 C 
BRANCH  16  17
ATOM     17  C   UNL     1      -0.031   5.506   2.416  0.00  0.00    +0.021 C 
BRANCH  17  19
ATOM     18  C   UNL     1      -0.227   7.774   3.444  0.00  0.00    +0.004 C 
ATOM     19  C   UNL     1       0.259   6.340   3.665  0.00  0.00    -0.002 C 
ENDBRANCH  17  19
ENDBRANCH  16  17
ENDBRANCH   4  16
ENDBRANCH   1   6
BRANCH   1  20
ATOM     20  C   UNL     1      -2.521  -0.292   0.114  0.00  0.00    +0.082 C 
ATOM     21  C   UNL     1      -3.011  -0.877  -1.226  0.00  0.00    +0.023 C 
ATOM     22  C   UNL     1      -3.873  -2.098  -0.815  0.00  0.00    +0.002 C 
ATOM     23  C   UNL     1      -4.590  -1.595   0.463  0.00  0.00    +0.002 C 
ATOM     24  C   UNL     1      -3.524  -0.749   1.188  0.00  0.00    +0.023 C 
ENDBRANCH   1  20
BRANCH   2  25
ATOM     25  C   UNL     1      -3.627   3.365  -0.126  0.00  0.00    +0.201 C 
BRANCH  25  26
ATOM     26  N   UNL     1      -5.008   3.863  -0.144  0.00  0.00    -0.319 N 
ATOM     27  C   UNL     1      -5.830   3.167   0.848  0.00  0.00    +0.106 C 
ATOM     28  C   UNL     1      -7.249   3.746   0.804  0.00  0.00    +0.024 C 
ATOM     29  C   UNL     1      -7.189   5.182   1.329  0.00  0.00    +0.038 C 
ATOM     30  C   UNL     1      -6.048   5.917   0.670  0.00  0.00    -0.023 A 
ATOM     31  C   UNL     1      -5.041   5.252  -0.005  0.00  0.00    +0.069 A 
ATOM     32  C   UNL     1      -4.001   5.986  -0.582  0.00  0.00    +0.145 A 
ATOM     33  C   UNL     1      -3.980   7.362  -0.483  0.00  0.00    +0.040 A 
ATOM     34  C   UNL     1      -4.994   8.021   0.189  0.00  0.00    +0.003 A 
ATOM     35  C   UNL     1      -6.022   7.300   0.761  0.00  0.00    +0.005 A 
ATOM     36  F   UNL     1      -3.010   5.345  -1.239  0.00  0.00    -0.204 F 
ENDBRANCH  25  26
ENDBRANCH   2  25
TORSDOF 8
