REMARK  Name = ZINC12194825
REMARK  13 active torsions:
REMARK  status: ('A' for Active; 'I' for Inactive)
REMARK    1  A    between atoms: C_1  and  C_2
REMARK    2  A    between atoms: C_2  and  C_3
REMARK    3  A    between atoms: C_3  and  C_5
REMARK    4  A    between atoms: C_3  and  O_32
REMARK    5  A    between atoms: C_11  and  C_13
REMARK    6  A    between atoms: C_13  and  C_14
REMARK    7  A    between atoms: C_14  and  C_25
REMARK    8  A    between atoms: N_18  and  C_21
REMARK    9  A    between atoms: C_21  and  C_22
REMARK   10  A    between atoms: C_22  and  N_69
REMARK   11  A    between atoms: C_23  and  N_69
REMARK   12  A    between atoms: C_24  and  N_69
REMARK   13  A    between atoms: C_30  and  C_31
REMARK                            x       y       z     vdW  Elec       q    Type
REMARK                         _______ _______ _______ _____ _____    ______ ____
ROOT
ATOM      1  C   UNL     1       0.363  -4.869   5.706  0.00  0.00    +0.089 C 
ATOM      2  C   UNL     1      -1.054  -4.408   6.103  0.00  0.00    +0.117 C 
ATOM      3  C   UNL     1      -0.821  -3.570   7.341  0.00  0.00    +0.223 C 
ATOM      4  O   UNL     1      -1.684  -3.009   7.982  0.00  0.00    -0.275 OA
ATOM      5  N   UNL     1       0.489  -3.544   7.616  0.00  0.00    -0.243 N 
ATOM      6  C   UNL     1       1.248  -4.241   6.761  0.00  0.00    +0.233 C 
ATOM      7  O   UNL     1       2.454  -4.353   6.824  0.00  0.00    -0.274 OA
ENDROOT
BRANCH   1   8
ATOM      8  C   UNL     1       0.465  -6.372   5.749  0.00  0.00    -0.029 A 
ATOM      9  C   UNL     1       1.320  -6.981   6.649  0.00  0.00    +0.005 A 
ATOM     10  C   UNL     1       1.413  -8.360   6.688  0.00  0.00    +0.000 A 
ATOM     11  C   UNL     1       0.650  -9.129   5.829  0.00  0.00    +0.000 A 
ATOM     12  C   UNL     1      -0.205  -8.519   4.930  0.00  0.00    +0.003 A 
ATOM     13  C   UNL     1      -0.301  -7.141   4.894  0.00  0.00    -0.046 A 
ATOM     14  C   UNL     1      -1.238  -6.476   3.918  0.00  0.00    +0.044 C 
ENDBRANCH   1   8
BRANCH   1  15
ATOM     15  C   UNL     1       0.730  -4.346   4.316  0.00  0.00    +0.117 C 
BRANCH  15  22
ATOM     16  C   UNL     1       0.482  -0.867   0.717  0.00  0.00    +0.021 C 
ATOM     17  C   UNL     1       0.412  -2.392   0.822  0.00  0.00    +0.025 C 
ATOM     18  C   UNL     1       1.328  -2.864   1.956  0.00  0.00    +0.108 C 
ATOM     19  N   UNL     1       0.958  -2.155   3.189  0.00  0.00    -0.301 N 
ATOM     20  C   UNL     1       0.906  -0.687   3.172  0.00  0.00    +0.108 C 
ATOM     21  C   UNL     1      -0.005  -0.240   2.025  0.00  0.00    +0.025 C 
ATOM     22  C   UNL     1       0.672  -2.840   4.314  0.00  0.00    +0.217 C 
ATOM     23  O   UNL     1       0.367  -2.243   5.325  0.00  0.00    -0.276 OA
BRANCH  16  24
ATOM     24  C   UNL     1      -0.405  -0.394  -0.437  0.00  0.00    +0.117 C 
BRANCH  24  26
ATOM     25  C   UNL     1      -0.877  -0.649  -2.877  0.00  0.00    +0.006 C 
ATOM     26  C   UNL     1       0.083  -1.021  -1.745  0.00  0.00    +0.028 C 
ENDBRANCH  24  26
BRANCH  24  27
ATOM     27  O   UNL     1      -0.338   1.030  -0.537  0.00  0.00    -0.392 OA
ATOM     28  H   UNL     1       0.551   1.371  -0.703  0.00  0.00    +0.210 HD
ENDBRANCH  24  27
ENDBRANCH  16  24
ENDBRANCH  15  22
ENDBRANCH   1  15
BRANCH   5  29
ATOM     29  C   UNL     1       1.046  -2.814   8.757  0.00  0.00    +0.098 C 
BRANCH  29  30
ATOM     30  C   UNL     1       1.088  -3.733   9.979  0.00  0.00    -0.060 C 
BRANCH  30  33
ATOM     31  C   UNL     1       0.753  -1.911  11.538  0.00  0.00    -0.097 C 
ATOM     32  C   UNL     1       1.924  -3.909  12.245  0.00  0.00    -0.097 C 
ATOM     33  N   UNL     1       1.671  -2.989  11.116  0.00  0.00    +0.377 N 
ATOM     34  H   UNL     1       2.562  -2.572  10.819  0.00  0.00    -0.083 HD
ENDBRANCH  30  33
ENDBRANCH  29  30
ENDBRANCH   5  29
TORSDOF 9
