REMARK  Name = ZINC04256795
REMARK  17 active torsions:
REMARK  status: ('A' for Active; 'I' for Inactive)
REMARK    1  A    between atoms: C_1  and  C_2
REMARK    2  A    between atoms: C_2  and  C_30
REMARK    3  A    between atoms: C_4  and  C_10
REMARK    4  A    between atoms: C_6  and  C_8
REMARK    5  A    between atoms: C_6  and  C_9
REMARK    6  A    between atoms: C_10  and  O_12
REMARK    7  A    between atoms: O_12  and  C_13
REMARK    8  A    between atoms: C_13  and  C_14
REMARK    9  A    between atoms: C_14  and  C_15
REMARK   10  A    between atoms: C_15  and  C_16
REMARK   11  A    between atoms: C_16  and  C_17
REMARK   12  A    between atoms: C_17  and  O_19
REMARK   13  A    between atoms: O_19  and  C_20
REMARK   14  A    between atoms: C_22  and  C_28
REMARK   15  A    between atoms: C_22  and  C_29
REMARK   16  A    between atoms: C_24  and  C_26
REMARK   17  A    between atoms: C_24  and  C_27
REMARK                            x       y       z     vdW  Elec       q    Type
REMARK                         _______ _______ _______ _____ _____    ______ ____
ROOT
ATOM      1  C   UNL     1      -0.117   9.056  -4.075  0.00  0.00    +0.042 C 
ENDROOT
BRANCH   1   2
ATOM      2  C   UNL     1      -0.366   9.461  -5.529  0.00  0.00    +0.232 C 
BRANCH   2   3
ATOM      3  O   UNL     1      -0.386  10.910  -5.632  0.00  0.00    -0.464 OA
BRANCH   3   4
ATOM      4  C   UNL     1      -0.594  11.431  -6.851  0.00  0.00    +0.310 C 
ATOM      5  O   UNL     1      -0.755  10.702  -7.801  0.00  0.00    -0.251 OA
BRANCH   4   9
ATOM      6  C   UNL     1       0.478  15.344  -8.660  0.00  0.00    -0.010 C 
ATOM      7  C   UNL     1      -0.939  14.761  -8.720  0.00  0.00    -0.073 C 
ATOM      8  C   UNL     1      -0.880  13.251  -8.508  0.00  0.00    +0.001 C 
ATOM      9  C   UNL     1      -0.628  12.930  -7.035  0.00  0.00    +0.095 C 
ATOM     10  C   UNL     1      -1.774  13.513  -6.209  0.00  0.00    +0.001 C 
ATOM     11  C   UNL     1      -1.846  15.027  -6.394  0.00  0.00    -0.073 C 
ATOM     12  N   UNL     1      -1.820  15.429  -7.785  0.00  0.00    +0.386 N 
ATOM     13  C   UNL     1      -0.715  15.695  -5.603  0.00  0.00    -0.010 C 
ATOM     14  C   UNL     1      -3.180  15.507  -5.778  0.00  0.00    -0.010 C 
ATOM     15  C   UNL     1      -1.475  15.010 -10.148  0.00  0.00    -0.010 C 
ATOM     16  H   UNL     1      -1.569  16.499  -7.745  0.00  0.00    -0.084 HD
ATOM     17  H   UNL     1      -2.863  15.309  -8.113  0.00  0.00    -0.084 HD
ENDBRANCH   4   9
ENDBRANCH   3   4
ENDBRANCH   2   3
ENDBRANCH   1   2
BRANCH   1  18
ATOM     18  C   UNL     1      -0.097   7.530  -3.967  0.00  0.00    +0.014 C 
BRANCH  18  19
ATOM     19  C   UNL     1       0.152   7.126  -2.513  0.00  0.00    +0.121 C 
BRANCH  19  20
ATOM     20  C   UNL     1       0.172   5.622  -2.406  0.00  0.00    +0.307 C 
ATOM     21  O   UNL     1       0.005   4.945  -3.392  0.00  0.00    -0.251 OA
BRANCH  20  22
ATOM     22  O   UNL     1       0.376   5.037  -1.216  0.00  0.00    -0.461 OA
BRANCH  22  23
ATOM     23  C   UNL     1       0.383   3.582  -1.188  0.00  0.00    +0.174 C 
ATOM     24  C   UNL     1       1.307   3.104  -0.068  0.00  0.00    +0.031 C 
ATOM     25  C   UNL     1       1.318   1.579  -0.002  0.00  0.00    -0.070 C 
ATOM     26  N   UNL     1      -0.012   1.005   0.008  0.00  0.00    +0.386 N 
ATOM     27  C   UNL     1      -1.049   1.551  -0.842  0.00  0.00    -0.070 C 
ATOM     28  C   UNL     1      -1.030   3.077  -0.900  0.00  0.00    +0.031 C 
ATOM     29  C   UNL     1      -0.958   0.983  -2.263  0.00  0.00    -0.010 C 
ATOM     30  C   UNL     1      -2.418   1.125  -0.266  0.00  0.00    -0.010 C 
ATOM     31  C   UNL     1       2.027   1.175   1.309  0.00  0.00    -0.010 C 
ATOM     32  C   UNL     1       2.153   1.022  -1.161  0.00  0.00    -0.010 C 
ATOM     33  H   UNL     1       0.043  -0.052  -0.292  0.00  0.00    -0.084 HD
ATOM     34  H   UNL     1      -0.435   1.078   1.020  0.00  0.00    -0.084 HD
ENDBRANCH  22  23
ENDBRANCH  20  22
ENDBRANCH  19  20
ENDBRANCH  18  19
ENDBRANCH   1  18
TORSDOF 9
