REMARK  Name = ZINC22841927
REMARK  6 active torsions:
REMARK  status: ('A' for Active; 'I' for Inactive)
REMARK    1  A    between atoms: C_4  and  O_26
REMARK    2  A    between atoms: C_5  and  N_7
REMARK    3  A    between atoms: N_10  and  C_13
REMARK    4  A    between atoms: C_13  and  C_14
REMARK    5  A    between atoms: N_16  and  C_17
REMARK    6  A    between atoms: C_17  and  C_24
REMARK                            x       y       z     vdW  Elec       q    Type
REMARK                         _______ _______ _______ _____ _____    ______ ____
ROOT
ATOM      1  N   UNL     1       5.734   8.128  -0.390  0.00  0.00    -0.331 N 
ATOM      2  C   UNL     1       5.199   8.020  -1.755  0.00  0.00    +0.086 C 
ATOM      3  C   UNL     1       3.764   7.493  -1.697  0.00  0.00    -0.059 C 
ATOM      4  N   UNL     1       3.751   6.186  -1.024  0.00  0.00    +0.387 N 
ATOM      5  C   UNL     1       4.286   6.294   0.340  0.00  0.00    -0.059 C 
ATOM      6  C   UNL     1       5.722   6.821   0.282  0.00  0.00    +0.086 C 
ATOM      7  H   UNL     1       4.403   5.506  -1.592  0.00  0.00    -0.081 HD
ENDROOT
BRANCH   1  12
ATOM      8  C   UNL     1       9.317   8.579  -1.090  0.00  0.00    +0.002 A 
ATOM      9  C   UNL     1       9.572   9.759  -0.414  0.00  0.00    +0.004 A 
ATOM     10  C   UNL     1       8.557  10.401   0.271  0.00  0.00    +0.047 A 
ATOM     11  C   UNL     1       7.281   9.864   0.282  0.00  0.00    +0.138 A 
ATOM     12  C   UNL     1       7.022   8.676  -0.398  0.00  0.00    +0.072 A 
ATOM     13  C   UNL     1       8.047   8.034  -1.079  0.00  0.00    +0.027 A 
BRANCH  11  14
ATOM     14  O   UNL     1       6.282  10.494   0.957  0.00  0.00    -0.505 OA
ATOM     15  H   UNL     1       5.268  10.066   0.965  0.00  0.00    +0.292 HD
ENDBRANCH  11  14
ENDBRANCH   1  12
BRANCH   4  16
ATOM     16  C   UNL     1       2.400   5.612  -1.016  0.00  0.00    +0.019 C 
BRANCH  16  17
ATOM     17  C   UNL     1       2.465   4.181  -0.546  0.00  0.00    +0.198 C 
ATOM     18  O   UNL     1       3.532   3.689  -0.247  0.00  0.00    -0.278 OA
ATOM     19  N   UNL     1       1.337   3.449  -0.457  0.00  0.00    -0.299 N 
ATOM     20  H   UNL     1       0.369   3.895  -0.728  0.00  0.00    +0.150 HD
BRANCH  19  21
ATOM     21  C   UNL     1       1.400   2.058  -0.000  0.00  0.00    +0.121 C 
ATOM     22  C   UNL     1      -0.018   1.451   0.010  0.00  0.00    +0.041 C 
ATOM     23  C   UNL     1       0.002  -0.004   0.002  0.00  0.00    +0.003 C 
ATOM     24  C   UNL     1       0.693  -0.590   1.251  0.00  0.00    +0.000 C 
ATOM     25  C   UNL     1       2.182  -0.521   1.049  0.00  0.00    +0.000 C 
ATOM     26  C   UNL     1       2.802   0.752   1.656  0.00  0.00    +0.003 C 
ATOM     27  C   UNL     1       1.951   2.011   1.399  0.00  0.00    +0.041 C 
BRANCH  21  28
ATOM     28  C   UNL     1       2.266   1.278  -0.899  0.00  0.00    +0.088 C 
ATOM     29  N   UNL     1       2.934   0.675  -1.593  0.00  0.00    -0.194 NA
ENDBRANCH  21  28
ENDBRANCH  19  21
ENDBRANCH  16  17
ENDBRANCH   4  16
TORSDOF 6
