REMARK  Name = ZINC39252080
REMARK  6 active torsions:
REMARK  status: ('A' for Active; 'I' for Inactive)
REMARK    1  A    between atoms: C_1  and  C_2
REMARK    2  A    between atoms: C_9  and  N_12
REMARK    3  A    between atoms: C_13  and  C_15
REMARK    4  A    between atoms: N_20  and  C_22
REMARK    5  A    between atoms: C_22  and  C_23
REMARK    6  A    between atoms: C_23  and  C_24
REMARK                            x       y       z     vdW  Elec       q    Type
REMARK                         _______ _______ _______ _____ _____    ______ ____
ROOT
ATOM      1  C   UNL     1       2.581  -1.110   6.521  0.00  0.00    +0.101 C 
ATOM      2  C   UNL     1       2.801   0.390   6.824  0.00  0.00    +0.110 C 
ATOM      3  C   UNL     1       3.351   0.407   8.234  0.00  0.00    +0.216 C 
ATOM      4  O   UNL     1       3.914   1.350   8.748  0.00  0.00    -0.276 OA
ATOM      5  N   UNL     1       3.123  -0.774   8.833  0.00  0.00    -0.300 N 
ATOM      6  C   UNL     1       2.411  -1.697   7.940  0.00  0.00    +0.121 C 
ENDROOT
BRANCH   1   8
ATOM      7  N   UNL     1       1.261  -0.818   4.450  0.00  0.00    -0.288 N 
ATOM      8  C   UNL     1       1.334  -1.316   5.700  0.00  0.00    +0.220 C 
ATOM      9  O   UNL     1       0.397  -1.931   6.163  0.00  0.00    -0.275 OA
ATOM     10  H   UNL     1       2.010  -0.326   4.079  0.00  0.00    +0.151 HD
BRANCH   7  19
ATOM     11  C   UNL     1      -0.018   1.503   0.010  0.00  0.00    +0.046 C 
ATOM     12  C   UNL     1       0.002  -0.004   0.002  0.00  0.00    -0.028 A 
ATOM     13  C   UNL     1       0.005  -0.673  -1.200  0.00  0.00    +0.005 A 
ATOM     14  C   UNL     1       0.024  -2.054  -1.249  0.00  0.00    +0.001 A 
ATOM     15  C   UNL     1       0.039  -2.767  -0.061  0.00  0.00    +0.016 A 
ATOM     16  C   UNL     1       0.036  -2.097   1.141  0.00  0.00    +0.032 A 
ATOM     17  C   UNL     1       0.023  -0.701   1.223  0.00  0.00    +0.046 A 
ATOM     18  N   UNL     1       0.027  -0.119   2.490  0.00  0.00    -0.316 N 
ATOM     19  C   UNL     1       0.050  -1.019   3.651  0.00  0.00    +0.224 C 
ATOM     20  S   UNL     1       0.051  -2.662   2.827  0.00  0.00    -0.082 S 
ATOM     21  H   UNL     1       0.015   0.845   2.600  0.00  0.00    +0.149 HD
ENDBRANCH   7  19
ENDBRANCH   1   8
BRANCH   5  22
ATOM     22  C   UNL     1       3.534  -1.100  10.201  0.00  0.00    +0.112 C 
BRANCH  22  23
ATOM     23  C   UNL     1       2.416  -0.720  11.173  0.00  0.00    +0.056 C 
BRANCH  23  24
ATOM     24  C   UNL     1       2.838  -1.055  12.581  0.00  0.00    -0.021 A 
ATOM     25  C   UNL     1       3.637  -0.213  13.474  0.00  0.00    +0.004 A 
ATOM     26  C   UNL     1       4.220   1.050  13.353  0.00  0.00    +0.030 A 
ATOM     27  C   UNL     1       4.929   1.577  14.410  0.00  0.00    +0.042 A 
ATOM     28  C   UNL     1       5.065   0.860  15.591  0.00  0.00    +0.022 A 
ATOM     29  C   UNL     1       4.495  -0.387  15.726  0.00  0.00    +0.027 A 
ATOM     30  C   UNL     1       3.775  -0.938  14.672  0.00  0.00    +0.047 A 
ATOM     31  N   UNL     1       3.105  -2.130  14.504  0.00  0.00    -0.360 N 
ATOM     32  C   UNL     1       2.549  -2.179  13.255  0.00  0.00    +0.087 A 
ATOM     33 CL   UNL     1       5.656   3.147  14.264  0.00  0.00    -0.084 Cl
ATOM     34  H   UNL     1       3.035  -2.829  15.173  0.00  0.00    +0.165 HD
ENDBRANCH  23  24
ENDBRANCH  22  23
ENDBRANCH   5  22
TORSDOF 5
