REMARK  Name = ZINC36597691
REMARK  13 active torsions:
REMARK  status: ('A' for Active; 'I' for Inactive)
REMARK    1  A    between atoms: C_1  and  C_2
REMARK    2  A    between atoms: C_5  and  C_7
REMARK    3  A    between atoms: C_7  and  N_8
REMARK    4  A    between atoms: N_8  and  C_9
REMARK    5  A    between atoms: C_9  and  C_11
REMARK    6  A    between atoms: C_9  and  C_20
REMARK    7  A    between atoms: C_12  and  O_19
REMARK    8  A    between atoms: C_14  and  O_18
REMARK    9  A    between atoms: C_16  and  O_17
REMARK   10  A    between atoms: N_22  and  C_23
REMARK   11  A    between atoms: C_29  and  C_31
REMARK   12  A    between atoms: C_35  and  O_38
REMARK   13  A    between atoms: C_36  and  O_37
REMARK                            x       y       z     vdW  Elec       q    Type
REMARK                         _______ _______ _______ _____ _____    ______ ____
ROOT
ATOM      1  C   UNL     1       1.981  -2.891  -3.041  0.00  0.00    +0.200 C 
ENDROOT
BRANCH   1   2
ATOM      2  C   UNL     1       3.287  -2.696  -2.314  0.00  0.00    +0.065 A 
ATOM      3  C   UNL     1       4.469  -2.583  -3.031  0.00  0.00    +0.129 A 
ATOM      4  C   UNL     1       5.670  -2.404  -2.362  0.00  0.00    +0.091 A 
ATOM      5  C   UNL     1       5.690  -2.338  -0.977  0.00  0.00    +0.124 A 
ATOM      6  C   UNL     1       4.508  -2.450  -0.261  0.00  0.00    +0.091 A 
ATOM      7  C   UNL     1       3.306  -2.625  -0.930  0.00  0.00    +0.129 A 
BRANCH   7   8
ATOM      8  O   UNL     1       2.147  -2.731  -0.228  0.00  0.00    -0.506 OA
ATOM      9  H   UNL     1       1.918  -3.638   0.019  0.00  0.00    +0.292 HD
ENDBRANCH   7   8
BRANCH   5  10
ATOM     10  O   UNL     1       6.868  -2.163  -0.322  0.00  0.00    -0.507 OA
ATOM     11  H   UNL     1       7.101  -1.237  -0.173  0.00  0.00    +0.292 HD
ENDBRANCH   5  10
BRANCH   3  12
ATOM     12  O   UNL     1       4.449  -2.648  -4.388  0.00  0.00    -0.506 OA
ATOM     13  H   UNL     1       4.380  -1.786  -4.822  0.00  0.00    +0.292 HD
ENDBRANCH   3  12
ENDBRANCH   1   2
BRANCH   1  14
ATOM     14  C   UNL     1       1.804  -1.794  -4.059  0.00  0.00    +0.239 C 
ATOM     15  O   UNL     1       1.454  -0.688  -3.704  0.00  0.00    -0.273 OA
ATOM     16  N   UNL     1       2.035  -2.042  -5.364  0.00  0.00    -0.311 N 
ATOM     17  H   UNL     1       2.315  -2.926  -5.647  0.00  0.00    +0.149 HD
BRANCH  16  18
ATOM     18  C   UNL     1       1.863  -0.975  -6.353  0.00  0.00    +0.073 C 
ATOM     19  C   UNL     1       0.395  -0.905  -6.777  0.00  0.00    +0.022 C 
ATOM     20  C   UNL     1       0.215   0.209  -7.811  0.00  0.00    +0.002 C 
ATOM     21  C   UNL     1       1.086  -0.085  -9.034  0.00  0.00    +0.000 C 
ATOM     22  C   UNL     1       2.554  -0.155  -8.610  0.00  0.00    +0.002 C 
ATOM     23  C   UNL     1       2.734  -1.269  -7.576  0.00  0.00    +0.022 C 
ENDBRANCH  16  18
ENDBRANCH   1  14
BRANCH   1  24
ATOM     24  N   UNL     1       0.876  -2.848  -2.080  0.00  0.00    -0.274 N 
ATOM     25  C   UNL     1       0.182  -3.969  -1.800  0.00  0.00    +0.252 C 
ATOM     26  O   UNL     1      -0.713  -3.941  -0.978  0.00  0.00    -0.270 OA
BRANCH  25  27
ATOM     27  C   UNL     1       0.509  -5.231  -2.492  0.00  0.00    +0.082 A 
ATOM     28  C   UNL     1       1.843  -5.601  -2.686  0.00  0.00    +0.017 A 
ATOM     29  C   UNL     1       2.145  -6.780  -3.331  0.00  0.00    +0.005 A 
ATOM     30  C   UNL     1       1.131  -7.604  -3.791  0.00  0.00    +0.049 A 
ATOM     31  C   UNL     1      -0.195  -7.252  -3.607  0.00  0.00    +0.159 A 
ATOM     32  C   UNL     1      -0.515  -6.067  -2.952  0.00  0.00    +0.171 A 
BRANCH  32  33
ATOM     33  O   UNL     1      -1.814  -5.721  -2.764  0.00  0.00    -0.503 OA
ATOM     34  H   UNL     1      -2.189  -5.196  -3.484  0.00  0.00    +0.292 HD
ENDBRANCH  32  33
BRANCH  31  35
ATOM     35  O   UNL     1      -1.184  -8.067  -4.062  0.00  0.00    -0.503 OA
ATOM     36  H   UNL     1      -1.476  -8.728  -3.420  0.00  0.00    +0.292 HD
ENDBRANCH  31  35
ENDBRANCH  25  27
BRANCH  24  37
ATOM     37  C   UNL     1       0.525  -1.587  -1.423  0.00  0.00    +0.183 C 
BRANCH  37  42
ATOM     38  C   UNL     1      -3.076   0.787  -4.037  0.00  0.00    +0.086 C 
ATOM     39  C   UNL     1      -2.400  -0.105  -3.028  0.00  0.00    +0.102 A 
ATOM     40  C   UNL     1      -3.023  -0.870  -2.114  0.00  0.00    +0.045 A 
ATOM     41  C   UNL     1      -2.014  -1.536  -1.381  0.00  0.00    +0.046 A 
ATOM     42  C   UNL     1      -0.835  -1.137  -1.891  0.00  0.00    +0.122 A 
ATOM     43  O   UNL     1      -1.075  -0.275  -2.892  0.00  0.00    -0.463 OA
ENDBRANCH  37  42
ENDBRANCH  24  37
ENDBRANCH   1  24
TORSDOF 12
