REMARK  Name = ZINC08441958
REMARK  8 active torsions:
REMARK  status: ('A' for Active; 'I' for Inactive)
REMARK    1  A    between atoms: C_4  and  C_7
REMARK    2  A    between atoms: C_7  and  O_8
REMARK    3  A    between atoms: O_8  and  C_9
REMARK    4  A    between atoms: C_18  and  C_30
REMARK    5  A    between atoms: C_20  and  C_26
REMARK    6  A    between atoms: C_20  and  C_28
REMARK    7  A    between atoms: C_21  and  N_25
REMARK    8  A    between atoms: C_22  and  C_23
REMARK                            x       y       z     vdW  Elec       q    Type
REMARK                         _______ _______ _______ _____ _____    ______ ____
ROOT
ATOM      1  C   UNL     1      -2.429   0.955  -3.787  0.00  0.00    +0.403 C 
ATOM      2  O   UNL     1      -1.678   0.031  -3.546  0.00  0.00    -0.226 OA
ATOM      3  N   UNL     1      -2.172   2.181  -3.291  0.00  0.00    -0.263 N 
ATOM      4  C   UNL     1      -3.062   3.323  -3.564  0.00  0.00    +0.138 C 
ATOM      5  C   UNL     1      -3.484   3.887  -2.231  0.00  0.00    -0.003 C 
ATOM      6  C   UNL     1      -2.725   3.756  -1.161  0.00  0.00    -0.026 C 
ATOM      7  C   UNL     1      -1.379   3.096  -1.152  0.00  0.00    +0.048 C 
ATOM      8  C   UNL     1      -0.993   2.435  -2.456  0.00  0.00    +0.120 C 
ATOM      9  C   UNL     1      -1.332   2.113   0.020  0.00  0.00    +0.068 C 
ATOM     10  C   UNL     1      -1.473   2.892   1.328  0.00  0.00    +0.188 C 
ATOM     11  C   UNL     1      -2.649   3.822   1.293  0.00  0.00    +0.054 C 
ATOM     12  C   UNL     1      -3.239   4.244   0.147  0.00  0.00    +0.074 C 
ENDROOT
BRANCH   9  13
ATOM     13  C   UNL     1      -0.017   1.378   0.010  0.00  0.00    -0.040 A 
ATOM     14  C   UNL     1       0.013   0.011   0.218  0.00  0.00    +0.004 A 
ATOM     15  C   UNL     1       1.219  -0.663   0.215  0.00  0.00    +0.001 A 
ATOM     16  C   UNL     1       2.397   0.029   0.003  0.00  0.00    +0.015 A 
ATOM     17  C   UNL     1       2.368   1.395  -0.206  0.00  0.00    +0.018 A 
ATOM     18  C   UNL     1       1.160   2.070  -0.203  0.00  0.00    +0.019 A 
ATOM     19 BR   UNL     1       3.979   2.342  -0.496  0.00  0.00    -0.050 Br
ENDBRANCH   9  13
BRANCH  11  20
ATOM     20  N   UNL     1      -3.155   4.267   2.482  0.00  0.00    -0.358 N 
ATOM     21  H   UNL     1      -4.017   4.950   2.492  0.00  0.00    +0.142 HD
ATOM     22  H   UNL     1      -2.700   3.942   3.429  0.00  0.00    +0.142 HD
ENDBRANCH  11  20
BRANCH  12  23
ATOM     23  C   UNL     1      -4.348   5.150   0.196  0.00  0.00    +0.101 C 
ATOM     24  N   UNL     1      -5.227   5.868   0.235  0.00  0.00    -0.191 NA
ENDBRANCH  12  23
BRANCH  10  25
ATOM     25  C   UNL     1      -1.642   1.941   2.438  0.00  0.00    +0.091 C 
ATOM     26  N   UNL     1      -1.773   1.206   3.295  0.00  0.00    -0.194 NA
ENDBRANCH  10  25
BRANCH  10  27
ATOM     27  C   UNL     1      -0.249   3.678   1.554  0.00  0.00    +0.091 C 
ATOM     28  N   UNL     1       0.696   4.284   1.728  0.00  0.00    -0.194 NA
ENDBRANCH  10  27
BRANCH   1  29
ATOM     29  O   UNL     1      -3.520   0.753  -4.551  0.00  0.00    -0.445 OA
BRANCH  29  30
ATOM     30  C   UNL     1      -3.735  -0.593  -5.051  0.00  0.00    +0.269 C 
BRANCH  30  34
ATOM     31  C   UNL     1      -7.303  -0.687  -7.398  0.00  0.00    +0.000 A 
ATOM     32  C   UNL     1      -6.089  -0.409  -7.997  0.00  0.00    +0.000 A 
ATOM     33  C   UNL     1      -4.934  -0.379  -7.238  0.00  0.00    +0.007 A 
ATOM     34  C   UNL     1      -4.994  -0.626  -5.879  0.00  0.00    -0.010 A 
ATOM     35  C   UNL     1      -6.207  -0.909  -5.281  0.00  0.00    +0.007 A 
ATOM     36  C   UNL     1      -7.362  -0.936  -6.039  0.00  0.00    +0.000 A 
ENDBRANCH  30  34
ENDBRANCH  29  30
ENDBRANCH   1  29
TORSDOF 8
