REMARK  Name = ZINC36610223
REMARK  18 active torsions:
REMARK  status: ('A' for Active; 'I' for Inactive)
REMARK    1  A    between atoms: C_1  and  C_2
REMARK    2  A    between atoms: C_2  and  C_3
REMARK    3  A    between atoms: C_2  and  C_4
REMARK    4  A    between atoms: C_2  and  C_5
REMARK    5  A    between atoms: C_5  and  C_6
REMARK    6  A    between atoms: C_6  and  C_7
REMARK    7  A    between atoms: C_6  and  C_8
REMARK    8  A    between atoms: C_6  and  N_9
REMARK    9  A    between atoms: C_10  and  C_12
REMARK   10  A    between atoms: C_12  and  C_14
REMARK   11  A    between atoms: C_12  and  N_23
REMARK   12  A    between atoms: C_17  and  N_20
REMARK   13  A    between atoms: N_20  and  C_21
REMARK   14  A    between atoms: N_20  and  C_22
REMARK   15  A    between atoms: N_23  and  C_24
REMARK   16  A    between atoms: C_30  and  C_32
REMARK   17  A    between atoms: C_33  and  O_39
REMARK   18  A    between atoms: C_37  and  O_38
REMARK                            x       y       z     vdW  Elec       q    Type
REMARK                         _______ _______ _______ _____ _____    ______ ____
ROOT
ATOM      1  C   UNL     1       5.061  -0.663  -5.095  0.00  0.00    +0.197 C 
ENDROOT
BRANCH   1   2
ATOM      2  C   UNL     1       5.698  -1.919  -5.633  0.00  0.00    -0.018 A 
ATOM      3  C   UNL     1       6.873  -2.389  -5.076  0.00  0.00    +0.008 A 
ATOM      4  C   UNL     1       7.460  -3.539  -5.566  0.00  0.00    +0.023 A 
ATOM      5  C   UNL     1       6.868  -4.223  -6.620  0.00  0.00    +0.029 A 
ATOM      6  C   UNL     1       5.688  -3.748  -7.177  0.00  0.00    +0.023 A 
ATOM      7  C   UNL     1       5.103  -2.601  -6.678  0.00  0.00    +0.008 A 
BRANCH   5   8
ATOM      8  N   UNL     1       7.459  -5.386  -7.119  0.00  0.00    -0.336 N 
ATOM      9  C   UNL     1       8.642  -5.947  -6.461  0.00  0.00    +0.129 C 
ATOM     10  C   UNL     1       6.896  -6.045  -8.300  0.00  0.00    +0.129 C 
ENDBRANCH   5   8
ENDBRANCH   1   2
BRANCH   1  12
ATOM     11  N   UNL     1       3.248  -1.744  -3.804  0.00  0.00    -0.308 N 
ATOM     12  C   UNL     1       4.354  -0.974  -3.800  0.00  0.00    +0.239 C 
ATOM     13  O   UNL     1       4.780  -0.530  -2.755  0.00  0.00    -0.273 OA
ATOM     14  H   UNL     1       2.908  -2.099  -4.640  0.00  0.00    +0.149 HD
BRANCH  11  15
ATOM     15  C   UNL     1       2.561  -2.046  -2.546  0.00  0.00    +0.030 C 
ATOM     16  C   UNL     1       2.363  -0.754  -1.751  0.00  0.00    +0.031 C 
ATOM     17  C   UNL     1       3.404  -3.025  -1.727  0.00  0.00    +0.031 C 
BRANCH  15  18
ATOM     18  C   UNL     1       1.199  -2.674  -2.847  0.00  0.00    +0.031 C 
BRANCH  18  20
ATOM     19  C   UNL     1       1.113  -2.498  -5.338  0.00  0.00    +0.010 C 
ATOM     20  C   UNL     1       0.551  -1.945  -4.026  0.00  0.00    -0.036 C 
ATOM     21  C   UNL     1       0.856  -0.449  -3.931  0.00  0.00    +0.010 C 
ATOM     22  C   UNL     1      -0.963  -2.161  -3.989  0.00  0.00    +0.010 C 
ENDBRANCH  18  20
ENDBRANCH  15  18
ENDBRANCH  11  15
ENDBRANCH   1  12
BRANCH   1  23
ATOM     23  N   UNL     1       6.096   0.346  -4.856  0.00  0.00    -0.251 N 
ATOM     24  C   UNL     1       6.965   0.192  -3.838  0.00  0.00    +0.259 C 
ATOM     25  O   UNL     1       6.786  -0.683  -3.012  0.00  0.00    -0.269 OA
BRANCH  23  26
ATOM     26  C   UNL     1       6.181   1.470  -5.685  0.00  0.00    +0.038 A 
ATOM     27  C   UNL     1       5.067   1.896  -6.396  0.00  0.00    +0.023 A 
ATOM     28  C   UNL     1       5.154   3.006  -7.213  0.00  0.00    +0.002 A 
ATOM     29  C   UNL     1       6.350   3.692  -7.324  0.00  0.00    +0.000 A 
ATOM     30  C   UNL     1       7.461   3.269  -6.618  0.00  0.00    +0.002 A 
ATOM     31  C   UNL     1       7.379   2.164  -5.794  0.00  0.00    +0.023 A 
ENDBRANCH  23  26
BRANCH  24  32
ATOM     32  C   UNL     1       8.133   1.082  -3.726  0.00  0.00    +0.120 A 
ATOM     33  C   UNL     1       7.996   2.357  -3.156  0.00  0.00    +0.133 A 
ATOM     34  C   UNL     1       9.101   3.186  -3.055  0.00  0.00    +0.046 A 
ATOM     35  C   UNL     1      10.335   2.762  -3.513  0.00  0.00    +0.007 A 
ATOM     36  C   UNL     1      10.480   1.508  -4.077  0.00  0.00    +0.046 A 
ATOM     37  C   UNL     1       9.390   0.660  -4.182  0.00  0.00    +0.133 A 
BRANCH  37  38
ATOM     38  O   UNL     1       9.536  -0.572  -4.731  0.00  0.00    -0.506 OA
ATOM     39  H   UNL     1       9.327  -0.611  -5.674  0.00  0.00    +0.292 HD
ENDBRANCH  37  38
BRANCH  33  40
ATOM     40  O   UNL     1       6.787   2.776  -2.706  0.00  0.00    -0.506 OA
ATOM     41  H   UNL     1       6.616   2.560  -1.779  0.00  0.00    +0.292 HD
ENDBRANCH  33  40
ENDBRANCH  24  32
ENDBRANCH   1  23
TORSDOF 11
