REMARK  Name = ZINC39478812
REMARK  4 active torsions:
REMARK  status: ('A' for Active; 'I' for Inactive)
REMARK    1  A    between atoms: C_1  and  C_2
REMARK    2  A    between atoms: C_6  and  C_9
REMARK    3  A    between atoms: C_14  and  N_17
REMARK    4  A    between atoms: C_19  and  C_23
REMARK                            x       y       z     vdW  Elec       q    Type
REMARK                         _______ _______ _______ _____ _____    ______ ____
ROOT
ATOM      1  C   UNL     1       0.048  -4.415   0.268  0.00  0.00    +0.252 C 
ATOM      2  O   UNL     1       0.084  -5.046   1.306  0.00  0.00    -0.270 OA
ATOM      3  N   UNL     1      -0.044  -5.062  -0.911  0.00  0.00    -0.297 N 
ATOM      4  C   UNL     1       0.029  -4.322  -2.179  0.00  0.00    +0.109 C 
ATOM      5  C   UNL     1       1.120  -4.950  -3.053  0.00  0.00    +0.036 C 
ATOM      6  C   UNL     1       0.842  -6.446  -3.214  0.00  0.00    +0.046 C 
ATOM      7  C   UNL     1       0.874  -7.123  -1.841  0.00  0.00    +0.036 C 
ATOM      8  C   UNL     1      -0.213  -6.521  -0.953  0.00  0.00    +0.109 C 
ENDROOT
BRANCH   1  14
ATOM      9  C   UNL     1       0.176   1.329   0.365  0.00  0.00    +0.063 C 
ATOM     10  C   UNL     1       0.190  -0.177   0.349  0.00  0.00    +0.016 A 
ATOM     11  C   UNL     1       1.351  -0.825   0.575  0.00  0.00    +0.072 A 
ATOM     12  C   UNL     1       1.370  -2.241   0.561  0.00  0.00    +0.194 A 
ATOM     13  O   UNL     1       2.403  -2.860   0.763  0.00  0.00    -0.287 OA
ATOM     14  C   UNL     1       0.104  -2.943   0.297  0.00  0.00    +0.099 A 
ATOM     15  C   UNL     1      -1.029  -2.187   0.078  0.00  0.00    +0.099 A 
ATOM     16  N   UNL     1      -0.967  -0.845   0.112  0.00  0.00    -0.364 N 
ATOM     17  H   UNL     1      -1.778  -0.336  -0.041  0.00  0.00    +0.165 HD
ENDBRANCH   1  14
BRANCH   6  18
ATOM     18  N   UNL     1       1.867  -7.044  -4.079  0.00  0.00    -0.331 NA
ATOM     19  C   UNL     1       1.514  -8.440  -4.434  0.00  0.00    +0.091 C 
ATOM     20  C   UNL     1       1.986  -8.620  -5.890  0.00  0.00    +0.083 C 
ATOM     21  N   UNL     1       2.577  -7.314  -6.271  0.00  0.00    -0.342 NA
ATOM     22  N   UNL     1       1.942  -6.343  -5.369  0.00  0.00    +0.400 N 
ATOM     23  H   UNL     1       3.579  -7.321  -6.148  0.00  0.00    +0.104 HD
ATOM     24  H   UNL     1       1.017  -6.109  -5.697  0.00  0.00    -0.033 HD
ATOM     25  H   UNL     1       2.510  -5.514  -5.287  0.00  0.00    -0.033 HD
BRANCH  20  26
ATOM     26  C   UNL     1       3.024  -9.710  -5.973  0.00  0.00    -0.029 A 
ATOM     27  C   UNL     1       4.335  -9.444  -5.622  0.00  0.00    +0.005 A 
ATOM     28  C   UNL     1       5.287 -10.443  -5.698  0.00  0.00    +0.002 A 
ATOM     29  C   UNL     1       4.928 -11.709  -6.124  0.00  0.00    +0.020 A 
ATOM     30  C   UNL     1       3.617 -11.975  -6.475  0.00  0.00    +0.041 A 
ATOM     31  C   UNL     1       2.663 -10.976  -6.393  0.00  0.00    +0.025 A 
ATOM     32 CL   UNL     1       3.167 -13.563  -7.011  0.00  0.00    -0.084 Cl
ENDBRANCH  20  26
ENDBRANCH   6  18
TORSDOF 3
