REMARK  Name = ZINC03196280
REMARK  10 active torsions:
REMARK  status: ('A' for Active; 'I' for Inactive)
REMARK    1  A    between atoms: C_1  and  C_2
REMARK    2  A    between atoms: C_2  and  N_69
REMARK    3  A    between atoms: N_5  and  P_8
REMARK    4  A    between atoms: C_11  and  C_34
REMARK    5  A    between atoms: N_13  and  C_30
REMARK    6  A    between atoms: C_19  and  C_28
REMARK    7  A    between atoms: C_19  and  C_29
REMARK    8  A    between atoms: N_26  and  C_27
REMARK    9  A    between atoms: C_30  and  C_31
REMARK   10  A    between atoms: C_31  and  C_32
REMARK                            x       y       z     vdW  Elec       q    Type
REMARK                         _______ _______ _______ _____ _____    ______ ____
ROOT
ATOM      1  P   UNL     1      -3.486   2.118   0.205  0.00  0.00    +0.061 P 
ATOM      2  S   UNL     1      -3.351   3.565  -0.963  0.00  0.00    -0.040 S 
ATOM      3  C   UNL     1      -2.030   2.102   1.314  0.00  0.00    +0.067 A 
ATOM      4  C   UNL     1      -0.669   2.017   1.169  0.00  0.00    +0.072 A 
ATOM      5  N   UNL     1      -0.128   2.063   2.365  0.00  0.00    -0.174 NA
ATOM      6  N   UNL     1      -1.146   2.177   3.321  0.00  0.00    -0.245 N 
ATOM      7  C   UNL     1      -2.350   2.199   2.669  0.00  0.00    +0.161 A 
ATOM      8  N   UNL     1      -3.618   2.292   3.096  0.00  0.00    -0.235 NA
ATOM      9  C   UNL     1      -4.791   2.335   2.578  0.00  0.00    +0.125 C 
ATOM     10  C   UNL     1      -5.051   2.265   1.173  0.00  0.00    +0.036 C 
ATOM     11  C   UNL     1      -6.285   2.302   0.625  0.00  0.00    +0.032 C 
ATOM     12  C   UNL     1      -7.581   2.617   1.340  0.00  0.00    +0.031 C 
ATOM     13  C   UNL     1      -8.634   2.518   0.260  0.00  0.00    -0.015 A 
ATOM     14  C   UNL     1     -10.001   2.691   0.273  0.00  0.00    +0.006 A 
ATOM     15  C   UNL     1     -10.728   2.535  -0.893  0.00  0.00    +0.000 A 
ATOM     16  C   UNL     1     -10.080   2.203  -2.069  0.00  0.00    +0.002 A 
ATOM     17  C   UNL     1      -8.713   2.027  -2.086  0.00  0.00    +0.024 A 
ATOM     18  C   UNL     1      -7.972   2.184  -0.914  0.00  0.00    +0.038 A 
ATOM     19  N   UNL     1      -6.603   2.068  -0.685  0.00  0.00    -0.305 N 
ATOM     20  C   UNL     1      -5.622   1.733  -1.721  0.00  0.00    +0.135 C 
ATOM     21  C   UNL     1      -7.847   1.590   2.443  0.00  0.00    +0.022 C 
ATOM     22  C   UNL     1      -7.543   4.032   1.922  0.00  0.00    +0.022 C 
ATOM     23  C   UNL     1       0.076   1.897  -0.135  0.00  0.00    +0.068 C 
ENDROOT
BRANCH   1  26
ATOM     24  C   UNL     1      -2.407  -0.718  -2.352  0.00  0.00    -0.063 C 
ATOM     25  C   UNL     1      -2.303   0.549  -1.500  0.00  0.00    +0.071 C 
ATOM     26  N   UNL     1      -3.518   0.690  -0.686  0.00  0.00    -0.273 NA
ATOM     27  C   UNL     1      -3.698  -0.474   0.193  0.00  0.00    +0.071 C 
ATOM     28  C   UNL     1      -3.802  -1.741  -0.659  0.00  0.00    -0.063 C 
ATOM     29  N   UNL     1      -2.565  -1.883  -1.456  0.00  0.00    +0.381 N 
ATOM     30  H   UNL     1      -1.761  -1.926  -0.818  0.00  0.00    -0.082 HD
BRANCH  29  32
ATOM     31  C   UNL     1      -2.553  -4.325  -1.298  0.00  0.00    -0.017 C 
ATOM     32  C   UNL     1      -2.615  -3.128  -2.250  0.00  0.00    -0.082 C 
ENDBRANCH  29  32
ENDBRANCH   1  26
BRANCH   6  33
ATOM     33  C   UNL     1      -0.955   2.258   4.771  0.00  0.00    +0.160 C 
BRANCH  33  34
ATOM     34  C   UNL     1      -0.813   3.724   5.185  0.00  0.00    +0.142 C 
BRANCH  34  35
ATOM     35  C   UNL     1      -0.621   3.805   6.642  0.00  0.00    +0.064 C 
ATOM     36  N   UNL     1      -0.473   3.868   7.767  0.00  0.00    -0.197 NA
ENDBRANCH  34  35
ENDBRANCH  33  34
ENDBRANCH   6  33
TORSDOF 5
