REMARK  Name = ZINC02570803
REMARK  5 active torsions:
REMARK  status: ('A' for Active; 'I' for Inactive)
REMARK    1  A    between atoms: C_7  and  C_11
REMARK    2  A    between atoms: C_11  and  C_12
REMARK    3  A    between atoms: C_12  and  N_13
REMARK    4  A    between atoms: N_13  and  S_14
REMARK    5  A    between atoms: S_14  and  C_17
REMARK                            x       y       z     vdW  Elec       q    Type
REMARK                         _______ _______ _______ _____ _____    ______ ____
ROOT
ATOM      1  C   UNL     1      -1.693  -1.118  -1.424  0.00  0.00    +0.110 C 
ENDROOT
BRANCH   1   2
ATOM      2  N   UNL     1      -2.859  -2.006  -1.417  0.00  0.00    -0.190 NA
ATOM      3  H   UNL     1      -3.063  -2.532  -0.629  0.00  0.00    +0.148 HD
BRANCH   2   4
ATOM      4  S   UNL     1      -3.828  -2.110  -2.756  0.00  0.00    +0.058 S 
ATOM      5  O   UNL     1      -4.841  -3.058  -2.451  0.00  0.00    -0.153 OA
ATOM      6  O   UNL     1      -4.125  -0.776  -3.147  0.00  0.00    -0.153 OA
BRANCH   4   7
ATOM      7  C   UNL     1      -2.857  -2.808  -4.050  0.00  0.00    +0.105 A 
ATOM      8  C   UNL     1      -2.136  -1.985  -4.895  0.00  0.00    +0.029 A 
ATOM      9  C   UNL     1      -1.370  -2.533  -5.906  0.00  0.00    +0.017 A 
ATOM     10  C   UNL     1      -1.333  -3.905  -6.080  0.00  0.00    +0.018 A 
ATOM     11  C   UNL     1      -2.058  -4.728  -5.237  0.00  0.00    +0.017 A 
ATOM     12  C   UNL     1      -2.820  -4.179  -4.223  0.00  0.00    +0.029 A 
ATOM     13 BR   UNL     1      -0.291  -4.655  -7.468  0.00  0.00    -0.050 Br
ENDBRANCH   4   7
ENDBRANCH   2   4
ENDBRANCH   1   2
BRANCH   1  14
ATOM     14  C   UNL     1      -1.197  -0.917   0.009  0.00  0.00    +0.054 C 
BRANCH  14  21
ATOM     15  C   UNL     1      -0.716   3.746   0.030  0.00  0.00    +0.001 A 
ATOM     16  C   UNL     1       0.611   4.153   0.019  0.00  0.00    +0.002 A 
ATOM     17  C   UNL     1       1.630   3.226   0.004  0.00  0.00    +0.026 A 
ATOM     18  C   UNL     1       1.329   1.868  -0.001  0.00  0.00    +0.047 A 
ATOM     19  C   UNL     1      -0.018   1.461   0.010  0.00  0.00    +0.003 A 
ATOM     20  C   UNL     1      -1.035   2.417   0.030  0.00  0.00    +0.010 A 
ATOM     21  C   UNL     1       0.002  -0.004   0.002  0.00  0.00    -0.021 A 
ATOM     22  C   UNL     1       1.291  -0.379  -0.012  0.00  0.00    +0.087 A 
ATOM     23  N   UNL     1       2.098   0.726  -0.014  0.00  0.00    -0.360 N 
ATOM     24  H   UNL     1       3.068   0.708  -0.024  0.00  0.00    +0.165 HD
ENDBRANCH  14  21
ENDBRANCH   1  14
TORSDOF 5
