REMARK  Name = ZINC54454973
REMARK  8 active torsions:
REMARK  status: ('A' for Active; 'I' for Inactive)
REMARK    1  A    between atoms: C_1  and  C_2
REMARK    2  A    between atoms: C_2  and  C_3
REMARK    3  A    between atoms: C_2  and  C_4
REMARK    4  A    between atoms: C_4  and  N_5
REMARK    5  A    between atoms: N_5  and  C_6
REMARK    6  A    between atoms: N_5  and  C_18
REMARK    7  A    between atoms: C_6  and  C_7
REMARK    8  A    between atoms: C_18  and  C_19
REMARK                            x       y       z     vdW  Elec       q    Type
REMARK                         _______ _______ _______ _____ _____    ______ ____
ROOT
ATOM      1  N   UNL     1      -1.288  -1.978  -0.184  0.00  0.00    -0.291 NA
ENDROOT
BRANCH   1   2
ATOM      2  C   UNL     1      -1.049  -0.565   0.141  0.00  0.00    +0.088 C 
BRANCH   2   4
ATOM      3  C   UNL     1       0.708   1.152   0.597  0.00  0.00    +0.008 C 
ATOM      4  C   UNL     1       0.452  -0.332   0.330  0.00  0.00    -0.003 C 
ATOM      5  C   UNL     1       0.951  -1.158   1.517  0.00  0.00    +0.008 C 
ENDBRANCH   2   4
ENDBRANCH   1   2
BRANCH   1   6
ATOM      6  C   UNL     1      -2.703  -2.328  -0.003  0.00  0.00    +0.138 C 
BRANCH   6   7
ATOM      7  C   UNL     1      -3.061  -2.231   1.458  0.00  0.00    +0.037 A 
ATOM      8  C   UNL     1      -3.978  -1.290   1.883  0.00  0.00    +0.093 A 
ATOM      9  C   UNL     1      -4.294  -1.219   3.245  0.00  0.00    +0.258 A 
ATOM     10  O   UNL     1      -5.101  -0.398   3.652  0.00  0.00    -0.267 OA
ATOM     11  N   UNL     1      -3.693  -2.073   4.101  0.00  0.00    -0.270 N 
ATOM     12  C   UNL     1      -3.990  -2.018   5.428  0.00  0.00    +0.096 A 
ATOM     13  C   UNL     1      -3.401  -2.862   6.304  0.00  0.00    +0.018 A 
ATOM     14  C   UNL     1      -2.472  -3.811   5.853  0.00  0.00    +0.005 A 
ATOM     15  C   UNL     1      -2.168  -3.875   4.526  0.00  0.00    +0.045 A 
ATOM     16  C   UNL     1      -2.792  -2.988   3.630  0.00  0.00    +0.118 A 
ATOM     17  N   UNL     1      -2.500  -3.052   2.332  0.00  0.00    -0.343 N 
ATOM     18  H   UNL     1      -1.860  -3.712   2.021  0.00  0.00    +0.167 HD
ENDBRANCH   6   7
ENDBRANCH   1   6
BRANCH   1  19
ATOM     19  C   UNL     1      -0.840  -2.286  -1.549  0.00  0.00    +0.138 C 
BRANCH  19  20
ATOM     20  C   UNL     1      -0.734  -3.780  -1.717  0.00  0.00    +0.037 A 
ATOM     21  C   UNL     1      -1.549  -4.433  -2.622  0.00  0.00    +0.093 A 
ATOM     22  C   UNL     1      -1.431  -5.820  -2.760  0.00  0.00    +0.258 A 
ATOM     23  O   UNL     1      -2.136  -6.426  -3.551  0.00  0.00    -0.267 OA
ATOM     24  N   UNL     1      -0.525  -6.478  -2.006  0.00  0.00    -0.270 N 
ATOM     25  C   UNL     1      -0.399  -7.829  -2.129  0.00  0.00    +0.096 A 
ATOM     26  C   UNL     1       0.502  -8.509  -1.384  0.00  0.00    +0.018 A 
ATOM     27  C   UNL     1       1.319  -7.828  -0.471  0.00  0.00    +0.005 A 
ATOM     28  C   UNL     1       1.200  -6.477  -0.340  0.00  0.00    +0.045 A 
ATOM     29  C   UNL     1       0.259  -5.786  -1.125  0.00  0.00    +0.118 A 
ATOM     30  N   UNL     1       0.145  -4.465  -1.002  0.00  0.00    -0.343 N 
ATOM     31  H   UNL     1       0.714  -3.995  -0.373  0.00  0.00    +0.167 HD
ENDBRANCH  19  20
ENDBRANCH   1  19
TORSDOF 6
