REMARK  Name = ZINC37036803
REMARK  5 active torsions:
REMARK  status: ('A' for Active; 'I' for Inactive)
REMARK    1  A    between atoms: C_1  and  C_2
REMARK    2  A    between atoms: C_3  and  S_8
REMARK    3  A    between atoms: S_8  and  C_9
REMARK    4  A    between atoms: C_9  and  C_10
REMARK    5  A    between atoms: N_12  and  C_13
REMARK                            x       y       z     vdW  Elec       q    Type
REMARK                         _______ _______ _______ _____ _____    ______ ____
ROOT
ATOM      1  C   UNL     1      -0.010  -1.173  -5.311  0.00  0.00    +0.224 C 
ATOM      2  O   UNL     1      -0.028  -0.001  -5.625  0.00  0.00    -0.275 OA
ATOM      3  N   UNL     1      -0.002  -2.126  -6.263  0.00  0.00    -0.309 N 
ATOM      4  H   UNL     1       0.013  -3.062  -6.012  0.00  0.00    +0.149 HD
ENDROOT
BRANCH   3   5
ATOM      5  C   UNL     1      -0.014  -1.747  -7.679  0.00  0.00    +0.113 C 
ATOM      6  C   UNL     1       1.442  -1.478  -8.152  0.00  0.00    +0.189 C 
ATOM      7  S   UNL     1       1.212  -1.667  -9.975  0.00  0.00    -0.028 S 
ATOM      8  O   UNL     1       0.676  -0.463 -10.506  0.00  0.00    -0.174 OA
ATOM      9  O   UNL     1       2.393  -2.221 -10.540  0.00  0.00    -0.174 OA
ATOM     10  C   UNL     1      -0.105  -2.953  -9.942  0.00  0.00    +0.187 C 
ATOM     11  C   UNL     1      -0.637  -2.876  -8.498  0.00  0.00    +0.123 C 
ATOM     12 CL   UNL     1      -0.299  -4.443  -7.673  0.00  0.00    -0.118 Cl
ENDBRANCH   3   5
BRANCH   1  13
ATOM     13  C   UNL     1       0.003  -1.562  -3.855  0.00  0.00    +0.170 C 
BRANCH  13  14
ATOM     14  S   UNL     1      -0.012  -0.066  -2.829  0.00  0.00    -0.107 S 
BRANCH  14  17
ATOM     15  C   UNL     1      -0.018   1.503   0.010  0.00  0.00    +0.067 C 
ATOM     16  C   UNL     1       0.002  -0.004   0.002  0.00  0.00    +0.061 A 
ATOM     17  C   UNL     1       0.005  -0.682  -1.178  0.00  0.00    +0.070 A 
ATOM     18  S   UNL     1       0.031  -2.370  -0.589  0.00  0.00    -0.046 S 
ATOM     19  C   UNL     1       0.035  -1.995   1.158  0.00  0.00    +0.157 A 
ATOM     20  N   UNL     1       0.022  -0.675   1.141  0.00  0.00    -0.229 NA
ATOM     21  N   UNL     1       0.052  -2.861   2.245  0.00  0.00    -0.337 N 
ATOM     22  H   UNL     1       0.065  -3.820   2.100  0.00  0.00    +0.144 HD
ATOM     23  H   UNL     1       0.052  -2.507   3.148  0.00  0.00    +0.144 HD
ENDBRANCH  14  17
ENDBRANCH  13  14
ENDBRANCH   1  13
TORSDOF 4
