REMARK  Name = ZINC42997332
REMARK  5 active torsions:
REMARK  status: ('A' for Active; 'I' for Inactive)
REMARK    1  A    between atoms: C_3  and  C_9
REMARK    2  A    between atoms: C_9  and  N_10
REMARK    3  A    between atoms: N_13  and  N_14
REMARK    4  A    between atoms: C_15  and  C_17
REMARK    5  A    between atoms: N_19  and  C_20
REMARK                            x       y       z     vdW  Elec       q    Type
REMARK                         _______ _______ _______ _____ _____    ______ ____
ROOT
ATOM      1  N   UNL     1       4.287   2.122   1.305  0.00  0.00    -0.294 N 
ATOM      2  C   UNL     1       5.460   2.745   1.534  0.00  0.00    +0.316 C 
ATOM      3  O   UNL     1       6.007   3.360   0.639  0.00  0.00    -0.251 OA
ATOM      4  N   UNL     1       6.027   2.687   2.756  0.00  0.00    -0.218 N 
ATOM      5  H   UNL     1       3.851   1.631   2.019  0.00  0.00    +0.151 HD
ATOM      6  H   UNL     1       6.871   3.135   2.921  0.00  0.00    +0.174 HD
ENDROOT
BRANCH   4   7
ATOM      7  N   UNL     1       5.397   1.978   3.787  0.00  0.00    -0.225 N 
ATOM      8  C   UNL     1       5.964   1.920   5.008  0.00  0.00    +0.315 C 
ATOM      9  O   UNL     1       7.020   2.481   5.215  0.00  0.00    -0.264 OA
ATOM     10  H   UNL     1       4.553   1.530   3.622  0.00  0.00    +0.173 HD
BRANCH   8  11
ATOM     11  C   UNL     1       5.291   1.164   6.109  0.00  0.00    +0.301 C 
ATOM     12  O   UNL     1       4.235   0.603   5.902  0.00  0.00    -0.265 OA
ATOM     13  N   UNL     1       5.858   1.106   7.330  0.00  0.00    -0.305 N 
ATOM     14  H   UNL     1       6.702   1.554   7.495  0.00  0.00    +0.149 HD
BRANCH  13  15
ATOM     15  C   UNL     1       5.199   0.365   8.409  0.00  0.00    +0.073 C 
ATOM     16  C   UNL     1       5.153   1.021   9.790  0.00  0.00    +0.024 C 
ATOM     17  C   UNL     1       6.080  -0.170   9.539  0.00  0.00    +0.024 C 
ENDBRANCH  13  15
ENDBRANCH   8  11
ENDBRANCH   4   7
BRANCH   1  18
ATOM     18  C   UNL     1       3.671   2.185  -0.023  0.00  0.00    +0.142 C 
BRANCH  18  21
ATOM     19  C   UNL     1      -0.017   1.379   0.010  0.00  0.00    +0.020 A 
ATOM     20  C   UNL     1       1.171   2.087   0.002  0.00  0.00    +0.008 A 
ATOM     21  C   UNL     1       2.377   1.413  -0.013  0.00  0.00    -0.012 A 
ATOM     22  C   UNL     1       2.397   0.029  -0.021  0.00  0.00    +0.047 A 
ATOM     23  C   UNL     1       1.210  -0.679  -0.013  0.00  0.00    +0.040 A 
ATOM     24  C   UNL     1       0.002  -0.004   0.002  0.00  0.00    +0.042 A 
ATOM     25 CL   UNL     1      -1.489  -0.893   0.012  0.00  0.00    -0.083 Cl
ATOM     26 CL   UNL     1       3.913  -0.817  -0.041  0.00  0.00    -0.083 Cl
ENDBRANCH  18  21
ENDBRANCH   1  18
TORSDOF 5
