REMARK  Name = ZINC16956348
REMARK  4 active torsions:
REMARK  status: ('A' for Active; 'I' for Inactive)
REMARK    1  A    between atoms: C_1  and  C_2
REMARK    2  A    between atoms: N_4  and  C_26
REMARK    3  A    between atoms: C_7  and  C_9
REMARK    4  A    between atoms: N_15  and  C_18
REMARK                            x       y       z     vdW  Elec       q    Type
REMARK                         _______ _______ _______ _____ _____    ______ ____
ROOT
ATOM      1  C   UNL     1       1.270  -0.669   2.032  0.00  0.00    +0.010 C 
ATOM      2  C   UNL     1       1.170  -0.167   3.284  0.00  0.00    +0.098 C 
ATOM      3  C   UNL     1      -0.143   0.051   3.929  0.00  0.00    +0.274 C 
ATOM      4  O   UNL     1      -1.289  -0.248   3.282  0.00  0.00    -0.268 OA
ATOM      5  N   UNL     1      -0.167   0.544   5.151  0.00  0.00    -0.153 NA
ATOM      6  C   UNL     1       0.948   0.848   5.815  0.00  0.00    +0.171 C 
ATOM      7  N   UNL     1       2.181   0.686   5.316  0.00  0.00    -0.213 N 
ATOM      8  C   UNL     1       2.373   0.185   4.077  0.00  0.00    +0.261 C 
ATOM      9  O   UNL     1       3.492   0.033   3.626  0.00  0.00    -0.269 OA
ATOM     10  S   UNL     1       0.795   1.483   7.398  0.00  0.00    -0.016 S 
ENDROOT
BRANCH   1  17
ATOM     11  C   UNL     1       0.688   1.292  -0.474  0.00  0.00    +0.063 C 
ATOM     12  C   UNL     1       0.316  -0.143  -0.200  0.00  0.00    +0.050 C 
ATOM     13  N   UNL     1       0.175  -1.067  -1.068  0.00  0.00    -0.181 NA
ATOM     14  N   UNL     1      -0.173  -2.294  -0.510  0.00  0.00    -0.160 N 
ATOM     15  C   UNL     1      -0.277  -2.205   0.833  0.00  0.00    +0.252 C 
ATOM     16  O   UNL     1      -0.563  -3.090   1.611  0.00  0.00    -0.272 OA
ATOM     17  C   UNL     1       0.046  -0.759   1.157  0.00  0.00    +0.146 C 
BRANCH  14  18
ATOM     18  C   UNL     1      -0.386  -3.466  -1.244  0.00  0.00    +0.060 A 
ATOM     19  C   UNL     1      -0.737  -4.641  -0.593  0.00  0.00    +0.025 A 
ATOM     20  C   UNL     1      -0.946  -5.796  -1.321  0.00  0.00    +0.002 A 
ATOM     21  C   UNL     1      -0.808  -5.783  -2.697  0.00  0.00    +0.000 A 
ATOM     22  C   UNL     1      -0.459  -4.614  -3.348  0.00  0.00    +0.002 A 
ATOM     23  C   UNL     1      -0.254  -3.455  -2.627  0.00  0.00    +0.025 A 
ENDBRANCH  14  18
ENDBRANCH   1  17
BRANCH   7  24
ATOM     24  C   UNL     1       3.292   1.037   6.097  0.00  0.00    +0.078 A 
ATOM     25  C   UNL     1       3.882   0.096   6.930  0.00  0.00    +0.027 A 
ATOM     26  C   UNL     1       4.976   0.445   7.697  0.00  0.00    +0.002 A 
ATOM     27  C   UNL     1       5.484   1.729   7.638  0.00  0.00    +0.003 A 
ATOM     28  C   UNL     1       4.900   2.670   6.811  0.00  0.00    +0.040 A 
ATOM     29  C   UNL     1       3.808   2.326   6.035  0.00  0.00    +0.145 A 
ATOM     30  F   UNL     1       3.240   3.244   5.222  0.00  0.00    -0.204 F 
ENDBRANCH   7  24
TORSDOF 3
