REMARK  Name = ZINC59335890
REMARK  6 active torsions:
REMARK  status: ('A' for Active; 'I' for Inactive)
REMARK    1  A    between atoms: C_1  and  C_2
REMARK    2  A    between atoms: N_10  and  C_11
REMARK    3  A    between atoms: C_11  and  C_12
REMARK    4  A    between atoms: N_14  and  N_15
REMARK    5  A    between atoms: C_16  and  C_18
REMARK    6  A    between atoms: C_23  and  O_24
REMARK                            x       y       z     vdW  Elec       q    Type
REMARK                         _______ _______ _______ _____ _____    ______ ____
ROOT
ATOM      1  C   UNL     1      -1.389  -0.157   2.986  0.00  0.00    +0.249 C 
ATOM      2  O   UNL     1      -2.314  -0.434   2.252  0.00  0.00    -0.272 OA
ATOM      3  N   UNL     1      -1.629   0.283   4.237  0.00  0.00    -0.233 N 
ATOM      4  H   UNL     1      -0.889   0.505   4.824  0.00  0.00    +0.173 HD
ENDROOT
BRANCH   3   5
ATOM      5  N   UNL     1      -2.948   0.421   4.689  0.00  0.00    -0.230 N 
ATOM      6  C   UNL     1      -3.188   0.862   5.940  0.00  0.00    +0.264 C 
ATOM      7  O   UNL     1      -2.261   1.140   6.676  0.00  0.00    -0.269 OA
ATOM      8  H   UNL     1      -3.688   0.200   4.103  0.00  0.00    +0.173 HD
BRANCH   6   9
ATOM      9  C   UNL     1      -4.577   1.007   6.417  0.00  0.00    +0.079 A 
ATOM     10  C   UNL     1      -5.645   0.684   5.577  0.00  0.00    +0.017 A 
ATOM     11  C   UNL     1      -6.940   0.822   6.029  0.00  0.00    +0.001 A 
ATOM     12  C   UNL     1      -7.188   1.280   7.312  0.00  0.00    +0.004 A 
ATOM     13  C   UNL     1      -6.141   1.604   8.152  0.00  0.00    +0.046 A 
ATOM     14  C   UNL     1      -4.831   1.465   7.717  0.00  0.00    +0.129 A 
BRANCH  14  15
ATOM     15  O   UNL     1      -3.802   1.776   8.543  0.00  0.00    -0.506 OA
ATOM     16  H   UNL     1      -3.518   2.699   8.487  0.00  0.00    +0.292 HD
ENDBRANCH  14  15
ENDBRANCH   6   9
ENDBRANCH   3   5
BRANCH   1  17
ATOM     17  C   UNL     1       0.030  -0.305   2.499  0.00  0.00    +0.219 C 
BRANCH  17  27
ATOM     18  C   UNL     1      -0.018   1.503   0.010  0.00  0.00    +0.065 C 
ATOM     19  C   UNL     1       0.002  -0.004   0.002  0.00  0.00    +0.031 A 
ATOM     20  C   UNL     1       0.008  -0.769  -1.101  0.00  0.00    +0.046 A 
ATOM     21  C   UNL     1       0.029  -2.164  -0.655  0.00  0.00    +0.014 A 
ATOM     22  C   UNL     1       0.043  -3.394  -1.316  0.00  0.00    +0.011 A 
ATOM     23  C   UNL     1       0.061  -4.553  -0.592  0.00  0.00    +0.001 A 
ATOM     24  C   UNL     1       0.066  -4.518   0.796  0.00  0.00    +0.002 A 
ATOM     25  C   UNL     1       0.053  -3.316   1.468  0.00  0.00    +0.026 A 
ATOM     26  C   UNL     1       0.034  -2.123   0.751  0.00  0.00    +0.051 A 
ATOM     27  N   UNL     1       0.023  -0.796   1.119  0.00  0.00    -0.334 N 
ATOM     28 BR   UNL     1      -0.008  -0.161  -2.892  0.00  0.00    -0.048 Br
ENDBRANCH  17  27
ENDBRANCH   1  17
TORSDOF 5
