REMARK  Name = ZINC00719309
REMARK  3 active torsions:
REMARK  status: ('A' for Active; 'I' for Inactive)
REMARK    1  A    between atoms: C_7  and  C_9
REMARK    2  A    between atoms: C_9  and  S_10
REMARK    3  A    between atoms: S_10  and  C_11
REMARK                            x       y       z     vdW  Elec       q    Type
REMARK                         _______ _______ _______ _____ _____    ______ ____
ROOT
ATOM      1  C   UNL     1      -2.096   7.712  -0.450  0.00  0.00    +0.191 A 
ATOM      2  N   UNL     1      -1.760   7.336   0.775  0.00  0.00    -0.207 NA
ATOM      3  C   UNL     1      -1.272   6.135   1.075  0.00  0.00    +0.129 A 
ATOM      4  C   UNL     1      -1.119   5.233  -0.018  0.00  0.00    +0.051 A 
ATOM      5  C   UNL     1      -0.613   3.870   0.035  0.00  0.00    -0.025 A 
ATOM      6  C   UNL     1      -0.557   3.198  -1.136  0.00  0.00    -0.004 A 
ATOM      7  S   UNL     1      -1.169   4.332  -2.357  0.00  0.00    -0.073 S 
ATOM      8  C   UNL     1      -1.500   5.705  -1.299  0.00  0.00    +0.115 A 
ATOM      9  N   UNL     1      -1.977   6.915  -1.514  0.00  0.00    -0.214 NA
ATOM     10  C   UNL     1      -0.080   1.795  -1.355  0.00  0.00    +0.043 C 
ATOM     11  C   UNL     1       0.689   1.341  -0.106  0.00  0.00    +0.005 C 
ATOM     12  C   UNL     1      -0.137   1.691   1.136  0.00  0.00    +0.005 C 
ATOM     13  C   UNL     1      -0.161   3.206   1.333  0.00  0.00    +0.037 C 
ATOM     14  N   UNL     1      -0.934   5.783   2.369  0.00  0.00    -0.343 N 
ATOM     15  H   UNL     1      -1.265   6.306   3.116  0.00  0.00    +0.144 HD
ATOM     16  H   UNL     1      -0.365   5.014   2.530  0.00  0.00    +0.144 HD
ENDROOT
BRANCH   1  17
ATOM     17  S   UNL     1      -2.730   9.339  -0.686  0.00  0.00    -0.077 S 
BRANCH  17  18
ATOM     18  C   UNL     1      -2.676   9.947   1.018  0.00  0.00    +0.173 C 
BRANCH  18  25
ATOM     19  C   UNL     1      -2.345  13.674   4.353  0.00  0.00    +0.003 C 
ATOM     20  C   UNL     1      -2.684  14.279   2.989  0.00  0.00    +0.019 C 
ATOM     21  C   UNL     1      -3.735  13.407   2.294  0.00  0.00    +0.108 C 
ATOM     22  N   UNL     1      -3.239  12.025   2.235  0.00  0.00    -0.301 N 
ATOM     23  C   UNL     1      -2.806  11.377   3.480  0.00  0.00    +0.108 C 
ATOM     24  C   UNL     1      -1.760  12.273   4.161  0.00  0.00    +0.019 C 
ATOM     25  C   UNL     1      -3.187  11.364   1.062  0.00  0.00    +0.226 C 
ATOM     26  O   UNL     1      -3.552  11.909   0.042  0.00  0.00    -0.275 OA
ENDBRANCH  18  25
ENDBRANCH  17  18
ENDBRANCH   1  17
TORSDOF 3
