REMARK  Name = ZINC36490390
REMARK  15 active torsions:
REMARK  status: ('A' for Active; 'I' for Inactive)
REMARK    1  A    between atoms: C_1  and  C_2
REMARK    2  A    between atoms: C_2  and  C_3
REMARK    3  A    between atoms: C_2  and  C_4
REMARK    4  A    between atoms: C_2  and  C_5
REMARK    5  A    between atoms: C_5  and  C_6
REMARK    6  A    between atoms: C_6  and  C_7
REMARK    7  A    between atoms: C_6  and  C_8
REMARK    8  A    between atoms: C_6  and  N_9
REMARK    9  A    between atoms: C_10  and  C_12
REMARK   10  A    between atoms: C_12  and  C_14
REMARK   11  A    between atoms: C_12  and  N_20
REMARK   12  A    between atoms: N_20  and  C_21
REMARK   13  A    between atoms: C_27  and  C_29
REMARK   14  A    between atoms: C_29  and  N_30
REMARK   15  A    between atoms: C_31  and  C_33
REMARK                            x       y       z     vdW  Elec       q    Type
REMARK                         _______ _______ _______ _____ _____    ______ ____
ROOT
ATOM      1  N   UNL     1       6.808   0.049  -4.043  0.00  0.00    -0.285 N 
ATOM      2  C   UNL     1       7.430   0.989  -4.781  0.00  0.00    +0.234 C 
ATOM      3  O   UNL     1       6.842   1.531  -5.693  0.00  0.00    -0.274 OA
ENDROOT
BRANCH   1   4
ATOM      4  C   UNL     1       7.557  -0.706  -3.035  0.00  0.00    +0.077 C 
ATOM      5  C   UNL     1       8.009   0.241  -1.921  0.00  0.00    +0.022 C 
ATOM      6  C   UNL     1       8.792  -0.547  -0.868  0.00  0.00    +0.002 C 
ATOM      7  C   UNL     1      10.018  -1.190  -1.520  0.00  0.00    +0.000 C 
ATOM      8  C   UNL     1       9.566  -2.137  -2.634  0.00  0.00    +0.002 C 
ATOM      9  C   UNL     1       8.783  -1.349  -3.686  0.00  0.00    +0.022 C 
ENDBRANCH   1   4
BRANCH   1  10
ATOM     10  C   UNL     1       5.382  -0.218  -4.248  0.00  0.00    +0.165 C 
BRANCH  10  11
ATOM     11  C   UNL     1       5.192  -1.679  -4.662  0.00  0.00    +0.018 C 
ATOM     12  C   UNL     1       6.040  -1.972  -5.901  0.00  0.00    +0.006 C 
ATOM     13  C   UNL     1       5.850  -3.433  -6.315  0.00  0.00    +0.000 C 
ATOM     14  C   UNL     1       4.375  -3.684  -6.636  0.00  0.00    +0.000 C 
ATOM     15  C   UNL     1       3.526  -3.390  -5.397  0.00  0.00    +0.000 C 
ATOM     16  C   UNL     1       3.717  -1.930  -4.983  0.00  0.00    +0.006 C 
ENDBRANCH  10  11
BRANCH  10  18
ATOM     17  N   UNL     1       3.293   0.183  -2.986  0.00  0.00    -0.309 N 
ATOM     18  C   UNL     1       4.633   0.042  -2.966  0.00  0.00    +0.234 C 
ATOM     19  O   UNL     1       5.236   0.125  -1.917  0.00  0.00    -0.274 OA
ATOM     20  H   UNL     1       2.803   0.043  -3.811  0.00  0.00    +0.149 HD
BRANCH  17  21
ATOM     21  C   UNL     1       2.576   0.546  -1.761  0.00  0.00    +0.030 C 
ATOM     22  C   UNL     1       3.335   1.661  -1.038  0.00  0.00    +0.031 C 
ATOM     23  C   UNL     1       2.474  -0.677  -0.848  0.00  0.00    +0.031 C 
BRANCH  21  24
ATOM     24  C   UNL     1       1.171   1.035  -2.118  0.00  0.00    +0.031 C 
BRANCH  24  26
ATOM     25  C   UNL     1       1.315   1.170  -4.609  0.00  0.00    +0.010 C 
ATOM     26  C   UNL     1       1.250   1.984  -3.315  0.00  0.00    -0.036 C 
ATOM     27  C   UNL     1       2.504   2.853  -3.195  0.00  0.00    +0.010 C 
ATOM     28  C   UNL     1       0.009   2.880  -3.338  0.00  0.00    +0.010 C 
ENDBRANCH  24  26
ENDBRANCH  21  24
ENDBRANCH  17  21
ENDBRANCH  10  18
ENDBRANCH   1  10
BRANCH   2  29
ATOM     29  C   UNL     1       8.857   1.367  -4.474  0.00  0.00    +0.200 C 
BRANCH  29  30
ATOM     30  N   UNL     1       9.241   2.523  -5.286  0.00  0.00    -0.303 N 
ATOM     31  C   UNL     1      10.482   3.039  -5.179  0.00  0.00    +0.244 C 
ATOM     32  O   UNL     1      11.281   2.545  -4.408  0.00  0.00    -0.270 OA
ATOM     33  H   UNL     1       8.604   2.918  -5.901  0.00  0.00    +0.150 HD
BRANCH  31  34
ATOM     34  C   UNL     1      10.870   4.207  -5.999  0.00  0.00    +0.037 A 
ATOM     35  C   UNL     1       9.953   4.780  -6.881  0.00  0.00    +0.013 A 
ATOM     36  C   UNL     1      10.322   5.870  -7.642  0.00  0.00    +0.001 A 
ATOM     37  C   UNL     1      11.597   6.394  -7.534  0.00  0.00    +0.000 A 
ATOM     38  C   UNL     1      12.512   5.830  -6.662  0.00  0.00    +0.001 A 
ATOM     39  C   UNL     1      12.154   4.744  -5.890  0.00  0.00    +0.013 A 
ENDBRANCH  31  34
ENDBRANCH  29  30
ENDBRANCH   2  29
TORSDOF 10
