REMARK  Name = ZINC11853653
REMARK  10 active torsions:
REMARK  status: ('A' for Active; 'I' for Inactive)
REMARK    1  A    between atoms: C_1  and  C_2
REMARK    2  A    between atoms: C_8  and  C_9
REMARK    3  A    between atoms: C_8  and  N_54
REMARK    4  A    between atoms: C_10  and  O_27
REMARK    5  A    between atoms: C_13  and  C_16
REMARK    6  A    between atoms: C_14  and  O_15
REMARK    7  A    between atoms: C_16  and  C_18
REMARK    8  A    between atoms: C_18  and  C_19
REMARK    9  A    between atoms: C_22  and  O_25
REMARK   10  A    between atoms: O_25  and  C_26
REMARK                            x       y       z     vdW  Elec       q    Type
REMARK                         _______ _______ _______ _____ _____    ______ ____
ROOT
ATOM      1  C   UNL     1      -0.775  -2.365   1.543  0.00  0.00    +0.020 A 
ATOM      2  C   UNL     1      -1.233  -2.490   2.848  0.00  0.00    +0.122 A 
ATOM      3  C   UNL     1      -2.551  -2.863   3.098  0.00  0.00    +0.046 A 
ATOM      4  C   UNL     1      -3.404  -3.120   2.065  0.00  0.00    +0.018 A 
ATOM      5  C   UNL     1      -2.958  -3.005   0.741  0.00  0.00    +0.060 A 
ATOM      6  C   UNL     1      -1.629  -2.623   0.485  0.00  0.00    +0.132 A 
ENDROOT
BRANCH   6   7
ATOM      7  O   UNL     1      -1.186  -2.507  -0.792  0.00  0.00    -0.506 OA
ATOM      8  H   UNL     1      -0.812  -3.322  -1.154  0.00  0.00    +0.292 HD
ENDBRANCH   6   7
BRANCH   5   9
ATOM      9  C   UNL     1      -3.872  -3.280  -0.370  0.00  0.00    +0.171 C 
ATOM     10  O   UNL     1      -3.483  -3.179  -1.515  0.00  0.00    -0.292 OA
BRANCH   9  11
ATOM     11  C   UNL     1      -5.295  -3.689  -0.091  0.00  0.00    +0.114 C 
BRANCH  11  12
ATOM     12  C   UNL     1      -6.019  -3.911  -1.395  0.00  0.00    -0.040 A 
ATOM     13  C   UNL     1      -6.688  -2.863  -2.000  0.00  0.00    +0.007 A 
ATOM     14  C   UNL     1      -7.347  -3.063  -3.197  0.00  0.00    +0.046 A 
ATOM     15  C   UNL     1      -7.346  -4.318  -3.787  0.00  0.00    +0.120 A 
ATOM     16  C   UNL     1      -6.679  -5.369  -3.175  0.00  0.00    +0.046 A 
ATOM     17  C   UNL     1      -6.017  -5.163  -1.980  0.00  0.00    +0.007 A 
BRANCH  15  18
ATOM     18  O   UNL     1      -7.999  -4.518  -4.963  0.00  0.00    -0.495 OA
ATOM     19  C   UNL     1      -8.664  -3.391  -5.536  0.00  0.00    +0.277 C 
ENDBRANCH  15  18
ENDBRANCH  11  12
ENDBRANCH   9  11
ENDBRANCH   5   9
BRANCH   2  20
ATOM     20  O   UNL     1      -0.393  -2.243   3.884  0.00  0.00    -0.506 OA
ATOM     21  H   UNL     1      -0.394  -1.322   4.180  0.00  0.00    +0.292 HD
ENDBRANCH   2  20
BRANCH   1  22
ATOM     22  C   UNL     1       0.651  -1.955   1.280  0.00  0.00    -0.036 C 
BRANCH  22  29
ATOM     23  C   UNL     1       3.624   1.962   1.177  0.00  0.00    +0.005 C 
ATOM     24  C   UNL     1       2.169   1.490   1.211  0.00  0.00    -0.031 C 
ATOM     25  C   UNL     1       1.420   2.051  -0.001  0.00  0.00    -0.001 C 
ATOM     26  C   UNL     1      -0.019   1.526   0.010  0.00  0.00    -0.018 C 
ATOM     27  C   UNL     1       0.002  -0.004   0.002  0.00  0.00    -0.078 C 
ATOM     28  C   UNL     1       2.126  -0.039   1.168  0.00  0.00    -0.075 C 
ATOM     29  N   UNL     1       0.716  -0.481   1.206  0.00  0.00    +0.383 N 
ATOM     30  H   UNL     1       0.265  -0.085   2.039  0.00  0.00    -0.081 HD
ENDBRANCH  22  29
ENDBRANCH   1  22
TORSDOF 8
