REMARK  Name = ZINC39360383
REMARK  6 active torsions:
REMARK  status: ('A' for Active; 'I' for Inactive)
REMARK    1  A    between atoms: N_8  and  C_18
REMARK    2  A    between atoms: C_10  and  C_13
REMARK    3  A    between atoms: C_18  and  C_19
REMARK    4  A    between atoms: N_21  and  C_22
REMARK    5  A    between atoms: C_22  and  C_23
REMARK    6  A    between atoms: C_23  and  C_24
REMARK                            x       y       z     vdW  Elec       q    Type
REMARK                         _______ _______ _______ _____ _____    ______ ____
ROOT
ATOM      1  C   UNL     1      -0.017   1.380   0.010  0.00  0.00    +0.000 A 
ATOM      2  C   UNL     1       1.170   2.090   0.002  0.00  0.00    +0.004 A 
ATOM      3  C   UNL     1       2.380   1.422  -0.005  0.00  0.00    +0.046 A 
ATOM      4  C   UNL     1       2.398   0.035  -0.009  0.00  0.00    +0.123 A 
ATOM      5  C   UNL     1       1.210  -0.671  -0.016  0.00  0.00    -0.022 A 
ATOM      6  C   UNL     1       0.002  -0.004   0.002  0.00  0.00    +0.005 A 
ATOM      7  C   UNL     1       1.241  -2.186  -0.069  0.00  0.00    -0.038 C 
ATOM      8  N   UNL     1       1.768  -2.692   1.203  0.00  0.00    +0.391 N 
ATOM      9  C   UNL     1       3.227  -2.717   1.198  0.00  0.00    -0.028 C 
ATOM     10  C   UNL     1       3.866  -1.347   1.218  0.00  0.00    +0.188 C 
ATOM     11  O   UNL     1       3.584  -0.635   0.007  0.00  0.00    -0.486 OA
ATOM     12  H   UNL     1       1.450  -2.097   1.953  0.00  0.00    -0.080 HD
ENDROOT
BRANCH  10  13
ATOM     13  C   UNL     1       5.358  -1.498   1.367  0.00  0.00    -0.002 A 
ATOM     14  C   UNL     1       5.948  -1.435   2.615  0.00  0.00    +0.015 A 
ATOM     15  C   UNL     1       7.293  -1.575   2.714  0.00  0.00    +0.045 A 
ATOM     16  S   UNL     1       7.767  -1.805   1.008  0.00  0.00    -0.105 S 
ATOM     17  C   UNL     1       6.140  -1.704   0.279  0.00  0.00    +0.052 A 
ENDBRANCH  10  13
BRANCH   8  18
ATOM     18  C   UNL     1       1.264  -4.054   1.424  0.00  0.00    +0.019 C 
BRANCH  18  19
ATOM     19  C   UNL     1      -0.233  -4.015   1.595  0.00  0.00    +0.196 C 
ATOM     20  O   UNL     1      -0.822  -2.956   1.538  0.00  0.00    -0.278 OA
ATOM     21  N   UNL     1      -0.917  -5.155   1.811  0.00  0.00    -0.316 N 
ATOM     22  H   UNL     1      -0.446  -6.002   1.857  0.00  0.00    +0.149 HD
BRANCH  21  23
ATOM     23  C   UNL     1      -2.372  -5.117   1.978  0.00  0.00    +0.110 C 
BRANCH  23  24
ATOM     24  C   UNL     1      -2.897  -6.535   2.208  0.00  0.00    +0.073 C 
BRANCH  24  25
ATOM     25  C   UNL     1      -4.394  -6.495   2.379  0.00  0.00    +0.036 A 
ATOM     26  C   UNL     1      -5.049  -6.246   3.534  0.00  0.00    +0.113 A 
ATOM     27  N   UNL     1      -6.388  -6.301   3.260  0.00  0.00    -0.308 N 
ATOM     28  C   UNL     1      -7.497  -6.131   4.036  0.00  0.00    +0.092 A 
ATOM     29  C   UNL     1      -8.732  -6.242   3.503  0.00  0.00    +0.018 A 
ATOM     30  C   UNL     1      -8.892  -6.535   2.139  0.00  0.00    +0.005 A 
ATOM     31  C   UNL     1      -7.795  -6.707   1.354  0.00  0.00    +0.045 A 
ATOM     32  C   UNL     1      -6.512  -6.588   1.925  0.00  0.00    +0.115 A 
ATOM     33  N   UNL     1      -5.294  -6.696   1.414  0.00  0.00    -0.343 N 
ATOM     34  H   UNL     1      -5.089  -6.891   0.486  0.00  0.00    +0.167 HD
ENDBRANCH  24  25
ENDBRANCH  23  24
ENDBRANCH  21  23
ENDBRANCH  18  19
ENDBRANCH   8  18
TORSDOF 6
