REMARK  Name = ZINC65305834
REMARK  10 active torsions:
REMARK  status: ('A' for Active; 'I' for Inactive)
REMARK    1  A    between atoms: C_1  and  C_2
REMARK    2  A    between atoms: C_7  and  C_8
REMARK    3  A    between atoms: C_8  and  C_9
REMARK    4  A    between atoms: N_11  and  C_12
REMARK    5  A    between atoms: C_12  and  C_14
REMARK    6  A    between atoms: C_12  and  C_18
REMARK    7  A    between atoms: C_14  and  C_15
REMARK    8  A    between atoms: C_15  and  C_16
REMARK    9  A    between atoms: C_15  and  C_17
REMARK   10  A    between atoms: N_20  and  C_21
REMARK                            x       y       z     vdW  Elec       q    Type
REMARK                         _______ _______ _______ _____ _____    ______ ____
ROOT
ATOM      1  C   UNL     1      -2.903   1.487   4.483  0.00  0.00    +0.159 C 
ENDROOT
BRANCH   1   4
ATOM      2  C   UNL     1      -1.681   0.304   2.738  0.00  0.00    +0.218 C 
ATOM      3  O   UNL     1      -2.739  -0.120   2.323  0.00  0.00    -0.275 OA
ATOM      4  N   UNL     1      -1.651   1.072   3.846  0.00  0.00    -0.304 N 
ATOM      5  H   UNL     1      -0.801   1.349   4.221  0.00  0.00    +0.149 HD
BRANCH   2   6
ATOM      6  C   UNL     1      -0.401  -0.027   2.016  0.00  0.00    +0.131 C 
BRANCH   6  13
ATOM      7  C   UNL     1      -1.062   1.425  -0.393  0.00  0.00    +0.044 C 
ATOM      8  C   UNL     1      -1.035  -0.082  -0.405  0.00  0.00    -0.047 A 
ATOM      9  C   UNL     1      -1.321  -0.769  -1.569  0.00  0.00    +0.003 A 
ATOM     10  C   UNL     1      -1.296  -2.151  -1.580  0.00  0.00    +0.000 A 
ATOM     11  C   UNL     1      -0.985  -2.846  -0.426  0.00  0.00    +0.000 A 
ATOM     12  C   UNL     1      -0.698  -2.159   0.738  0.00  0.00    +0.004 A 
ATOM     13  C   UNL     1      -0.719  -0.776   0.748  0.00  0.00    -0.036 A 
ENDBRANCH   6  13
ENDBRANCH   2   6
ENDBRANCH   1   4
BRANCH   1  14
ATOM     14  C   UNL     1      -2.645   1.814   5.931  0.00  0.00    +0.236 C 
ATOM     15  O   UNL     1      -1.520   1.742   6.378  0.00  0.00    -0.274 OA
ATOM     16  N   UNL     1      -3.665   2.187   6.730  0.00  0.00    -0.277 N 
ATOM     17  H   UNL     1      -4.565   2.245   6.373  0.00  0.00    +0.152 HD
BRANCH  16  18
ATOM     18  C   UNL     1      -3.414   2.506   8.138  0.00  0.00    +0.269 C 
ATOM     19  N   UNL     1      -2.836   3.850   8.255  0.00  0.00    -0.348 N 
ATOM     20  C   UNL     1      -3.654   4.566   8.972  0.00  0.00    +0.061 A 
ATOM     21  C   UNL     1      -3.625   5.963   9.425  0.00  0.00    +0.027 A 
ATOM     22  C   UNL     1      -4.638   6.441  10.175  0.00  0.00    +0.002 A 
ATOM     23  C   UNL     1      -5.741   5.652  10.549  0.00  0.00    +0.002 A 
ATOM     24  C   UNL     1      -5.867   4.360  10.187  0.00  0.00    +0.027 A 
ATOM     25  C   UNL     1      -4.821   3.731   9.368  0.00  0.00    +0.061 A 
ATOM     26  N   UNL     1      -4.679   2.532   8.882  0.00  0.00    -0.348 N 
ATOM     27  H   UNL     1      -1.998   4.150   7.870  0.00  0.00    +0.163 HD
ATOM     28  H   UNL     1      -5.297   1.792   8.991  0.00  0.00    +0.163 HD
ENDBRANCH  16  18
ENDBRANCH   1  14
BRANCH   1  29
ATOM     29  C   UNL     1      -3.452   2.725   3.771  0.00  0.00    +0.034 C 
BRANCH  29  30
ATOM     30  C   UNL     1      -2.370   3.806   3.720  0.00  0.00    -0.015 C 
ATOM     31  C   UNL     1      -2.844   4.960   2.833  0.00  0.00    +0.007 C 
ATOM     32  C   UNL     1      -2.102   4.325   5.133  0.00  0.00    +0.007 C 
ENDBRANCH  29  30
ENDBRANCH   1  29
TORSDOF 7
