REMARK  Name = ZINC02454081
REMARK  10 active torsions:
REMARK  status: ('A' for Active; 'I' for Inactive)
REMARK    1  A    between atoms: C_1  and  C_2
REMARK    2  A    between atoms: C_5  and  O_8
REMARK    3  A    between atoms: O_8  and  C_9
REMARK    4  A    between atoms: C_9  and  C_10
REMARK    5  A    between atoms: C_13  and  S_21
REMARK    6  A    between atoms: N_14  and  C_15
REMARK    7  A    between atoms: C_15  and  C_16
REMARK    8  A    between atoms: S_21  and  C_22
REMARK    9  A    between atoms: C_22  and  C_23
REMARK   10  A    between atoms: N_25  and  C_26
REMARK                            x       y       z     vdW  Elec       q    Type
REMARK                         _______ _______ _______ _____ _____    ______ ____
ROOT
ATOM      1  C   UNL     1       0.767   4.245  -2.157  0.00  0.00    +0.172 A 
ATOM      2  N   UNL     1       1.292   4.531  -3.316  0.00  0.00    -0.130 NA
ATOM      3  N   UNL     1       2.533   4.198  -3.332  0.00  0.00    -0.122 NA
ATOM      4  C   UNL     1       2.872   3.683  -2.173  0.00  0.00    +0.193 A 
ATOM      5  N   UNL     1       1.754   3.692  -1.389  0.00  0.00    -0.296 N 
ENDROOT
BRANCH   1   6
ATOM      6  C   UNL     1      -0.662   4.482  -1.741  0.00  0.00    +0.305 C 
BRANCH   6   7
ATOM      7  O   UNL     1      -0.779   5.781  -1.157  0.00  0.00    -0.484 OA
BRANCH   7  12
ATOM      8  C   UNL     1      -5.890   7.328   0.633  0.00  0.00    +0.044 C 
ATOM      9  C   UNL     1      -4.523   6.914   0.154  0.00  0.00    -0.050 A 
ATOM     10  C   UNL     1      -3.453   7.779   0.290  0.00  0.00    +0.007 A 
ATOM     11  C   UNL     1      -2.198   7.402  -0.148  0.00  0.00    +0.046 A 
ATOM     12  C   UNL     1      -2.012   6.154  -0.725  0.00  0.00    +0.121 A 
ATOM     13  C   UNL     1      -3.088   5.290  -0.866  0.00  0.00    +0.046 A 
ATOM     14  C   UNL     1      -4.340   5.670  -0.420  0.00  0.00    +0.007 A 
ENDBRANCH   7  12
ENDBRANCH   6   7
ENDBRANCH   1   6
BRANCH   5  15
ATOM     15  C   UNL     1       1.638   3.214  -0.009  0.00  0.00    +0.199 C 
BRANCH  15  16
ATOM     16  C   UNL     1       1.245   1.759  -0.013  0.00  0.00    +0.125 A 
ATOM     17  C   UNL     1       2.093   0.715  -0.024  0.00  0.00    +0.046 A 
ATOM     18  C   UNL     1       1.301  -0.456  -0.024  0.00  0.00    +0.041 A 
ATOM     19  C   UNL     1       0.017  -0.058  -0.012  0.00  0.00    +0.195 A 
ATOM     20  O   UNL     1      -0.012   1.285  -0.006  0.00  0.00    -0.466 OA
ENDBRANCH  15  16
ENDBRANCH   5  15
BRANCH   4  21
ATOM     21  S   UNL     1       4.467   3.088  -1.717  0.00  0.00    -0.077 S 
BRANCH  21  22
ATOM     22  C   UNL     1       5.373   3.412  -3.250  0.00  0.00    +0.173 C 
BRANCH  22  23
ATOM     23  C   UNL     1       6.805   2.970  -3.090  0.00  0.00    +0.228 C 
ATOM     24  O   UNL     1       7.176   2.484  -2.043  0.00  0.00    -0.275 OA
ATOM     25  N   UNL     1       7.673   3.115  -4.111  0.00  0.00    -0.284 N 
ATOM     26  H   UNL     1       7.362   3.443  -4.969  0.00  0.00    +0.155 HD
BRANCH  25  27
ATOM     27  C   UNL     1       9.023   2.792  -3.933  0.00  0.00    +0.047 A 
ATOM     28  C   UNL     1       9.383   1.736  -3.106  0.00  0.00    +0.024 A 
ATOM     29  C   UNL     1      10.716   1.418  -2.935  0.00  0.00    +0.002 A 
ATOM     30  C   UNL     1      11.693   2.156  -3.578  0.00  0.00    +0.001 A 
ATOM     31  C   UNL     1      11.339   3.211  -4.398  0.00  0.00    +0.017 A 
ATOM     32  C   UNL     1      10.007   3.532  -4.577  0.00  0.00    +0.039 A 
ATOM     33 BR   UNL     1       9.523   4.977  -5.698  0.00  0.00    -0.048 Br
ENDBRANCH  25  27
ENDBRANCH  22  23
ENDBRANCH  21  22
ENDBRANCH   4  21
TORSDOF 9
