REMARK  Name = ZINC08791074
REMARK  12 active torsions:
REMARK  status: ('A' for Active; 'I' for Inactive)
REMARK    1  A    between atoms: C_1  and  C_2
REMARK    2  A    between atoms: C_4  and  C_40
REMARK    3  A    between atoms: C_13  and  C_15
REMARK    4  A    between atoms: C_15  and  C_16
REMARK    5  A    between atoms: C_16  and  C_17
REMARK    6  A    between atoms: N_22  and  C_25
REMARK    7  A    between atoms: C_25  and  C_26
REMARK    8  A    between atoms: C_26  and  C_27
REMARK    9  A    between atoms: C_30  and  O_35
REMARK   10  A    between atoms: C_31  and  O_33
REMARK   11  A    between atoms: O_33  and  C_34
REMARK   12  A    between atoms: O_35  and  C_36
REMARK                            x       y       z     vdW  Elec       q    Type
REMARK                         _______ _______ _______ _____ _____    ______ ____
ROOT
ATOM      1  C   UNL     1     -10.602  -4.565   1.765  0.00  0.00    +0.044 C 
ATOM      2  C   UNL     1      -9.175  -4.615   2.246  0.00  0.00    -0.050 A 
ATOM      3  C   UNL     1      -8.632  -5.809   2.684  0.00  0.00    +0.008 A 
ATOM      4  C   UNL     1      -7.326  -5.861   3.125  0.00  0.00    -0.029 A 
ATOM      5  C   UNL     1      -6.543  -4.709   3.133  0.00  0.00    +0.039 A 
ATOM      6  C   UNL     1      -7.099  -3.513   2.688  0.00  0.00    -0.027 A 
ATOM      7  C   UNL     1      -8.403  -3.466   2.249  0.00  0.00    +0.008 A 
ATOM      8  C   UNL     1      -6.015  -2.482   2.819  0.00  0.00    +0.050 C 
ATOM      9  C   UNL     1      -5.687  -1.835   1.467  0.00  0.00    +0.088 C 
ATOM     10  C   UNL     1      -6.484  -0.501   1.470  0.00  0.00    +0.073 C 
ATOM     11  C   UNL     1      -7.219  -0.480   2.827  0.00  0.00    -0.057 C 
ATOM     12  C   UNL     1      -5.399   0.553   1.480  0.00  0.00    +0.224 C 
ATOM     13  O   UNL     1      -5.587   1.750   1.496  0.00  0.00    -0.275 OA
ATOM     14  N   UNL     1      -4.201  -0.042   1.465  0.00  0.00    -0.241 N 
ATOM     15  C   UNL     1      -4.245  -1.379   1.459  0.00  0.00    +0.225 C 
ATOM     16  O   UNL     1      -3.279  -2.112   1.447  0.00  0.00    -0.275 OA
ATOM     17  C   UNL     1      -4.832  -3.226   3.374  0.00  0.00    +0.211 C 
ATOM     18  O   UNL     1      -3.742  -2.762   3.635  0.00  0.00    -0.277 OA
ATOM     19  N   UNL     1      -5.218  -4.508   3.526  0.00  0.00    -0.286 N 
ATOM     20  C   UNL     1      -6.745  -7.167   3.601  0.00  0.00    +0.045 C 
ATOM     21  H   UNL     1      -4.643  -5.209   3.869  0.00  0.00    +0.155 HD
ATOM     22  N   UNL     1      -6.431  -1.382   3.671  0.00  0.00    +0.394 N 
ATOM     23  H   UNL     1      -5.611  -0.891   4.044  0.00  0.00    -0.083 HD
ATOM     24  H   UNL     1      -7.004  -1.731   4.448  0.00  0.00    -0.083 HD
ENDROOT
BRANCH  11  25
ATOM     25  C   UNL     1      -7.245   0.939   3.397  0.00  0.00    -0.006 C 
BRANCH  25  26
ATOM     26  C   UNL     1      -8.019   0.945   4.717  0.00  0.00    +0.094 C 
BRANCH  26  27
ATOM     27  C   UNL     1      -8.044   2.343   5.279  0.00  0.00    +0.210 C 
ATOM     28  O   UNL     1      -7.496   3.246   4.683  0.00  0.00    -0.276 OA
ATOM     29  N   UNL     1      -8.675   2.590   6.444  0.00  0.00    -0.329 N 
ATOM     30  H   UNL     1      -9.113   1.867   6.920  0.00  0.00    +0.145 HD
ATOM     31  H   UNL     1      -8.691   3.489   6.805  0.00  0.00    +0.145 HD
ENDBRANCH  26  27
ENDBRANCH  25  26
ENDBRANCH  11  25
BRANCH  14  32
ATOM     32  C   UNL     1      -2.943   0.709   1.463  0.00  0.00    +0.121 C 
BRANCH  32  33
ATOM     33  C   UNL     1      -2.513   0.978   0.020  0.00  0.00    +0.054 C 
BRANCH  33  34
ATOM     34  C   UNL     1      -1.219   1.751   0.017  0.00  0.00    -0.042 A 
ATOM     35  C   UNL     1      -1.241   3.133   0.030  0.00  0.00    +0.007 A 
ATOM     36  C   UNL     1      -0.057   3.846   0.022  0.00  0.00    +0.049 A 
ATOM     37  C   UNL     1       1.155   3.176   0.008  0.00  0.00    +0.161 A 
ATOM     38  C   UNL     1       1.178   1.785   0.000  0.00  0.00    +0.162 A 
ATOM     39  C   UNL     1      -0.013   1.076   0.008  0.00  0.00    +0.053 A 
BRANCH  38  40
ATOM     40  O   UNL     1       2.365   1.123  -0.015  0.00  0.00    -0.491 OA
ATOM     41  C   UNL     1       2.312  -0.305  -0.022  0.00  0.00    +0.277 C 
ENDBRANCH  38  40
BRANCH  37  42
ATOM     42  O   UNL     1       2.321   3.877  -0.000  0.00  0.00    -0.491 OA
ATOM     43  C   UNL     1       2.221   5.302   0.008  0.00  0.00    +0.277 C 
ENDBRANCH  37  42
ENDBRANCH  33  34
ENDBRANCH  32  33
ENDBRANCH  14  32
TORSDOF 8
