REMARK  Name = ZINC36600914
REMARK  11 active torsions:
REMARK  status: ('A' for Active; 'I' for Inactive)
REMARK    1  A    between atoms: C_1  and  C_2
REMARK    2  A    between atoms: C_5  and  C_7
REMARK    3  A    between atoms: C_7  and  N_8
REMARK    4  A    between atoms: N_8  and  C_9
REMARK    5  A    between atoms: C_9  and  C_11
REMARK    6  A    between atoms: C_9  and  C_18
REMARK    7  A    between atoms: C_16  and  O_17
REMARK    8  A    between atoms: N_20  and  C_21
REMARK    9  A    between atoms: C_27  and  C_29
REMARK   10  A    between atoms: C_29  and  N_30
REMARK   11  A    between atoms: C_31  and  C_33
REMARK                            x       y       z     vdW  Elec       q    Type
REMARK                         _______ _______ _______ _____ _____    ______ ____
ROOT
ATOM      1  N   UNL     1       2.307  -3.485  -1.107  0.00  0.00    -0.277 N 
ATOM      2  C   UNL     1       2.502  -3.019   0.142  0.00  0.00    +0.234 C 
ATOM      3  O   UNL     1       3.330  -2.156   0.345  0.00  0.00    -0.274 OA
ENDROOT
BRANCH   1   4
ATOM      4  C   UNL     1       1.241  -4.456  -1.368  0.00  0.00    +0.183 C 
BRANCH   4   9
ATOM      5  C   UNL     1       3.524  -8.874  -2.211  0.00  0.00    +0.086 C 
ATOM      6  C   UNL     1       2.762  -7.772  -1.521  0.00  0.00    +0.102 A 
ATOM      7  C   UNL     1       2.278  -7.817  -0.266  0.00  0.00    +0.045 A 
ATOM      8  C   UNL     1       1.639  -6.578  -0.030  0.00  0.00    +0.046 A 
ATOM      9  C   UNL     1       1.770  -5.851  -1.154  0.00  0.00    +0.122 A 
ATOM     10  O   UNL     1       2.456  -6.577  -2.052  0.00  0.00    -0.463 OA
ENDBRANCH   4   9
ENDBRANCH   1   4
BRANCH   1  11
ATOM     11  C   UNL     1       3.159  -3.020  -2.204  0.00  0.00    +0.196 C 
BRANCH  11  12
ATOM     12  C   UNL     1       2.883  -1.563  -2.472  0.00  0.00    +0.023 A 
ATOM     13  C   UNL     1       2.251  -0.792  -1.515  0.00  0.00    +0.009 A 
ATOM     14  C   UNL     1       1.998   0.545  -1.760  0.00  0.00    +0.001 A 
ATOM     15  C   UNL     1       2.376   1.114  -2.962  0.00  0.00    +0.004 A 
ATOM     16  C   UNL     1       3.008   0.348  -3.922  0.00  0.00    +0.046 A 
ATOM     17  C   UNL     1       3.269  -0.993  -3.676  0.00  0.00    +0.122 A 
BRANCH  17  18
ATOM     18  O   UNL     1       3.896  -1.748  -4.617  0.00  0.00    -0.506 OA
ATOM     19  H   UNL     1       3.295  -2.179  -5.240  0.00  0.00    +0.292 HD
ENDBRANCH  17  18
ENDBRANCH  11  12
BRANCH  11  20
ATOM     20  C   UNL     1       4.607  -3.196  -1.825  0.00  0.00    +0.238 C 
ATOM     21  O   UNL     1       4.898  -3.664  -0.745  0.00  0.00    -0.273 OA
ATOM     22  N   UNL     1       5.578  -2.834  -2.686  0.00  0.00    -0.311 N 
ATOM     23  H   UNL     1       5.345  -2.459  -3.550  0.00  0.00    +0.149 HD
BRANCH  22  24
ATOM     24  C   UNL     1       6.985  -3.005  -2.317  0.00  0.00    +0.073 C 
ATOM     25  C   UNL     1       7.452  -1.792  -1.510  0.00  0.00    +0.022 C 
ATOM     26  C   UNL     1       8.922  -1.970  -1.125  0.00  0.00    +0.002 C 
ATOM     27  C   UNL     1       9.770  -2.096  -2.392  0.00  0.00    +0.000 C 
ATOM     28  C   UNL     1       9.303  -3.309  -3.200  0.00  0.00    +0.002 C 
ATOM     29  C   UNL     1       7.833  -3.130  -3.585  0.00  0.00    +0.022 C 
ENDBRANCH  22  24
ENDBRANCH  11  20
ENDBRANCH   1  11
BRANCH   2  30
ATOM     30  C   UNL     1       1.693  -3.570   1.287  0.00  0.00    +0.200 C 
BRANCH  30  31
ATOM     31  N   UNL     1       2.091  -2.906   2.531  0.00  0.00    -0.303 N 
ATOM     32  C   UNL     1       1.496  -3.240   3.694  0.00  0.00    +0.244 C 
ATOM     33  O   UNL     1       0.630  -4.093   3.710  0.00  0.00    -0.270 OA
ATOM     34  H   UNL     1       2.782  -2.225   2.518  0.00  0.00    +0.150 HD
BRANCH  32  35
ATOM     35  C   UNL     1       1.898  -2.570   4.949  0.00  0.00    +0.037 A 
ATOM     36  C   UNL     1       2.888  -1.586   4.932  0.00  0.00    +0.013 A 
ATOM     37  C   UNL     1       3.258  -0.964   6.107  0.00  0.00    +0.001 A 
ATOM     38  C   UNL     1       2.650  -1.313   7.299  0.00  0.00    +0.000 A 
ATOM     39  C   UNL     1       1.668  -2.288   7.323  0.00  0.00    +0.001 A 
ATOM     40  C   UNL     1       1.284  -2.913   6.154  0.00  0.00    +0.013 A 
ENDBRANCH  32  35
ENDBRANCH  30  31
ENDBRANCH   2  30
TORSDOF 10
