REMARK  Name = ZINC39599334
REMARK  12 active torsions:
REMARK  status: ('A' for Active; 'I' for Inactive)
REMARK    1  A    between atoms: C_1  and  C_2
REMARK    2  A    between atoms: C_2  and  C_3
REMARK    3  A    between atoms: C_3  and  C_4
REMARK    4  A    between atoms: C_4  and  C_5
REMARK    5  A    between atoms: C_5  and  C_7
REMARK    6  A    between atoms: C_5  and  C_8
REMARK    7  A    between atoms: C_12  and  C_21
REMARK    8  A    between atoms: N_23  and  C_24
REMARK    9  A    between atoms: C_24  and  C_25
REMARK   10  A    between atoms: C_25  and  C_26
REMARK   11  A    between atoms: C_29  and  O_35
REMARK   12  A    between atoms: O_35  and  C_36
REMARK                            x       y       z     vdW  Elec       q    Type
REMARK                         _______ _______ _______ _____ _____    ______ ____
ROOT
ATOM      1  C   UNL     1      -2.792  -4.254  -0.097  0.00  0.00    +0.218 C 
ATOM      2  O   UNL     1      -1.754  -4.863  -0.247  0.00  0.00    -0.275 OA
ATOM      3  N   UNL     1      -3.970  -4.907  -0.143  0.00  0.00    -0.300 N 
ATOM      4  C   UNL     1      -5.330  -4.340   0.010  0.00  0.00    +0.121 C 
ATOM      5  C   UNL     1      -6.188  -5.099  -1.027  0.00  0.00    +0.100 C 
ATOM      6  C   UNL     1      -5.441  -6.422  -1.262  0.00  0.00    -0.004 C 
ATOM      7  C   UNL     1      -4.197  -6.356  -0.363  0.00  0.00    +0.115 C 
ATOM      8  C   UNL     1      -6.319  -7.604  -0.863  0.00  0.00    -0.010 C 
ATOM      9  C   UNL     1      -5.577  -8.909  -1.161  0.00  0.00    -0.082 C 
ATOM     10  N   UNL     1      -5.252  -8.976  -2.591  0.00  0.00    +0.379 N 
ATOM     11  C   UNL     1      -4.332  -7.889  -2.946  0.00  0.00    -0.082 C 
ATOM     12  C   UNL     1      -5.022  -6.540  -2.724  0.00  0.00    -0.010 C 
ATOM     13  H   UNL     1      -4.817  -9.863  -2.795  0.00  0.00    -0.086 HD
ATOM     14  H   UNL     1      -6.100  -8.887  -3.131  0.00  0.00    -0.086 HD
ENDROOT
BRANCH   5  15
ATOM     15  C   UNL     1      -7.566  -5.363  -0.476  0.00  0.00    +0.218 C 
ATOM     16  O   UNL     1      -7.722  -5.520   0.717  0.00  0.00    -0.275 OA
ATOM     17  N   UNL     1      -8.624  -5.424  -1.308  0.00  0.00    -0.315 N 
ATOM     18  H   UNL     1      -8.499  -5.299  -2.261  0.00  0.00    +0.149 HD
BRANCH  17  19
ATOM     19  C   UNL     1      -9.963  -5.681  -0.772  0.00  0.00    +0.109 C 
BRANCH  19  20
ATOM     20  C   UNL     1     -10.977  -5.700  -1.918  0.00  0.00    +0.056 C 
BRANCH  20  21
ATOM     21  C   UNL     1     -12.354  -5.964  -1.367  0.00  0.00    -0.021 A 
ATOM     22  C   UNL     1     -13.280  -4.967  -0.824  0.00  0.00    +0.006 A 
ATOM     23  C   UNL     1     -13.220  -3.584  -0.646  0.00  0.00    +0.056 A 
ATOM     24  C   UNL     1     -14.296  -2.920  -0.089  0.00  0.00    +0.121 A 
ATOM     25  C   UNL     1     -15.433  -3.625   0.295  0.00  0.00    +0.047 A 
ATOM     26  C   UNL     1     -15.503  -4.990   0.125  0.00  0.00    +0.030 A 
ATOM     27  C   UNL     1     -14.431  -5.677  -0.435  0.00  0.00    +0.047 A 
ATOM     28  N   UNL     1     -14.206  -7.006  -0.727  0.00  0.00    -0.360 N 
ATOM     29  C   UNL     1     -12.967  -7.155  -1.286  0.00  0.00    +0.087 A 
ATOM     30  H   UNL     1     -14.835  -7.726  -0.563  0.00  0.00    +0.165 HD
BRANCH  24  31
ATOM     31  O   UNL     1     -14.243  -1.573   0.087  0.00  0.00    -0.495 OA
ATOM     32  C   UNL     1     -15.389  -0.949   0.669  0.00  0.00    +0.277 C 
ENDBRANCH  24  31
ENDBRANCH  20  21
ENDBRANCH  19  20
ENDBRANCH  17  19
ENDBRANCH   5  15
BRANCH   1  33
ATOM     33  C   UNL     1      -2.765  -2.765   0.140  0.00  0.00    +0.072 C 
ATOM     34  C   UNL     1      -3.414  -2.452   1.489  0.00  0.00    +0.017 C 
BRANCH  33  35
ATOM     35  C   UNL     1      -1.315  -2.276   0.145  0.00  0.00    +0.012 C 
BRANCH  35  36
ATOM     36  C   UNL     1      -1.292  -0.751   0.261  0.00  0.00    +0.000 C 
BRANCH  36  38
ATOM     37  C   UNL     1       0.180   1.264   0.382  0.00  0.00    +0.004 C 
ATOM     38  C   UNL     1       0.157  -0.262   0.266  0.00  0.00    -0.003 C 
ENDBRANCH  36  38
ENDBRANCH  35  36
ENDBRANCH  33  35
ENDBRANCH   1  33
TORSDOF 9
