REMARK  Name = ZINC02356210
REMARK  5 active torsions:
REMARK  status: ('A' for Active; 'I' for Inactive)
REMARK    1  A    between atoms: C_2  and  C_3
REMARK    2  A    between atoms: C_3  and  N_4
REMARK    3  A    between atoms: N_13  and  C_14
REMARK    4  A    between atoms: C_14  and  C_15
REMARK    5  A    between atoms: C_15  and  C_16
REMARK                            x       y       z     vdW  Elec       q    Type
REMARK                         _______ _______ _______ _____ _____    ______ ____
ROOT
ATOM      1  N   UNL     1      -0.605  -2.296  -0.005  0.00  0.00    -0.295 N 
ATOM      2  C   UNL     1       0.712  -2.609  -0.020  0.00  0.00    +0.204 A 
ATOM      3  N   UNL     1       1.646  -1.698  -0.024  0.00  0.00    -0.219 NA
ATOM      4  C   UNL     1       1.347  -0.389  -0.013  0.00  0.00    +0.151 A 
ATOM      5  C   UNL     1       0.002  -0.004   0.002  0.00  0.00    +0.111 A 
ATOM      6  C   UNL     1      -0.996  -1.002   0.006  0.00  0.00    +0.266 A 
ATOM      7  O   UNL     1      -2.178  -0.705   0.018  0.00  0.00    -0.267 OA
ATOM      8  C   UNL     1      -0.018   1.464   0.010  0.00  0.00    +0.123 A 
ATOM      9  C   UNL     1       1.343   1.872  -0.001  0.00  0.00    +0.162 A 
ATOM     10  N   UNL     1       2.128   0.737  -0.014  0.00  0.00    -0.308 N 
ATOM     11  N   UNL     1       1.646   3.156   0.003  0.00  0.00    -0.226 NA
ATOM     12  C   UNL     1       0.672   4.072   0.017  0.00  0.00    +0.092 A 
ATOM     13  C   UNL     1       0.975   5.445   0.020  0.00  0.00    +0.030 A 
ATOM     14  C   UNL     1      -0.032   6.360   0.034  0.00  0.00    +0.002 A 
ATOM     15  C   UNL     1      -1.367   5.957   0.044  0.00  0.00    +0.002 A 
ATOM     16  C   UNL     1      -1.700   4.638   0.041  0.00  0.00    +0.030 A 
ATOM     17  C   UNL     1      -0.686   3.663   0.027  0.00  0.00    +0.090 A 
ATOM     18  N   UNL     1      -0.988   2.360   0.019  0.00  0.00    -0.241 NA
ENDROOT
BRANCH   1  19
ATOM     19  C   UNL     1      -1.609  -3.363  -0.002  0.00  0.00    +0.153 C 
BRANCH  19  21
ATOM     20  C   UNL     1      -1.865  -4.961  -1.830  0.00  0.00    +0.005 C 
ATOM     21  C   UNL     1      -1.967  -3.721  -1.421  0.00  0.00    -0.013 C 
ENDBRANCH  19  21
ENDBRANCH   1  19
BRANCH  10  22
ATOM     22  C   UNL     1       3.593   0.736  -0.029  0.00  0.00    +0.129 C 
BRANCH  22  23
ATOM     23  C   UNL     1       4.089   0.744  -1.476  0.00  0.00    +0.052 C 
BRANCH  23  24
ATOM     24  C   UNL     1       5.596   0.742  -1.491  0.00  0.00    -0.072 C 
ATOM     25  C   UNL     1       6.201  -0.397  -1.603  0.00  0.00    -0.028 C 
ATOM     26  C   UNL     1       7.693  -0.558  -1.623  0.00  0.00    +0.027 C 
ATOM     27  C   UNL     1       8.364   0.785  -1.920  0.00  0.00    +0.004 C 
ATOM     28  C   UNL     1       7.765   1.844  -0.985  0.00  0.00    +0.005 C 
ATOM     29  C   UNL     1       6.302   2.062  -1.381  0.00  0.00    +0.030 C 
ENDBRANCH  23  24
ENDBRANCH  22  23
ENDBRANCH  10  22
TORSDOF 5
