REMARK  Name = ZINC22109327
REMARK  13 active torsions:
REMARK  status: ('A' for Active; 'I' for Inactive)
REMARK    1  A    between atoms: C_1  and  N_2
REMARK    2  A    between atoms: C_3  and  S_7
REMARK    3  A    between atoms: S_7  and  C_8
REMARK    4  A    between atoms: C_8  and  C_9
REMARK    5  A    between atoms: C_9  and  C_10
REMARK    6  A    between atoms: C_10  and  N_11
REMARK    7  A    between atoms: N_11  and  C_12
REMARK    8  A    between atoms: C_12  and  C_13
REMARK    9  A    between atoms: C_15  and  O_30
REMARK   10  A    between atoms: C_16  and  O_20
REMARK   11  A    between atoms: O_20  and  C_21
REMARK   12  A    between atoms: C_21  and  C_22
REMARK   13  A    between atoms: O_30  and  C_31
REMARK                            x       y       z     vdW  Elec       q    Type
REMARK                         _______ _______ _______ _____ _____    ______ ____
ROOT
ATOM      1  C   UNL     1       1.534   0.027   3.639  0.00  0.00    -0.059 A 
ATOM      2  C   UNL     1       0.990   0.393   2.422  0.00  0.00    +0.051 A 
ATOM      3  C   UNL     1      -0.148   1.182   2.380  0.00  0.00    +0.163 A 
ATOM      4  C   UNL     1      -0.748   1.595   3.566  0.00  0.00    +0.181 A 
ATOM      5  C   UNL     1      -0.201   1.221   4.783  0.00  0.00    +0.086 A 
ATOM      6  C   UNL     1       0.939   0.438   4.817  0.00  0.00    +0.025 A 
ATOM      7 CL   UNL     1      -0.946   1.735   6.265  0.00  0.00    -0.080 Cl
ENDROOT
BRANCH   3   8
ATOM      8  O   UNL     1      -0.682   1.547   1.184  0.00  0.00    -0.491 OA
ATOM      9  C   UNL     1      -0.013   1.086   0.008  0.00  0.00    +0.277 C 
ENDBRANCH   3   8
BRANCH   1  10
ATOM     10  C   UNL     1       2.776  -0.826   3.681  0.00  0.00    -0.047 C 
BRANCH  10  11
ATOM     11  N   UNL     1       2.394  -2.245   3.697  0.00  0.00    +0.382 N 
ATOM     12  H   UNL     1       1.813  -2.464   2.789  0.00  0.00    -0.085 HD
ATOM     13  H   UNL     1       1.773  -2.433   4.584  0.00  0.00    -0.085 HD
BRANCH  11  14
ATOM     14  C   UNL     1       3.582  -3.108   3.738  0.00  0.00    -0.081 C 
BRANCH  14  15
ATOM     15  C   UNL     1       3.146  -4.575   3.753  0.00  0.00    -0.008 C 
BRANCH  15  16
ATOM     16  C   UNL     1       4.383  -5.474   3.796  0.00  0.00    +0.075 C 
BRANCH  16  17
ATOM     17  S   UNL     1       3.867  -7.209   3.814  0.00  0.00    -0.085 S 
BRANCH  17  20
ATOM     18  C   UNL     1       4.680 -10.406   3.899  0.00  0.00    +0.177 C 
ATOM     19  N   UNL     1       5.674  -9.330   3.896  0.00  0.00    -0.223 N 
ATOM     20  C   UNL     1       5.442  -7.997   3.862  0.00  0.00    +0.209 A 
ATOM     21  N   UNL     1       6.614  -7.400   3.879  0.00  0.00    -0.102 NA
ATOM     22  N   UNL     1       7.560  -8.267   3.915  0.00  0.00    -0.022 NA
ATOM     23  N   UNL     1       7.074  -9.461   3.923  0.00  0.00    -0.043 NA
ENDBRANCH  17  20
ENDBRANCH  16  17
ENDBRANCH  15  16
ENDBRANCH  14  15
ENDBRANCH  11  14
ENDBRANCH  10  11
ENDBRANCH   1  10
BRANCH   4  24
ATOM     24  O   UNL     1      -1.869   2.365   3.530  0.00  0.00    -0.482 OA
BRANCH  24  25
ATOM     25  C   UNL     1      -3.125   1.684   3.514  0.00  0.00    +0.266 C 
BRANCH  25  26
ATOM     26  C   UNL     1      -4.244   2.692   3.475  0.00  0.00    +0.008 A 
ATOM     27  C   UNL     1      -3.955   4.044   3.461  0.00  0.00    +0.010 A 
ATOM     28  C   UNL     1      -4.981   4.970   3.424  0.00  0.00    +0.020 A 
ATOM     29  C   UNL     1      -6.297   4.544   3.402  0.00  0.00    +0.042 A 
ATOM     30  C   UNL     1      -6.586   3.191   3.417  0.00  0.00    +0.040 A 
ATOM     31  C   UNL     1      -5.559   2.265   3.448  0.00  0.00    +0.049 A 
ATOM     32 CL   UNL     1      -5.921   0.567   3.460  0.00  0.00    -0.083 Cl
ATOM     33 CL   UNL     1      -7.585   5.707   3.357  0.00  0.00    -0.083 Cl
ENDBRANCH  25  26
ENDBRANCH  24  25
ENDBRANCH   4  24
TORSDOF 11
