REMARK  Name = ZINC20111730
REMARK  9 active torsions:
REMARK  status: ('A' for Active; 'I' for Inactive)
REMARK    1  A    between atoms: C_1  and  C_2
REMARK    2  A    between atoms: C_2  and  O_3
REMARK    3  A    between atoms: O_3  and  C_4
REMARK    4  A    between atoms: C_9  and  C_10
REMARK    5  A    between atoms: C_10  and  C_11
REMARK    6  A    between atoms: C_11  and  C_22
REMARK    7  A    between atoms: N_14  and  C_21
REMARK    8  A    between atoms: N_17  and  C_20
REMARK    9  A    between atoms: C_22  and  N_23
REMARK                            x       y       z     vdW  Elec       q    Type
REMARK                         _______ _______ _______ _____ _____    ______ ____
ROOT
ATOM      1  C   UNL     1       1.327   1.386   2.546  0.00  0.00    +0.140 C 
ATOM      2  C   UNL     1       1.382   2.877   2.823  0.00  0.00    +0.237 C 
ATOM      3  O   UNL     1       0.832   3.357   3.791  0.00  0.00    -0.274 OA
ATOM      4  N   UNL     1       2.063   3.651   1.958  0.00  0.00    -0.255 N 
ATOM      5  C   UNL     1       2.674   3.140   0.883  0.00  0.00    +0.148 C 
ATOM      6  S   UNL     1       3.507   4.226  -0.146  0.00  0.00    -0.018 S 
ATOM      7  N   UNL     1       2.682   1.844   0.553  0.00  0.00    -0.255 N 
ATOM      8  C   UNL     1       2.053   0.912   1.302  0.00  0.00    +0.237 C 
ATOM      9  O   UNL     1       2.068  -0.259   0.990  0.00  0.00    -0.274 OA
ATOM     10  C   UNL     1       3.393   1.422  -0.656  0.00  0.00    +0.140 C 
ATOM     11  C   UNL     1       2.135   5.095   2.197  0.00  0.00    +0.140 C 
ENDROOT
BRANCH   1  12
ATOM     12  C   UNL     1       1.923   0.656   3.752  0.00  0.00    +0.065 C 
BRANCH  12  18
ATOM     13  C   UNL     1       3.722   2.188   4.590  0.00  0.00    +0.124 A 
ATOM     14  C   UNL     1       5.059   2.532   4.732  0.00  0.00    +0.046 A 
ATOM     15  C   UNL     1       6.039   1.732   4.178  0.00  0.00    +0.004 A 
ATOM     16  C   UNL     1       5.689   0.585   3.488  0.00  0.00    +0.000 A 
ATOM     17  C   UNL     1       4.358   0.238   3.350  0.00  0.00    +0.007 A 
ATOM     18  C   UNL     1       3.374   1.035   3.902  0.00  0.00    -0.004 A 
BRANCH  13  19
ATOM     19  O   UNL     1       2.756   2.978   5.129  0.00  0.00    -0.492 OA
BRANCH  19  21
ATOM     20  C   UNL     1       1.968   4.905   6.357  0.00  0.00    +0.048 C 
ATOM     21  C   UNL     1       3.187   4.149   5.824  0.00  0.00    +0.225 C 
ENDBRANCH  19  21
ENDBRANCH  13  19
ENDBRANCH  12  18
ENDBRANCH   1  12
BRANCH   1  22
ATOM     22  C   UNL     1      -0.142   0.978   2.425  0.00  0.00    +0.110 C 
BRANCH  22  23
ATOM     23  N   UNL     1      -0.701   1.523   1.180  0.00  0.00    -0.300 NA
ATOM     24  C   UNL     1      -0.342   2.935   1.016  0.00  0.00    +0.089 C 
ATOM     25  C   UNL     1      -0.965   3.518  -0.243  0.00  0.00    +0.024 C 
ATOM     26  C   UNL     1      -0.582   2.690  -1.474  0.00  0.00    +0.017 C 
ATOM     27  C   UNL     1      -1.029   1.247  -1.216  0.00  0.00    +0.050 C 
ATOM     28  C   UNL     1      -0.273   0.728   0.019  0.00  0.00    +0.094 C 
ATOM     29  C   UNL     1      -2.504   1.235  -0.883  0.00  0.00    +0.026 A 
ATOM     30  C   UNL     1      -3.198   0.100  -1.163  0.00  0.00    +0.022 A 
ATOM     31  C   UNL     1      -4.552  -0.008  -0.825  0.00  0.00    +0.007 A 
ATOM     32  C   UNL     1      -5.158   1.038  -0.193  0.00  0.00    +0.070 A 
ATOM     33  C   UNL     1      -4.414   2.195   0.077  0.00  0.00    +0.251 A 
ATOM     34  O   UNL     1      -4.934   3.118   0.684  0.00  0.00    -0.268 OA
ATOM     35  N   UNL     1      -3.124   2.301  -0.326  0.00  0.00    -0.312 N 
ATOM     36  C   UNL     1      -2.478   3.601  -0.141  0.00  0.00    +0.130 C 
ENDBRANCH  22  23
ENDBRANCH   1  22
TORSDOF 6
