REMARK  Name = ZINC02151080
REMARK  7 active torsions:
REMARK  status: ('A' for Active; 'I' for Inactive)
REMARK    1  A    between atoms: C_1  and  C_2
REMARK    2  A    between atoms: C_5  and  N_9
REMARK    3  A    between atoms: C_12  and  C_25
REMARK    4  A    between atoms: C_14  and  C_17
REMARK    5  A    between atoms: C_15  and  N_16
REMARK    6  A    between atoms: C_17  and  C_19
REMARK    7  A    between atoms: C_28  and  N_31
REMARK                            x       y       z     vdW  Elec       q    Type
REMARK                         _______ _______ _______ _____ _____    ______ ____
ROOT
ATOM      1  N   UNL     1      -1.194   4.905   0.186  0.00  0.00    -0.261 N 
ATOM      2  C   UNL     1      -1.684   4.305   1.317  0.00  0.00    +0.024 C 
ATOM      3  C   UNL     1      -1.663   2.963   1.451  0.00  0.00    +0.024 C 
ATOM      4  C   UNL     1      -1.086   2.083   0.372  0.00  0.00    +0.091 C 
ATOM      5  C   UNL     1      -0.990   2.818  -0.933  0.00  0.00    +0.048 C 
ATOM      6  C   UNL     1      -1.044   4.189  -0.976  0.00  0.00    +0.100 C 
ATOM      7  C   UNL     1      -2.182   2.341   2.602  0.00  0.00    +0.162 C 
ATOM      8  O   UNL     1      -2.137   1.131   2.696  0.00  0.00    -0.292 OA
ATOM      9  C   UNL     1      -2.790   3.146   3.717  0.00  0.00    +0.080 C 
ATOM     10  C   UNL     1      -3.368   4.442   3.139  0.00  0.00    +0.014 C 
ATOM     11  C   UNL     1      -2.249   5.186   2.405  0.00  0.00    +0.052 C 
ENDROOT
BRANCH   1  16
ATOM     12  C   UNL     1       0.224  10.399   0.309  0.00  0.00    +0.045 C 
ATOM     13  C   UNL     1      -0.152   8.940   0.276  0.00  0.00    -0.032 A 
ATOM     14  C   UNL     1      -1.372   8.553  -0.248  0.00  0.00    +0.006 A 
ATOM     15  C   UNL     1      -1.720   7.217  -0.280  0.00  0.00    +0.024 A 
ATOM     16  C   UNL     1      -0.843   6.260   0.216  0.00  0.00    +0.041 A 
ATOM     17  C   UNL     1       0.379   6.651   0.748  0.00  0.00    +0.044 A 
ATOM     18  C   UNL     1       0.724   7.990   0.772  0.00  0.00    +0.046 A 
ATOM     19 CL   UNL     1       2.253   8.479   1.430  0.00  0.00    -0.083 Cl
ENDBRANCH   1  16
BRANCH   4  20
ATOM     20  C   UNL     1       0.291   1.631   0.786  0.00  0.00    -0.035 A 
ATOM     21  C   UNL     1       1.281   2.565   1.029  0.00  0.00    +0.007 A 
ATOM     22  C   UNL     1       2.546   2.151   1.403  0.00  0.00    +0.033 A 
ATOM     23  C   UNL     1       2.820   0.802   1.535  0.00  0.00    +0.126 A 
ATOM     24  C   UNL     1       1.830  -0.132   1.292  0.00  0.00    +0.033 A 
ATOM     25  C   UNL     1       0.566   0.283   0.918  0.00  0.00    +0.007 A 
BRANCH  23  26
ATOM     26  N   UNL     1       4.174   0.359   1.936  0.00  0.00    +0.056 N 
ATOM     27  O   UNL     1       4.416  -0.829   2.053  0.00  0.00    -0.126 OA
ATOM     28  O   UNL     1       5.046   1.182   2.150  0.00  0.00    -0.126 OA
ENDBRANCH  23  26
ENDBRANCH   4  20
BRANCH   6  29
ATOM     29  N   UNL     1      -0.948   4.843  -2.176  0.00  0.00    -0.346 N 
ATOM     30  H   UNL     1      -0.850   5.808  -2.197  0.00  0.00    +0.143 HD
ATOM     31  H   UNL     1      -0.978   4.340  -3.006  0.00  0.00    +0.143 HD
ENDBRANCH   6  29
BRANCH   5  32
ATOM     32  C   UNL     1      -0.844   2.095  -2.126  0.00  0.00    +0.193 C 
ATOM     33  O   UNL     1       0.159   2.236  -2.805  0.00  0.00    -0.287 OA
BRANCH  32  34
ATOM     34  C   UNL     1      -1.907   1.161  -2.560  0.00  0.00    +0.022 A 
ATOM     35  C   UNL     1      -3.099   1.072  -1.840  0.00  0.00    +0.012 A 
ATOM     36  C   UNL     1      -4.088   0.204  -2.254  0.00  0.00    +0.001 A 
ATOM     37  C   UNL     1      -3.896  -0.586  -3.373  0.00  0.00    +0.000 A 
ATOM     38  C   UNL     1      -2.714  -0.506  -4.088  0.00  0.00    +0.001 A 
ATOM     39  C   UNL     1      -1.720   0.362  -3.688  0.00  0.00    +0.012 A 
ENDBRANCH  32  34
ENDBRANCH   5  32
TORSDOF 6
