REMARK  Name = ZINC63530735
REMARK  10 active torsions:
REMARK  status: ('A' for Active; 'I' for Inactive)
REMARK    1  A    between atoms: C_1  and  C_2
REMARK    2  A    between atoms: C_6  and  S_26
REMARK    3  A    between atoms: C_7  and  C_12
REMARK    4  A    between atoms: N_14  and  C_15
REMARK    5  A    between atoms: C_15  and  C_16
REMARK    6  A    between atoms: C_19  and  O_22
REMARK    7  A    between atoms: O_22  and  C_23
REMARK    8  A    between atoms: C_23  and  C_24
REMARK    9  A    between atoms: C_23  and  C_25
REMARK   10  A    between atoms: S_26  and  C_27
REMARK                            x       y       z     vdW  Elec       q    Type
REMARK                         _______ _______ _______ _____ _____    ______ ____
ROOT
ATOM      1  C   UNL     1       3.454   0.114   1.407  0.00  0.00    +0.044 C 
ATOM      2  C   UNL     1       3.071  -1.334   1.237  0.00  0.00    -0.048 A 
ATOM      3  C   UNL     1       3.171  -1.918  -0.026  0.00  0.00    +0.004 A 
ATOM      4  C   UNL     1       2.839  -3.218  -0.236  0.00  0.00    +0.011 A 
ATOM      5  C   UNL     1       2.380  -4.007   0.842  0.00  0.00    +0.010 A 
ATOM      6  C   UNL     1       1.977  -5.336   0.927  0.00  0.00    +0.030 C 
ATOM      7  C   UNL     1       1.603  -5.557   2.376  0.00  0.00    +0.204 C 
ATOM      8  N   UNL     1       1.830  -4.276   3.053  0.00  0.00    -0.369 N 
ATOM      9  C   UNL     1       2.273  -3.395   2.175  0.00  0.00    +0.044 A 
ATOM     10  C   UNL     1       2.643  -2.034   2.318  0.00  0.00    +0.029 A 
ATOM     11  H   UNL     1       1.679  -4.104   3.995  0.00  0.00    +0.161 HD
ENDROOT
BRANCH   7  12
ATOM     12  C   UNL     1       0.153  -5.953   2.484  0.00  0.00    +0.241 C 
ATOM     13  O   UNL     1      -0.679  -5.127   2.792  0.00  0.00    -0.273 OA
ATOM     14  N   UNL     1      -0.218  -7.225   2.237  0.00  0.00    -0.309 N 
ATOM     15  H   UNL     1       0.448  -7.885   1.991  0.00  0.00    +0.149 HD
BRANCH  14  16
ATOM     16  C   UNL     1      -1.628  -7.609   2.342  0.00  0.00    +0.139 C 
BRANCH  16  17
ATOM     17  C   UNL     1      -1.774  -9.074   2.019  0.00  0.00    -0.030 A 
ATOM     18  C   UNL     1      -1.995  -9.474   0.714  0.00  0.00    +0.009 A 
ATOM     19  C   UNL     1      -2.130 -10.816   0.416  0.00  0.00    +0.046 A 
ATOM     20  C   UNL     1      -2.043 -11.763   1.426  0.00  0.00    +0.121 A 
ATOM     21  C   UNL     1      -1.821 -11.358   2.735  0.00  0.00    +0.046 A 
ATOM     22  C   UNL     1      -1.682 -10.016   3.027  0.00  0.00    +0.009 A 
BRANCH  20  23
ATOM     23  O   UNL     1      -2.176 -13.084   1.135  0.00  0.00    -0.489 OA
BRANCH  23  24
ATOM     24  C   UNL     1      -2.518 -13.420  -0.211  0.00  0.00    +0.167 C 
ATOM     25  C   UNL     1      -1.249 -13.456  -1.065  0.00  0.00    +0.051 C 
ATOM     26  C   UNL     1      -3.190 -14.794  -0.238  0.00  0.00    +0.051 C 
ENDBRANCH  23  24
ENDBRANCH  20  23
ENDBRANCH  16  17
ENDBRANCH  14  16
ENDBRANCH   7  12
BRANCH   6  27
ATOM     27  S   UNL     1       1.917  -6.447  -0.305  0.00  0.00    -0.091 S 
BRANCH  27  28
ATOM     28  C   UNL     1       3.167  -7.615   0.114  0.00  0.00    +0.013 A 
ATOM     29  C   UNL     1       4.016  -7.373   1.188  0.00  0.00    +0.016 A 
ATOM     30  C   UNL     1       4.994  -8.290   1.514  0.00  0.00    +0.021 A 
ATOM     31  C   UNL     1       5.131  -9.451   0.772  0.00  0.00    +0.041 A 
ATOM     32  C   UNL     1       4.288  -9.696  -0.298  0.00  0.00    +0.021 A 
ATOM     33  C   UNL     1       3.303  -8.784  -0.625  0.00  0.00    +0.016 A 
ATOM     34 CL   UNL     1       6.363 -10.603   1.185  0.00  0.00    -0.084 Cl
ENDBRANCH  27  28
ENDBRANCH   6  27
TORSDOF 7
