REMARK  Name = ZINC14881596
REMARK  13 active torsions:
REMARK  status: ('A' for Active; 'I' for Inactive)
REMARK    1  A    between atoms: C_1  and  C_2
REMARK    2  A    between atoms: C_2  and  C_37
REMARK    3  A    between atoms: C_7  and  C_11
REMARK    4  A    between atoms: C_11  and  N_77
REMARK    5  A    between atoms: C_14  and  C_17
REMARK    6  A    between atoms: C_17  and  C_28
REMARK    7  A    between atoms: N_20  and  C_24
REMARK    8  A    between atoms: C_24  and  C_25
REMARK    9  A    between atoms: C_25  and  O_26
REMARK   10  A    between atoms: O_26  and  C_27
REMARK   11  A    between atoms: C_28  and  C_29
REMARK   12  A    between atoms: C_33  and  O_35
REMARK   13  A    between atoms: O_35  and  C_36
REMARK                            x       y       z     vdW  Elec       q    Type
REMARK                         _______ _______ _______ _____ _____    ______ ____
ROOT
ATOM      1  C   UNL     1       0.620   3.683   0.493  0.00  0.00    +0.119 C 
ATOM      2  C   UNL     1      -0.085   3.985   1.800  0.00  0.00    +0.247 C 
ATOM      3  O   UNL     1       0.280   3.683   2.916  0.00  0.00    -0.273 OA
ATOM      4  N   UNL     1      -1.203   4.658   1.464  0.00  0.00    -0.222 N 
ATOM      5  C   UNL     1      -1.302   4.821   0.140  0.00  0.00    +0.309 C 
ATOM      6  O   UNL     1      -2.224   5.397  -0.404  0.00  0.00    -0.252 OA
ATOM      7  N   UNL     1      -0.266   4.276  -0.524  0.00  0.00    -0.284 N 
ATOM      8  H   UNL     1      -0.129   4.274  -1.484  0.00  0.00    +0.151 HD
ENDROOT
BRANCH   1  11
ATOM      9  C   UNL     1      -0.481  -0.003   0.350  0.00  0.00    -0.078 C 
ATOM     10  C   UNL     1      -0.623   1.513   0.501  0.00  0.00    -0.013 C 
ATOM     11  C   UNL     1       0.743   2.172   0.284  0.00  0.00    +0.018 C 
ATOM     12  C   UNL     1       1.744   1.596   1.289  0.00  0.00    -0.013 C 
ATOM     13  C   UNL     1       1.817   0.077   1.116  0.00  0.00    -0.078 C 
ATOM     14  N   UNL     1       0.477  -0.498   1.362  0.00  0.00    +0.382 N 
ATOM     15  H   UNL     1       0.157  -0.210   2.293  0.00  0.00    -0.081 HD
BRANCH  14  16
ATOM     16  C   UNL     1       0.545  -1.974   1.313  0.00  0.00    -0.047 C 
BRANCH  16  22
ATOM     17  C   UNL     1       1.346  -4.428   5.582  0.00  0.00    +0.012 C 
ATOM     18  C   UNL     1       1.851  -3.995   4.204  0.00  0.00    -0.025 C 
ATOM     19  C   UNL     1       3.235  -3.323   4.230  0.00  0.00    -0.000 C 
ATOM     20  C   UNL     1       3.864  -3.200   2.836  0.00  0.00    +0.031 C 
ATOM     21  C   UNL     1       2.821  -2.741   1.846  0.00  0.00    -0.029 C 
ATOM     22  C   UNL     1       1.612  -2.448   2.266  0.00  0.00    -0.086 C 
ATOM     23  C   UNL     1       1.328  -2.611   3.749  0.00  0.00    +0.019 C 
ATOM     24  C   UNL     1       2.473  -2.035   4.603  0.00  0.00    +0.012 C 
ATOM     25  C   UNL     1       1.714  -5.089   3.143  0.00  0.00    +0.012 C 
ENDBRANCH  16  22
ENDBRANCH  14  16
ENDBRANCH   1  11
BRANCH   4  26
ATOM     26  C   UNL     1      -2.190   5.149   2.429  0.00  0.00    +0.146 C 
BRANCH  26  27
ATOM     27  C   UNL     1      -3.253   4.074   2.664  0.00  0.00    +0.179 C 
BRANCH  27  28
ATOM     28  O   UNL     1      -2.650   2.937   3.285  0.00  0.00    -0.381 OA
ATOM     29  C   UNL     1      -3.562   1.868   3.550  0.00  0.00    +0.194 C 
ENDBRANCH  27  28
ENDBRANCH  26  27
ENDBRANCH   4  26
BRANCH   1  30
ATOM     30  C   UNL     1       2.000   4.343   0.456  0.00  0.00    +0.070 C 
BRANCH  30  31
ATOM     31  C   UNL     1       1.851   5.828   0.664  0.00  0.00    -0.041 A 
ATOM     32  C   UNL     1       1.888   6.354   1.942  0.00  0.00    +0.004 A 
ATOM     33  C   UNL     1       1.752   7.716   2.136  0.00  0.00    +0.004 A 
ATOM     34  C   UNL     1       1.579   8.556   1.053  0.00  0.00    +0.045 A 
ATOM     35  C   UNL     1       1.542   8.031  -0.231  0.00  0.00    +0.120 A 
ATOM     36  C   UNL     1       1.683   6.664  -0.423  0.00  0.00    +0.049 A 
BRANCH  35  37
ATOM     37  O   UNL     1       1.371   8.854  -1.298  0.00  0.00    -0.495 OA
ATOM     38  C   UNL     1       1.238  10.251  -1.026  0.00  0.00    +0.277 C 
ENDBRANCH  35  37
ENDBRANCH  30  31
ENDBRANCH   1  30
TORSDOF 9
