REMARK  Name = ZINC00658569
REMARK  6 active torsions:
REMARK  status: ('A' for Active; 'I' for Inactive)
REMARK    1  A    between atoms: C_11  and  C_19
REMARK    2  A    between atoms: C_13  and  C_17
REMARK    3  A    between atoms: C_14  and  N_16
REMARK    4  A    between atoms: C_27  and  N_40
REMARK    5  A    between atoms: C_28  and  C_38
REMARK    6  A    between atoms: C_29  and  C_31
REMARK                            x       y       z     vdW  Elec       q    Type
REMARK                         _______ _______ _______ _____ _____    ______ ____
ROOT
ATOM      1  C   UNL     1       3.475   3.066   4.922  0.00  0.00    +0.001 A 
ATOM      2  C   UNL     1       3.404   2.275   3.776  0.00  0.00    +0.001 A 
ATOM      3  C   UNL     1       3.099   2.820   2.566  0.00  0.00    +0.009 A 
ATOM      4  C   UNL     1       2.850   4.200   2.469  0.00  0.00    -0.010 A 
ATOM      5  C   UNL     1       2.922   5.003   3.633  0.00  0.00    -0.010 A 
ATOM      6  C   UNL     1       3.240   4.406   4.865  0.00  0.00    +0.009 A 
ATOM      7  C   UNL     1       2.676   6.385   3.538  0.00  0.00    +0.019 A 
ATOM      8  C   UNL     1       2.369   6.935   2.331  0.00  0.00    +0.177 A 
ATOM      9  C   UNL     1       2.293   6.134   1.172  0.00  0.00    +0.177 A 
ATOM     10  C   UNL     1       2.529   4.794   1.235  0.00  0.00    +0.019 A 
ATOM     11  C   UNL     1       2.451   3.936   0.000  0.00  0.00    +0.099 C 
ATOM     12  C   UNL     1       2.513   4.793  -1.233  0.00  0.00    +0.098 C 
ATOM     13  C   UNL     1       2.276   6.125  -1.168  0.00  0.00    +0.199 C 
ATOM     14  O   UNL     1       1.979   6.731  -0.006  0.00  0.00    -0.437 OA
ATOM     15  O   UNL     1       2.129   8.266   2.212  0.00  0.00    -0.437 OA
ATOM     16  C   UNL     1       1.800   8.990   3.295  0.00  0.00    +0.199 C 
ATOM     17  C   UNL     1       2.072   8.555   4.549  0.00  0.00    +0.098 C 
ATOM     18  C   UNL     1       2.758   7.237   4.777  0.00  0.00    +0.099 C 
ENDROOT
BRANCH  11  19
ATOM     19  C   UNL     1       1.156   3.166   0.009  0.00  0.00    -0.034 A 
ATOM     20  C   UNL     1       1.175   1.783   0.000  0.00  0.00    +0.007 A 
ATOM     21  C   UNL     1      -0.013   1.076   0.008  0.00  0.00    +0.038 A 
ATOM     22  C   UNL     1      -1.221   1.752   0.017  0.00  0.00    +0.123 A 
ATOM     23  C   UNL     1      -1.238   3.136   0.031  0.00  0.00    +0.038 A 
ATOM     24  C   UNL     1      -0.050   3.842   0.024  0.00  0.00    +0.007 A 
ATOM     25  F   UNL     1      -2.382   1.062   0.019  0.00  0.00    -0.205 F 
ENDBRANCH  11  19
BRANCH  18  26
ATOM     26  C   UNL     1       4.205   7.480   5.121  0.00  0.00    -0.034 A 
ATOM     27  C   UNL     1       5.033   8.117   4.214  0.00  0.00    +0.007 A 
ATOM     28  C   UNL     1       6.359   8.345   4.530  0.00  0.00    +0.038 A 
ATOM     29  C   UNL     1       6.861   7.927   5.750  0.00  0.00    +0.123 A 
ATOM     30  C   UNL     1       6.033   7.284   6.655  0.00  0.00    +0.038 A 
ATOM     31  C   UNL     1       4.706   7.062   6.340  0.00  0.00    +0.007 A 
ATOM     32  F   UNL     1       8.158   8.145   6.058  0.00  0.00    -0.205 F 
ENDBRANCH  18  26
BRANCH  13  33
ATOM     33  N   UNL     1       2.343   6.875  -2.316  0.00  0.00    -0.328 N 
ATOM     34  H   UNL     1       2.175   7.829  -2.283  0.00  0.00    +0.145 HD
ATOM     35  H   UNL     1       2.557   6.449  -3.161  0.00  0.00    +0.145 HD
ENDBRANCH  13  33
BRANCH  16  36
ATOM     36  N   UNL     1       1.172  10.199   3.127  0.00  0.00    -0.328 N 
ATOM     37  H   UNL     1       0.928  10.730   3.901  0.00  0.00    +0.145 HD
ATOM     38  H   UNL     1       0.971  10.521   2.235  0.00  0.00    +0.145 HD
ENDBRANCH  16  36
BRANCH  12  39
ATOM     39  C   UNL     1       2.828   4.192  -2.495  0.00  0.00    +0.101 C 
ATOM     40  N   UNL     1       3.077   3.716  -3.496  0.00  0.00    -0.191 NA
ENDBRANCH  12  39
BRANCH  17  41
ATOM     41  C   UNL     1       1.702   9.361   5.673  0.00  0.00    +0.101 C 
ATOM     42  N   UNL     1       1.408  10.002   6.564  0.00  0.00    -0.191 NA
ENDBRANCH  17  41
TORSDOF 6
