REMARK  Name = ZINC33292459
REMARK  6 active torsions:
REMARK  status: ('A' for Active; 'I' for Inactive)
REMARK    1  A    between atoms: C_3  and  C_6
REMARK    2  A    between atoms: C_6  and  N_7
REMARK    3  A    between atoms: C_8  and  C_10
REMARK    4  A    between atoms: C_12  and  C_15
REMARK    5  A    between atoms: C_15  and  N_16
REMARK    6  A    between atoms: C_21  and  C_23
REMARK                            x       y       z     vdW  Elec       q    Type
REMARK                         _______ _______ _______ _____ _____    ______ ____
ROOT
ATOM      1  C   UNL     1      -2.630  -0.766  -3.308  0.00  0.00    +0.313 A 
ATOM      2  N   UNL     1      -2.497  -0.169  -2.141  0.00  0.00    -0.186 NA
ATOM      3  C   UNL     1      -1.717  -0.977  -1.408  0.00  0.00    +0.194 A 
ATOM      4  N   UNL     1      -1.423  -2.011  -2.140  0.00  0.00    -0.059 NA
ATOM      5  O   UNL     1      -1.936  -1.913  -3.235  0.00  0.00    -0.328 OA
ENDROOT
BRANCH   1   7
ATOM      6  N   UNL     1      -3.451  -0.999  -5.606  0.00  0.00    -0.300 N 
ATOM      7  C   UNL     1      -3.401  -0.272  -4.473  0.00  0.00    +0.302 C 
ATOM      8  O   UNL     1      -3.988   0.790  -4.406  0.00  0.00    -0.265 OA
ATOM      9  H   UNL     1      -2.919  -1.960  -5.667  0.00  0.00    +0.150 HD
BRANCH   6  10
ATOM     10  C   UNL     1      -4.213  -0.510  -6.758  0.00  0.00    +0.179 C 
BRANCH  10  13
ATOM     11  C   UNL     1      -4.476  -3.197  -9.266  0.00  0.00    +0.041 A 
ATOM     12  C   UNL     1      -4.942  -2.534  -8.108  0.00  0.00    +0.046 A 
ATOM     13  C   UNL     1      -4.109  -1.502  -7.887  0.00  0.00    +0.122 A 
ATOM     14  O   UNL     1      -3.171  -1.501  -8.848  0.00  0.00    -0.466 OA
ATOM     15  C   UNL     1      -3.385  -2.531  -9.684  0.00  0.00    +0.195 A 
ENDBRANCH  10  13
ENDBRANCH   6  10
ENDBRANCH   1   7
BRANCH   3  16
ATOM     16  C   UNL     1      -1.268  -0.734   0.010  0.00  0.00    +0.227 C 
BRANCH  16  17
ATOM     17  N   UNL     1       0.002  -0.004   0.002  0.00  0.00    -0.221 N 
ATOM     18  C   UNL     1      -0.016   1.342   0.009  0.00  0.00    +0.268 A 
ATOM     19  O   UNL     1      -1.079   1.942   0.018  0.00  0.00    -0.266 OA
ATOM     20  C   UNL     1       1.204   2.054   0.002  0.00  0.00    +0.074 A 
ATOM     21  C   UNL     1       2.362   1.336  -0.013  0.00  0.00    +0.035 A 
ATOM     22  C   UNL     1       2.275  -0.076  -0.021  0.00  0.00    +0.092 A 
ATOM     23  N   UNL     1       1.102  -0.665  -0.013  0.00  0.00    -0.168 NA
BRANCH  22  24
ATOM     24  C   UNL     1       3.513  -0.893  -0.037  0.00  0.00    +0.002 A 
ATOM     25  C   UNL     1       4.760  -0.271  -0.051  0.00  0.00    +0.013 A 
ATOM     26  C   UNL     1       5.909  -1.035  -0.061  0.00  0.00    +0.039 A 
ATOM     27  C   UNL     1       5.824  -2.418  -0.067  0.00  0.00    +0.123 A 
ATOM     28  C   UNL     1       4.586  -3.040  -0.058  0.00  0.00    +0.039 A 
ATOM     29  C   UNL     1       3.432  -2.284  -0.043  0.00  0.00    +0.013 A 
ATOM     30  F   UNL     1       6.951  -3.162  -0.082  0.00  0.00    -0.205 F 
ENDBRANCH  22  24
ENDBRANCH  16  17
ENDBRANCH   3  16
TORSDOF 6
