REMARK  Name = ZINC09848602
REMARK  9 active torsions:
REMARK  status: ('A' for Active; 'I' for Inactive)
REMARK    1  A    between atoms: C_1  and  C_2
REMARK    2  A    between atoms: C_2  and  C_3
REMARK    3  A    between atoms: N_5  and  C_17
REMARK    4  A    between atoms: C_12  and  C_16
REMARK    5  A    between atoms: C_17  and  C_18
REMARK    6  A    between atoms: C_23  and  C_26
REMARK    7  A    between atoms: C_26  and  O_28
REMARK    8  A    between atoms: O_28  and  C_29
REMARK    9  A    between atoms: C_29  and  C_30
REMARK                            x       y       z     vdW  Elec       q    Type
REMARK                         _______ _______ _______ _____ _____    ______ ____
ROOT
ATOM      1  C   UNL     1      -0.087   3.980   0.025  0.00  0.00    +0.135 A 
ATOM      2  N   UNL     1      -1.179   3.293   0.032  0.00  0.00    -0.154 NA
ATOM      3  N   UNL     1      -1.183   1.895   0.018  0.00  0.00    -0.217 N 
ATOM      4  C   UNL     1      -0.014   1.214   0.009  0.00  0.00    +0.292 A 
ATOM      5  O   UNL     1       0.002  -0.004   0.002  0.00  0.00    -0.264 OA
ATOM      6  C   UNL     1       1.231   1.987   0.001  0.00  0.00    +0.116 A 
ATOM      7  N   UNL     1       1.151   3.369   0.009  0.00  0.00    -0.291 N 
ATOM      8  C   UNL     1       2.438   3.898  -0.000  0.00  0.00    +0.063 A 
ATOM      9  C   UNL     1       3.056   5.158   0.001  0.00  0.00    +0.037 A 
ATOM     10  C   UNL     1       4.401   5.252  -0.012  0.00  0.00    -0.011 A 
ATOM     11  S   UNL     1       4.912   3.542  -0.026  0.00  0.00    -0.092 S 
ATOM     12  C   UNL     1       3.302   2.796  -0.015  0.00  0.00    +0.038 A 
ATOM     13  C   UNL     1       2.557   1.626  -0.014  0.00  0.00    +0.048 A 
ATOM     14  C   UNL     1       5.258   6.491  -0.013  0.00  0.00    +0.051 C 
ENDROOT
BRANCH   1  16
ATOM     15  C   UNL     1      -1.632   5.920   0.051  0.00  0.00    +0.012 C 
ATOM     16  C   UNL     1      -0.165   5.485   0.034  0.00  0.00    +0.073 C 
ENDBRANCH   1  16
BRANCH   3  17
ATOM     17  C   UNL     1      -2.454   1.167   0.019  0.00  0.00    +0.243 C 
BRANCH  17  18
ATOM     18  C   UNL     1      -2.884   0.910   1.440  0.00  0.00    +0.237 C 
ATOM     19  O   UNL     1      -2.195   1.296   2.362  0.00  0.00    -0.274 OA
ATOM     20  N   UNL     1      -4.032   0.250   1.688  0.00  0.00    -0.300 N 
ATOM     21  C   UNL     1      -4.880  -0.219   0.583  0.00  0.00    +0.108 C 
ATOM     22  C   UNL     1      -6.300   0.306   0.787  0.00  0.00    +0.033 C 
ATOM     23  C   UNL     1      -6.796  -0.101   2.177  0.00  0.00    +0.101 C 
ATOM     24  C   UNL     1      -5.892   0.518   3.245  0.00  0.00    +0.033 C 
ATOM     25  C   UNL     1      -4.464  -0.009   3.068  0.00  0.00    +0.108 C 
BRANCH  23  26
ATOM     26  C   UNL     1      -8.208   0.389   2.369  0.00  0.00    +0.310 C 
ATOM     27  O   UNL     1      -8.465   1.154   3.267  0.00  0.00    -0.251 OA
BRANCH  26  28
ATOM     28  O   UNL     1      -9.181  -0.025   1.541  0.00  0.00    -0.465 OA
BRANCH  28  29
ATOM     29  C   UNL     1     -10.517   0.487   1.786  0.00  0.00    +0.229 C 
ATOM     30  C   UNL     1     -11.483  -0.092   0.750  0.00  0.00    +0.048 C 
ENDBRANCH  28  29
ENDBRANCH  26  28
ENDBRANCH  23  26
ENDBRANCH  17  18
ENDBRANCH   3  17
TORSDOF 6
