REMARK  Name = ZINC62916920
REMARK  5 active torsions:
REMARK  status: ('A' for Active; 'I' for Inactive)
REMARK    1  A    between atoms: C_1  and  C_2
REMARK    2  A    between atoms: C_2  and  C_3
REMARK    3  A    between atoms: C_3  and  C_4
REMARK    4  A    between atoms: C_4  and  C_9
REMARK    5  A    between atoms: C_11  and  C_14
REMARK                            x       y       z     vdW  Elec       q    Type
REMARK                         _______ _______ _______ _____ _____    ______ ____
ROOT
ATOM      1  C   UNL     1      -0.646  -2.578  -1.187  0.00  0.00    +0.232 A 
ATOM      2  N   UNL     1       0.603  -2.326  -1.454  0.00  0.00    -0.191 NA
ATOM      3  C   UNL     1       0.964  -2.945  -2.593  0.00  0.00    +0.202 A 
ATOM      4  N   UNL     1      -0.070  -3.600  -3.059  0.00  0.00    -0.056 NA
ATOM      5  O   UNL     1      -1.134  -3.374  -2.147  0.00  0.00    -0.337 OA
ENDROOT
BRANCH   1   6
ATOM      6  C   UNL     1      -1.413  -2.063   0.004  0.00  0.00    +0.033 C 
ATOM      7  C   UNL     1      -0.811  -2.611   1.326  0.00  0.00    -0.005 C 
ATOM      8  C   UNL     1      -1.476  -4.007   1.417  0.00  0.00    -0.082 C 
ATOM      9  N   UNL     1      -2.848  -3.807   0.901  0.00  0.00    +0.380 N 
ATOM     10  C   UNL     1      -2.849  -2.629   0.015  0.00  0.00    -0.066 C 
ATOM     11  H   UNL     1      -3.138  -4.622   0.383  0.00  0.00    -0.086 HD
ATOM     12  H   UNL     1      -3.481  -3.653   1.672  0.00  0.00    -0.086 HD
BRANCH   6  13
ATOM     13  C   UNL     1      -1.433  -0.534   0.013  0.00  0.00    +0.014 C 
BRANCH  13  15
ATOM     14  C   UNL     1      -0.019   1.526   0.010  0.00  0.00    +0.004 C 
ATOM     15  C   UNL     1       0.002  -0.004   0.002  0.00  0.00    -0.002 C 
ENDBRANCH  13  15
ENDBRANCH   6  13
ENDBRANCH   1   6
BRANCH   3  16
ATOM     16  C   UNL     1       2.309  -2.893  -3.218  0.00  0.00    +0.023 A 
ATOM     17  C   UNL     1       3.332  -2.161  -2.617  0.00  0.00    +0.012 A 
ATOM     18  C   UNL     1       4.581  -2.116  -3.201  0.00  0.00    +0.002 A 
ATOM     19  C   UNL     1       4.820  -2.796  -4.382  0.00  0.00    +0.015 A 
ATOM     20  C   UNL     1       3.809  -3.524  -4.984  0.00  0.00    +0.019 A 
ATOM     21  C   UNL     1       2.556  -3.581  -4.404  0.00  0.00    +0.027 A 
ATOM     22 BR   UNL     1       4.144  -4.450  -6.598  0.00  0.00    -0.050 Br
ENDBRANCH   3  16
TORSDOF 4
