REMARK  Name = ZINC12502437
REMARK  12 active torsions:
REMARK  status: ('A' for Active; 'I' for Inactive)
REMARK    1  A    between atoms: C_1  and  O_2
REMARK    2  A    between atoms: O_2  and  C_3
REMARK    3  A    between atoms: N_15  and  C_17
REMARK    4  A    between atoms: C_17  and  C_18
REMARK    5  A    between atoms: C_18  and  C_19
REMARK    6  A    between atoms: C_19  and  C_20
REMARK    7  A    between atoms: C_20  and  C_21
REMARK    8  A    between atoms: C_21  and  C_22
REMARK    9  A    between atoms: C_22  and  C_23
REMARK   10  A    between atoms: C_23  and  C_24
REMARK   11  A    between atoms: C_24  and  N_25
REMARK   12  A    between atoms: C_38  and  O_41
REMARK                            x       y       z     vdW  Elec       q    Type
REMARK                         _______ _______ _______ _____ _____    ______ ____
ROOT
ATOM      1  C   UNL     1      -2.435  -0.091   0.170  0.00  0.00    +0.162 A 
ATOM      2  C   UNL     1      -1.187  -0.710   0.068  0.00  0.00    +0.050 A 
ATOM      3  C   UNL     1       0.002  -0.004   0.002  0.00  0.00    +0.013 A 
ATOM      4  C   UNL     1      -0.017   1.382   0.010  0.00  0.00    -0.001 A 
ATOM      5  C   UNL     1      -1.272   1.997   0.060  0.00  0.00    +0.020 A 
ATOM      6  C   UNL     1      -2.472   1.307   0.180  0.00  0.00    +0.167 A 
ATOM      7  O   UNL     1      -3.504   2.185   0.319  0.00  0.00    -0.484 OA
ATOM      8  C   UNL     1      -3.092   3.414  -0.243  0.00  0.00    +0.191 C 
ATOM      9  C   UNL     1      -1.563   3.457   0.017  0.00  0.00    +0.057 C 
ATOM     10  C   UNL     1      -1.234   4.040   1.395  0.00  0.00    +0.040 C 
ATOM     11  C   UNL     1       0.074   3.387   1.876  0.00  0.00    +0.117 C 
ATOM     12  N   UNL     1       1.113   3.293   0.859  0.00  0.00    -0.376 N 
ATOM     13  C   UNL     1       1.127   2.302   0.004  0.00  0.00    +0.089 C 
ATOM     14  C   UNL     1      -1.020   4.309  -1.079  0.00  0.00    -0.013 C 
ATOM     15  C   UNL     1      -1.683   5.448  -1.244  0.00  0.00    +0.001 C 
ATOM     16  C   UNL     1      -2.833   5.870  -0.387  0.00  0.00    +0.141 C 
ATOM     17  C   UNL     1      -3.667   4.727   0.197  0.00  0.00    +0.081 C 
ENDROOT
BRANCH   1  19
ATOM     18  C   UNL     1      -3.437  -2.246   0.236  0.00  0.00    +0.277 C 
ATOM     19  O   UNL     1      -3.576  -0.824   0.255  0.00  0.00    -0.491 OA
ENDBRANCH   1  19
BRANCH  16  20
ATOM     20  O   UNL     1      -2.325   6.653   0.694  0.00  0.00    -0.388 OA
ATOM     21  H   UNL     1      -1.855   7.451   0.415  0.00  0.00    +0.210 HD
ENDBRANCH  16  20
BRANCH  12  22
ATOM     22  C   UNL     1       2.156   4.320   0.794  0.00  0.00    +0.116 C 
BRANCH  22  23
ATOM     23  C   UNL     1       1.526   5.664   0.424  0.00  0.00    +0.021 C 
BRANCH  23  24
ATOM     24  C   UNL     1       2.615   6.736   0.356  0.00  0.00    +0.002 C 
BRANCH  24  25
ATOM     25  C   UNL     1       1.985   8.081  -0.013  0.00  0.00    +0.000 C 
BRANCH  25  26
ATOM     26  C   UNL     1       3.074   9.153  -0.082  0.00  0.00    +0.000 C 
BRANCH  26  27
ATOM     27  C   UNL     1       2.444  10.497  -0.451  0.00  0.00    +0.002 C 
BRANCH  27  28
ATOM     28  C   UNL     1       3.533  11.569  -0.519  0.00  0.00    +0.019 C 
BRANCH  28  29
ATOM     29  C   UNL     1       2.903  12.914  -0.889  0.00  0.00    +0.117 C 
BRANCH  29  30
ATOM     30  N   UNL     1       3.946  13.941  -0.954  0.00  0.00    -0.234 N 
ATOM     31  C   UNL     1       4.331  14.702   0.086  0.00  0.00    +0.254 C 
ATOM     32  O   UNL     1       3.876  14.648   1.211  0.00  0.00    -0.270 OA
ATOM     33  C   UNL     1       5.402  15.614  -0.368  0.00  0.00    +0.049 A 
ATOM     34  C   UNL     1       6.162  16.596   0.246  0.00  0.00    +0.014 A 
ATOM     35  C   UNL     1       7.109  17.292  -0.488  0.00  0.00    +0.001 A 
ATOM     36  C   UNL     1       7.301  17.012  -1.828  0.00  0.00    +0.001 A 
ATOM     37  C   UNL     1       6.548  16.032  -2.456  0.00  0.00    +0.014 A 
ATOM     38  C   UNL     1       5.597  15.329  -1.735  0.00  0.00    +0.049 A 
ATOM     39  C   UNL     1       4.641  14.250  -2.063  0.00  0.00    +0.254 C 
ATOM     40  O   UNL     1       4.506  13.730  -3.153  0.00  0.00    -0.270 OA
ENDBRANCH  29  30
ENDBRANCH  28  29
ENDBRANCH  27  28
ENDBRANCH  26  27
ENDBRANCH  25  26
ENDBRANCH  24  25
ENDBRANCH  23  24
ENDBRANCH  22  23
ENDBRANCH  12  22
TORSDOF 11
