REMARK  Name = ZINC60082628
REMARK  12 active torsions:
REMARK  status: ('A' for Active; 'I' for Inactive)
REMARK    1  A    between atoms: C_1  and  C_2
REMARK    2  A    between atoms: C_2  and  C_3
REMARK    3  A    between atoms: C_2  and  C_4
REMARK    4  A    between atoms: C_4  and  C_5
REMARK    5  A    between atoms: C_5  and  C_7
REMARK    6  A    between atoms: C_5  and  N_25
REMARK    7  A    between atoms: N_9  and  C_10
REMARK    8  A    between atoms: C_10  and  C_11
REMARK    9  A    between atoms: C_11  and  C_13
REMARK   10  A    between atoms: C_11  and  N_20
REMARK   11  A    between atoms: C_26  and  O_28
REMARK   12  A    between atoms: O_28  and  C_29
REMARK                            x       y       z     vdW  Elec       q    Type
REMARK                         _______ _______ _______ _____ _____    ______ ____
ROOT
ATOM      1  C   UNL     1      -2.742  -2.653   0.089  0.00  0.00    +0.233 C 
ATOM      2  O   UNL     1      -3.162  -3.405  -0.764  0.00  0.00    -0.274 OA
ATOM      3  N   UNL     1      -3.490  -2.382   1.177  0.00  0.00    -0.315 N 
ATOM      4  H   UNL     1      -3.154  -1.781   1.859  0.00  0.00    +0.149 HD
ENDROOT
BRANCH   1   5
ATOM      5  C   UNL     1      -1.383  -2.021  -0.067  0.00  0.00    +0.162 C 
BRANCH   5   6
ATOM      6  N   UNL     1      -0.776  -2.471  -1.322  0.00  0.00    -0.270 N 
ATOM      7  C   UNL     1       0.565  -2.475  -1.459  0.00  0.00    +0.401 C 
ATOM      8  O   UNL     1       1.270  -2.105  -0.541  0.00  0.00    -0.226 OA
ATOM      9  H   UNL     1      -1.339  -2.767  -2.054  0.00  0.00    +0.153 HD
BRANCH   7  10
ATOM     10  O   UNL     1       1.123  -2.888  -2.612  0.00  0.00    -0.454 OA
ATOM     11  C   UNL     1       2.550  -2.866  -2.688  0.00  0.00    +0.282 C 
ENDBRANCH   7  10
ENDBRANCH   5   6
BRANCH   5  12
ATOM     12  C   UNL     1      -1.528  -0.498  -0.088  0.00  0.00    +0.035 C 
BRANCH  12  14
ATOM     13  C   UNL     1      -0.285   1.662  -0.267  0.00  0.00    +0.007 C 
ATOM     14  C   UNL     1      -0.140   0.146  -0.120  0.00  0.00    -0.015 C 
ATOM     15  C   UNL     1       0.600  -0.172   1.180  0.00  0.00    +0.007 C 
ENDBRANCH  12  14
ENDBRANCH   5  12
ENDBRANCH   1   5
BRANCH   3  16
ATOM     16  C   UNL     1      -4.812  -2.997   1.328  0.00  0.00    +0.093 C 
BRANCH  16  17
ATOM     17  C   UNL     1      -5.400  -2.612   2.687  0.00  0.00    -0.020 C 
BRANCH  17  18
ATOM     18  C   UNL     1      -5.658  -1.128   2.721  0.00  0.00    -0.058 A 
ATOM     19  C   UNL     1      -6.794  -0.610   2.127  0.00  0.00    +0.002 A 
ATOM     20  C   UNL     1      -7.032   0.751   2.158  0.00  0.00    +0.002 A 
ATOM     21  C   UNL     1      -6.133   1.596   2.782  0.00  0.00    +0.020 A 
ATOM     22  C   UNL     1      -4.996   1.079   3.376  0.00  0.00    +0.041 A 
ATOM     23  C   UNL     1      -4.762  -0.285   3.350  0.00  0.00    +0.022 A 
ATOM     24 CL   UNL     1      -3.867   2.139   4.160  0.00  0.00    -0.084 Cl
ENDBRANCH  17  18
BRANCH  17  25
ATOM     25  N   UNL     1      -6.663  -3.334   2.896  0.00  0.00    +0.385 N 
ATOM     26  C   UNL     1      -6.415  -4.798   2.938  0.00  0.00    -0.078 C 
ATOM     27  C   UNL     1      -7.650  -5.344   3.698  0.00  0.00    -0.020 C 
ATOM     28  C   UNL     1      -7.909  -4.255   4.764  0.00  0.00    -0.020 C 
ATOM     29  C   UNL     1      -7.239  -2.984   4.212  0.00  0.00    -0.078 C 
ATOM     30  H   UNL     1      -7.316  -3.112   2.160  0.00  0.00    -0.081 HD
ENDBRANCH  17  25
ENDBRANCH  16  17
ENDBRANCH   3  16
TORSDOF 9
