REMARK  Name = ZINC36306745
REMARK  14 active torsions:
REMARK  status: ('A' for Active; 'I' for Inactive)
REMARK    1  A    between atoms: C_1  and  N_2
REMARK    2  A    between atoms: C_3  and  O_29
REMARK    3  A    between atoms: C_4  and  C_13
REMARK    4  A    between atoms: C_5  and  C_7
REMARK    5  A    between atoms: C_13  and  N_14
REMARK    6  A    between atoms: N_14  and  C_15
REMARK    7  A    between atoms: N_14  and  C_21
REMARK    8  A    between atoms: C_15  and  C_16
REMARK    9  A    between atoms: C_21  and  C_22
REMARK   10  A    between atoms: C_22  and  C_24
REMARK   11  A    between atoms: C_22  and  O_28
REMARK   12  A    between atoms: C_24  and  C_25
REMARK   13  A    between atoms: C_25  and  C_26
REMARK   14  A    between atoms: O_29  and  C_30
REMARK                            x       y       z     vdW  Elec       q    Type
REMARK                         _______ _______ _______ _____ _____    ______ ____
ROOT
ATOM      1  C   UNL     1       0.734   1.206   0.864  0.00  0.00    +0.176 C 
ATOM      2  N   UNL     1       0.217  -0.149   0.657  0.00  0.00    -0.235 N 
ATOM      3  C   UNL     1       0.299  -0.867  -0.493  0.00  0.00    +0.221 A 
ATOM      4  C   UNL     1      -0.297  -2.067  -0.274  0.00  0.00    +0.025 A 
ATOM      5  C   UNL     1      -0.758  -2.083   1.056  0.00  0.00    +0.098 A 
ATOM      6  N   UNL     1      -0.443  -0.933   1.612  0.00  0.00    -0.168 NA
ENDROOT
BRANCH   5   7
ATOM      7  C   UNL     1      -1.471  -3.204   1.717  0.00  0.00    +0.002 A 
ATOM      8  C   UNL     1      -2.483  -3.884   1.042  0.00  0.00    +0.010 A 
ATOM      9  C   UNL     1      -3.143  -4.926   1.662  0.00  0.00    +0.001 A 
ATOM     10  C   UNL     1      -2.801  -5.296   2.951  0.00  0.00    +0.000 A 
ATOM     11  C   UNL     1      -1.798  -4.624   3.625  0.00  0.00    +0.001 A 
ATOM     12  C   UNL     1      -1.127  -3.584   3.013  0.00  0.00    +0.010 A 
ENDBRANCH   5   7
BRANCH   4  13
ATOM     13  C   UNL     1      -0.439  -3.184  -1.277  0.00  0.00    -0.035 C 
BRANCH  13  14
ATOM     14  N   UNL     1       0.799  -3.974  -1.309  0.00  0.00    +0.389 N 
ATOM     15  H   UNL     1       1.578  -3.370  -1.526  0.00  0.00    -0.081 HD
BRANCH  14  16
ATOM     16  C   UNL     1       0.688  -5.018  -2.336  0.00  0.00    -0.003 C 
BRANCH  16  17
ATOM     17  C   UNL     1       0.466  -4.376  -3.682  0.00  0.00    +0.089 A 
ATOM     18  C   UNL     1       1.424  -4.071  -4.575  0.00  0.00    +0.042 A 
ATOM     19  C   UNL     1       0.775  -3.489  -5.689  0.00  0.00    +0.041 A 
ATOM     20  C   UNL     1      -0.540  -3.473  -5.409  0.00  0.00    +0.195 A 
ATOM     21  O   UNL     1      -0.722  -4.017  -4.194  0.00  0.00    -0.470 OA
ENDBRANCH  16  17
ENDBRANCH  14  16
BRANCH  14  22
ATOM     22  C   UNL     1       1.015  -4.599   0.003  0.00  0.00    -0.046 C 
BRANCH  22  23
ATOM     23  C   UNL     1       2.403  -5.243   0.039  0.00  0.00    +0.098 C 
BRANCH  23  24
ATOM     24  O   UNL     1       2.426  -6.375  -0.833  0.00  0.00    -0.394 OA
ATOM     25  H   UNL     1       1.786  -7.062  -0.601  0.00  0.00    +0.210 HD
ENDBRANCH  23  24
BRANCH  23  26
ATOM     26  C   UNL     1       2.720  -5.692   1.467  0.00  0.00    +0.033 C 
BRANCH  26  27
ATOM     27  C   UNL     1       4.154  -6.221   1.528  0.00  0.00    +0.029 C 
BRANCH  27  28
ATOM     28  C   UNL     1       4.466  -6.663   2.935  0.00  0.00    -0.034 C 
ATOM     29  C   UNL     1       4.894  -7.881   3.159  0.00  0.00    +0.004 C 
ENDBRANCH  27  28
ENDBRANCH  26  27
ENDBRANCH  23  26
ENDBRANCH  22  23
ENDBRANCH  14  22
ENDBRANCH  13  14
ENDBRANCH   4  13
BRANCH   3  30
ATOM     30  O   UNL     1       0.872  -0.458  -1.653  0.00  0.00    -0.435 OA
BRANCH  30  31
ATOM     31  C   UNL     1       0.113   0.261  -2.522  0.00  0.00    +0.165 A 
ATOM     32  C   UNL     1      -1.172   0.645  -2.168  0.00  0.00    +0.049 A 
ATOM     33  C   UNL     1      -1.942   1.376  -3.052  0.00  0.00    +0.004 A 
ATOM     34  C   UNL     1      -1.434   1.725  -4.289  0.00  0.00    +0.003 A 
ATOM     35  C   UNL     1      -0.153   1.345  -4.646  0.00  0.00    +0.042 A 
ATOM     36  C   UNL     1       0.624   0.618  -3.763  0.00  0.00    +0.165 A 
ATOM     37  F   UNL     1       1.877   0.250  -4.109  0.00  0.00    -0.202 F 
ENDBRANCH  30  31
ENDBRANCH   3  30
TORSDOF 13
