REMARK  Name = ZINC65289469
REMARK  5 active torsions:
REMARK  status: ('A' for Active; 'I' for Inactive)
REMARK    1  A    between atoms: N_10  and  C_11
REMARK    2  A    between atoms: C_11  and  C_12
REMARK    3  A    between atoms: C_12  and  C_13
REMARK    4  A    between atoms: C_13  and  N_14
REMARK    5  A    between atoms: C_15  and  C_17
REMARK                            x       y       z     vdW  Elec       q    Type
REMARK                         _______ _______ _______ _____ _____    ______ ____
ROOT
ATOM      1  N   UNL     1       7.340   1.919   1.854  0.00  0.00    -0.315 N 
ATOM      2  C   UNL     1       8.486   2.629   1.814  0.00  0.00    +0.216 C 
ATOM      3  O   UNL     1       9.033   2.836   0.752  0.00  0.00    -0.276 OA
ATOM      4  H   UNL     1       6.903   1.753   2.704  0.00  0.00    +0.149 HD
ENDROOT
BRANCH   2   5
ATOM      5  C   UNL     1       9.086   3.164   3.088  0.00  0.00    +0.080 C 
ATOM      6  C   UNL     1      10.370   3.937   2.768  0.00  0.00    +0.019 C 
ATOM      7  C   UNL     1      11.081   4.262   4.080  0.00  0.00    +0.056 C 
ATOM      8  C   UNL     1      10.129   4.911   5.048  0.00  0.00    +0.050 A 
ATOM      9  C   UNL     1       8.760   4.839   4.902  0.00  0.00    -0.007 A 
ATOM     10  C   UNL     1       7.957   5.464   5.849  0.00  0.00    +0.119 A 
ATOM     11  N   UNL     1       8.521   6.110   6.854  0.00  0.00    -0.222 NA
ATOM     12  C   UNL     1       9.840   6.164   6.964  0.00  0.00    +0.218 A 
ATOM     13  N   UNL     1      10.632   5.578   6.080  0.00  0.00    -0.219 NA
ATOM     14  N   UNL     1      10.403   6.850   8.026  0.00  0.00    -0.300 N 
ATOM     15  C   UNL     1      11.863   6.935   8.173  0.00  0.00    +0.108 C 
ATOM     16  C   UNL     1      12.260   8.409   8.303  0.00  0.00    +0.019 C 
ATOM     17  C   UNL     1      11.475   9.046   9.451  0.00  0.00    +0.003 C 
ATOM     18  C   UNL     1       9.976   8.975   9.148  0.00  0.00    +0.019 C 
ATOM     19  C   UNL     1       9.553   7.513   9.024  0.00  0.00    +0.108 C 
ATOM     20  C   UNL     1       8.098   4.115   3.761  0.00  0.00    +0.051 C 
ENDBRANCH   2   5
BRANCH   1  21
ATOM     21  C   UNL     1       6.757   1.399   0.615  0.00  0.00    +0.105 C 
BRANCH  21  22
ATOM     22  C   UNL     1       5.470   0.636   0.939  0.00  0.00    +0.037 C 
BRANCH  22  23
ATOM     23  C   UNL     1       4.861   0.093  -0.355  0.00  0.00    +0.106 C 
BRANCH  23  33
ATOM     24  C   UNL     1      -0.017   1.377   0.010  0.00  0.00    +0.000 A 
ATOM     25  C   UNL     1       1.170   2.088   0.002  0.00  0.00    +0.002 A 
ATOM     26  C   UNL     1       2.375   1.416  -0.015  0.00  0.00    +0.023 A 
ATOM     27  C   UNL     1       2.396   0.025  -0.024  0.00  0.00    +0.033 A 
ATOM     28  C   UNL     1       1.207  -0.687  -0.013  0.00  0.00    -0.026 A 
ATOM     29  C   UNL     1       0.002  -0.004   0.002  0.00  0.00    +0.005 A 
ATOM     30  C   UNL     1       1.192  -2.192  -0.011  0.00  0.00    +0.038 C 
ATOM     31  C   UNL     1       2.521  -2.742  -0.528  0.00  0.00    +0.024 C 
ATOM     32  C   UNL     1       3.667  -2.076   0.246  0.00  0.00    +0.105 C 
ATOM     33  N   UNL     1       3.629  -0.637  -0.046  0.00  0.00    -0.330 N 
ENDBRANCH  23  33
ENDBRANCH  22  23
ENDBRANCH  21  22
ENDBRANCH   1  21
TORSDOF 5
