REMARK  Name = ZINC19793938
REMARK  7 active torsions:
REMARK  status: ('A' for Active; 'I' for Inactive)
REMARK    1  A    between atoms: C_1  and  C_2
REMARK    2  A    between atoms: C_2  and  C_3
REMARK    3  A    between atoms: N_9  and  C_10
REMARK    4  A    between atoms: C_10  and  C_11
REMARK    5  A    between atoms: C_12  and  C_25
REMARK    6  A    between atoms: C_15  and  O_23
REMARK    7  A    between atoms: O_23  and  C_24
REMARK                            x       y       z     vdW  Elec       q    Type
REMARK                         _______ _______ _______ _____ _____    ______ ____
ROOT
ATOM      1  C   UNL     1      -0.588   1.590  -1.235  0.00  0.00    +0.002 A 
ATOM      2  C   UNL     1      -1.599   0.857  -1.845  0.00  0.00    +0.018 A 
ATOM      3  N   UNL     1      -2.205   1.284  -2.928  0.00  0.00    -0.355 N 
ATOM      4  C   UNL     1      -1.871   2.442  -3.508  0.00  0.00    +0.094 A 
ATOM      5  C   UNL     1      -2.526   2.884  -4.676  0.00  0.00    +0.144 A 
ATOM      6  C   UNL     1      -2.164   4.071  -5.246  0.00  0.00    +0.049 A 
ATOM      7  C   UNL     1      -1.156   4.854  -4.692  0.00  0.00    +0.024 A 
ATOM      8  C   UNL     1      -0.502   4.457  -3.564  0.00  0.00    +0.054 A 
ATOM      9  C   UNL     1      -0.847   3.243  -2.950  0.00  0.00    +0.067 A 
ATOM     10  C   UNL     1      -0.192   2.797  -1.780  0.00  0.00    +0.192 A 
ATOM     11  O   UNL     1       0.796   3.531  -1.210  0.00  0.00    -0.287 OA
ATOM     12 CL   UNL     1       0.753   5.449  -2.889  0.00  0.00    -0.083 Cl
ATOM     13  C   UNL     1      -2.016  -0.460  -1.242  0.00  0.00    +0.063 C 
ATOM     14  H   UNL     1      -3.009   0.685  -3.380  0.00  0.00    +0.166 HD
ENDROOT
BRANCH   5  15
ATOM     15  O   UNL     1      -3.513   2.132  -5.232  0.00  0.00    -0.493 OA
ATOM     16  C   UNL     1      -4.130   2.644  -6.414  0.00  0.00    +0.277 C 
ENDBRANCH   5  15
BRANCH   1  17
ATOM     17  C   UNL     1       0.078   1.067   0.012  0.00  0.00    -0.037 C 
BRANCH  17  23
ATOM     18  C   UNL     1      -0.240   0.820   2.399  0.00  0.00    -0.068 C 
ATOM     19  C   UNL     1      -1.112   1.254   3.579  0.00  0.00    -0.015 C 
ATOM     20  C   UNL     1      -0.951   2.760   3.801  0.00  0.00    -0.003 C 
ATOM     21  C   UNL     1      -1.331   3.501   2.516  0.00  0.00    -0.019 C 
ATOM     22  C   UNL     1      -0.452   3.002   1.367  0.00  0.00    -0.078 C 
ATOM     23  N   UNL     1      -0.643   1.557   1.194  0.00  0.00    +0.384 N 
ATOM     24  H   UNL     1      -1.717   1.377   1.035  0.00  0.00    -0.081 HD
BRANCH  18  26
ATOM     25  C   UNL     1       0.056  -1.451   3.396  0.00  0.00    +0.002 C 
ATOM     26  C   UNL     1      -0.414  -0.681   2.161  0.00  0.00    -0.019 C 
ENDBRANCH  18  26
ENDBRANCH  17  23
ENDBRANCH   1  17
TORSDOF 4
