REMARK  Name = ZINC64480104
REMARK  10 active torsions:
REMARK  status: ('A' for Active; 'I' for Inactive)
REMARK    1  A    between atoms: C_1  and  C_2
REMARK    2  A    between atoms: C_2  and  N_24
REMARK    3  A    between atoms: C_4  and  C_19
REMARK    4  A    between atoms: N_6  and  C_9
REMARK    5  A    between atoms: C_19  and  C_20
REMARK    6  A    between atoms: C_20  and  O_22
REMARK    7  A    between atoms: O_22  and  C_23
REMARK    8  A    between atoms: N_24  and  C_25
REMARK    9  A    between atoms: C_25  and  C_26
REMARK   10  A    between atoms: C_26  and  C_27
REMARK                            x       y       z     vdW  Elec       q    Type
REMARK                         _______ _______ _______ _____ _____    ______ ____
ROOT
ATOM      1  C   UNL     1      -0.005   1.503   0.009  0.00  0.00    +0.061 C 
ATOM      2  C   UNL     1      -0.001  -0.004   0.002  0.00  0.00    +0.015 C 
ATOM      3  C   UNL     1       0.126  -0.701   1.192  0.00  0.00    +0.078 C 
ATOM      4  C   UNL     1       0.144  -0.151   2.555  0.00  0.00    +0.084 C 
ATOM      5  N   UNL     1       0.279  -1.145   3.377  0.00  0.00    -0.178 NA
ATOM      6  N   UNL     1       0.359  -2.359   2.697  0.00  0.00    -0.158 N 
ATOM      7  C   UNL     1       0.266  -2.152   1.367  0.00  0.00    +0.272 C 
ATOM      8  O   UNL     1       0.294  -2.998   0.489  0.00  0.00    -0.268 OA
ENDROOT
BRANCH   6   9
ATOM      9  C   UNL     1       0.515  -3.670   3.333  0.00  0.00    +0.249 C 
ATOM     10  N   UNL     1      -0.564  -3.920   4.299  0.00  0.00    -0.315 N 
ATOM     11  C   UNL     1      -0.205  -4.092   5.635  0.00  0.00    +0.043 A 
ATOM     12  C   UNL     1      -1.095  -4.339   6.696  0.00  0.00    +0.024 A 
ATOM     13  C   UNL     1      -0.641  -4.495   7.985  0.00  0.00    +0.002 A 
ATOM     14  C   UNL     1       0.707  -4.415   8.281  0.00  0.00    +0.001 A 
ATOM     15  C   UNL     1       1.607  -4.173   7.256  0.00  0.00    +0.016 A 
ATOM     16  C   UNL     1       1.151  -4.016   5.967  0.00  0.00    +0.032 A 
ATOM     17  S   UNL     1       1.989  -3.701   4.429  0.00  0.00    -0.080 S 
ATOM     18  H   UNL     1      -1.491  -3.963   4.017  0.00  0.00    +0.149 HD
ENDBRANCH   6   9
BRANCH   2  19
ATOM     19  N   UNL     1      -0.121  -0.674  -1.162  0.00  0.00    -0.346 N 
ATOM     20  H   UNL     1      -0.118  -1.644  -1.166  0.00  0.00    +0.146 HD
BRANCH  19  21
ATOM     21  C   UNL     1      -0.255   0.064  -2.421  0.00  0.00    +0.105 C 
BRANCH  21  22
ATOM     22  C   UNL     1      -0.373  -0.926  -3.582  0.00  0.00    +0.052 C 
BRANCH  22  23
ATOM     23  C   UNL     1      -0.511  -0.167  -4.877  0.00  0.00    -0.040 C 
ATOM     24  C   UNL     1       0.479   0.159  -5.737  0.00  0.00    +0.002 A 
ATOM     25  C   UNL     1       1.927  -0.085  -5.725  0.00  0.00    +0.048 A 
ATOM     26  C   UNL     1       2.679   0.376  -6.753  0.00  0.00    +0.124 A 
ATOM     27  C   UNL     1       2.109   1.080  -7.825  0.00  0.00    +0.040 A 
ATOM     28  C   UNL     1       0.787   1.342  -7.905  0.00  0.00    +0.029 A 
ATOM     29  C   UNL     1      -0.096   0.904  -6.880  0.00  0.00    +0.043 A 
ATOM     30  N   UNL     1      -1.392   1.032  -6.732  0.00  0.00    -0.380 N 
ATOM     31  C   UNL     1      -1.787   0.377  -5.480  0.00  0.00    +0.144 C 
ATOM     32  F   UNL     1       4.011   0.154  -6.745  0.00  0.00    -0.205 F 
ATOM     33  H   UNL     1      -1.991   1.482  -7.349  0.00  0.00    +0.160 HD
ENDBRANCH  22  23
ENDBRANCH  21  22
ENDBRANCH  19  21
ENDBRANCH   2  19
BRANCH   4  34
ATOM     34  C   UNL     1       0.026   1.304   2.929  0.00  0.00    +0.178 C 
BRANCH  34  35
ATOM     35  C   UNL     1       0.211   1.457   4.417  0.00  0.00    +0.313 C 
ATOM     36  O   UNL     1       0.416   0.484   5.103  0.00  0.00    -0.250 OA
BRANCH  35  37
ATOM     37  O   UNL     1       0.146   2.674   4.980  0.00  0.00    -0.468 OA
ATOM     38  C   UNL     1       0.331   2.745   6.395  0.00  0.00    +0.280 C 
ENDBRANCH  35  37
ENDBRANCH  34  35
ENDBRANCH   4  34
TORSDOF 8
