REMARK  Name = ZINC20610572
REMARK  4 active torsions:
REMARK  status: ('A' for Active; 'I' for Inactive)
REMARK    1  A    between atoms: C_12  and  C_15
REMARK    2  A    between atoms: C_15  and  C_16
REMARK    3  A    between atoms: C_16  and  C_17
REMARK    4  A    between atoms: N_22  and  C_25
REMARK                            x       y       z     vdW  Elec       q    Type
REMARK                         _______ _______ _______ _____ _____    ______ ____
ROOT
ATOM      1  C   UNL     1      -0.017   1.379   0.010  0.00  0.00    +0.000 A 
ATOM      2  C   UNL     1       1.173   2.084   0.002  0.00  0.00    +0.002 A 
ATOM      3  C   UNL     1       2.379   1.414  -0.012  0.00  0.00    +0.023 A 
ATOM      4  C   UNL     1       2.407   0.021  -0.019  0.00  0.00    +0.039 A 
ATOM      5  C   UNL     1       1.203  -0.677  -0.012  0.00  0.00    +0.003 A 
ATOM      6  C   UNL     1       0.002  -0.004   0.002  0.00  0.00    +0.008 A 
ATOM      7  C   UNL     1       1.573  -2.133  -0.023  0.00  0.00    +0.136 C 
ATOM      8  C   UNL     1       1.010  -2.865   1.202  0.00  0.00    +0.122 C 
ATOM      9  C   UNL     1      -0.285  -3.552   0.684  0.00  0.00    +0.107 C 
ATOM     10  C   UNL     1      -0.388  -3.139  -0.799  0.00  0.00    +0.068 C 
ATOM     11  N   UNL     1       1.016  -2.825  -1.200  0.00  0.00    -0.295 NA
ATOM     12  C   UNL     1       0.035  -5.025   0.787  0.00  0.00    +0.227 C 
ATOM     13  O   UNL     1      -0.709  -5.928   0.470  0.00  0.00    -0.275 OA
ATOM     14  N   UNL     1       1.269  -5.178   1.282  0.00  0.00    -0.238 N 
ATOM     15  C   UNL     1       1.914  -4.022   1.563  0.00  0.00    +0.228 C 
ATOM     16  O   UNL     1       3.030  -3.920   2.025  0.00  0.00    -0.275 OA
ATOM     17  C   UNL     1       3.077  -2.155  -0.034  0.00  0.00    +0.243 C 
ATOM     18  O   UNL     1       3.787  -3.138  -0.042  0.00  0.00    -0.273 OA
ATOM     19  N   UNL     1       3.482  -0.870  -0.034  0.00  0.00    -0.283 N 
ATOM     20  H   UNL     1       1.030  -2.226  -2.011  0.00  0.00    +0.123 HD
ATOM     21  H   UNL     1       4.413  -0.596  -0.042  0.00  0.00    +0.155 HD
ENDROOT
BRANCH  14  22
ATOM     22  C   UNL     1       1.875  -6.492   1.509  0.00  0.00    +0.084 C 
ATOM     23  C   UNL     1       1.896  -7.298   0.194  0.00  0.00    +0.023 C 
ATOM     24  C   UNL     1       1.606  -8.754   0.636  0.00  0.00    +0.002 C 
ATOM     25  C   UNL     1       0.559  -8.568   1.761  0.00  0.00    +0.002 C 
ATOM     26  C   UNL     1       1.024  -7.299   2.506  0.00  0.00    +0.023 C 
ENDBRANCH  14  22
BRANCH  10  27
ATOM     27  C   UNL     1      -0.920  -4.301  -1.639  0.00  0.00    +0.028 C 
BRANCH  27  28
ATOM     28  C   UNL     1      -1.132  -3.834  -3.081  0.00  0.00    +0.097 C 
BRANCH  28  29
ATOM     29  C   UNL     1      -1.656  -4.979  -3.909  0.00  0.00    +0.211 C 
ATOM     30  O   UNL     1      -1.842  -6.062  -3.396  0.00  0.00    -0.276 OA
ATOM     31  N   UNL     1      -1.918  -4.799  -5.218  0.00  0.00    -0.329 N 
ATOM     32  H   UNL     1      -1.769  -3.933  -5.628  0.00  0.00    +0.145 HD
ATOM     33  H   UNL     1      -2.255  -5.537  -5.751  0.00  0.00    +0.145 HD
ENDBRANCH  28  29
ENDBRANCH  27  28
ENDBRANCH  10  27
TORSDOF 4
