REMARK  Name = ZINC39928516
REMARK  9 active torsions:
REMARK  status: ('A' for Active; 'I' for Inactive)
REMARK    1  A    between atoms: C_1  and  C_2
REMARK    2  A    between atoms: C_2  and  O_3
REMARK    3  A    between atoms: O_3  and  C_4
REMARK    4  A    between atoms: C_11  and  C_16
REMARK    5  A    between atoms: C_16  and  N_17
REMARK    6  A    between atoms: N_17  and  C_18
REMARK    7  A    between atoms: C_21  and  C_25
REMARK    8  A    between atoms: C_23  and  C_24
REMARK    9  A    between atoms: C_26  and  C_28
REMARK                            x       y       z     vdW  Elec       q    Type
REMARK                         _______ _______ _______ _____ _____    ______ ____
ROOT
ATOM      1  N   UNL     1      -5.182  -7.488  -0.915  0.00  0.00    -0.266 N 
ATOM      2  C   UNL     1      -4.280  -8.472  -1.098  0.00  0.00    +0.251 C 
ATOM      3  O   UNL     1      -3.336  -8.300  -1.843  0.00  0.00    -0.270 OA
ENDROOT
BRANCH   1   4
ATOM      4  C   UNL     1      -6.280  -7.694  -0.073  0.00  0.00    +0.040 A 
ATOM      5  C   UNL     1      -7.555  -7.824  -0.611  0.00  0.00    +0.024 A 
ATOM      6  C   UNL     1      -8.636  -8.028   0.222  0.00  0.00    +0.005 A 
ATOM      7  C   UNL     1      -8.453  -8.103   1.591  0.00  0.00    -0.050 A 
ATOM      8  C   UNL     1      -7.186  -7.974   2.129  0.00  0.00    +0.008 A 
ATOM      9  C   UNL     1      -6.098  -7.776   1.301  0.00  0.00    -0.029 A 
ATOM     10  C   UNL     1      -4.717  -7.642   1.888  0.00  0.00    +0.045 C 
ATOM     11  C   UNL     1      -9.636  -8.325   2.498  0.00  0.00    +0.044 C 
ENDBRANCH   1   4
BRANCH   2  12
ATOM     12  C   UNL     1      -4.438  -9.764  -0.390  0.00  0.00    +0.040 A 
ATOM     13  C   UNL     1      -3.340 -10.600  -0.167  0.00  0.00    +0.033 A 
ATOM     14  C   UNL     1      -3.533 -11.796   0.498  0.00  0.00    +0.111 A 
ATOM     15  N   UNL     1      -4.730 -12.150   0.919  0.00  0.00    -0.263 NA
ATOM     16  C   UNL     1      -5.791 -11.392   0.730  0.00  0.00    +0.111 A 
ATOM     17  C   UNL     1      -5.688 -10.177   0.080  0.00  0.00    +0.033 A 
ENDBRANCH   2  12
BRANCH   1  18
ATOM     18  C   UNL     1      -5.014  -6.203  -1.597  0.00  0.00    +0.131 C 
BRANCH  18  26
ATOM     19  C   UNL     1      -2.415  -1.011  -2.209  0.00  0.00    +0.121 A 
ATOM     20  C   UNL     1      -1.166  -1.545  -1.870  0.00  0.00    +0.047 A 
ATOM     21  C   UNL     1      -1.021  -2.783  -1.333  0.00  0.00    +0.027 A 
ATOM     22  C   UNL     1      -2.145  -3.595  -1.092  0.00  0.00    +0.041 A 
ATOM     23  N   UNL     1      -1.988  -4.809  -0.564  0.00  0.00    -0.284 N 
ATOM     24  C   UNL     1      -2.999  -5.624  -0.312  0.00  0.00    +0.226 C 
ATOM     25  O   UNL     1      -2.793  -6.721   0.171  0.00  0.00    -0.275 OA
ATOM     26  C   UNL     1      -4.412  -5.185  -0.626  0.00  0.00    +0.116 C 
ATOM     27  C   UNL     1      -4.596  -3.805  -1.227  0.00  0.00    -0.003 C 
ATOM     28  C   UNL     1      -3.474  -3.061  -1.438  0.00  0.00    -0.004 A 
ATOM     29  C   UNL     1      -3.563  -1.716  -2.009  0.00  0.00    +0.055 A 
ATOM     30  H   UNL     1      -1.089  -5.109  -0.355  0.00  0.00    +0.155 HD
BRANCH  19  31
ATOM     31  O   UNL     1      -2.484   0.237  -2.743  0.00  0.00    -0.492 OA
BRANCH  31  33
ATOM     32  C   UNL     1      -1.526   2.309  -3.537  0.00  0.00    +0.048 C 
ATOM     33  C   UNL     1      -1.249   0.931  -2.931  0.00  0.00    +0.225 C 
ENDBRANCH  31  33
ENDBRANCH  19  31
ENDBRANCH  18  26
ENDBRANCH   1  18
TORSDOF 6
