REMARK  Name = ZINC42954958
REMARK  6 active torsions:
REMARK  status: ('A' for Active; 'I' for Inactive)
REMARK    1  A    between atoms: C_1  and  C_2
REMARK    2  A    between atoms: C_2  and  C_4
REMARK    3  A    between atoms: C_2  and  N_23
REMARK    4  A    between atoms: C_4  and  C_6
REMARK    5  A    between atoms: C_4  and  N_13
REMARK    6  A    between atoms: C_18  and  C_20
REMARK                            x       y       z     vdW  Elec       q    Type
REMARK                         _______ _______ _______ _____ _____    ______ ____
ROOT
ATOM      1  C   UNL     1       0.920   0.235  -0.733  0.00  0.00    +0.073 C 
ENDROOT
BRANCH   1   2
ATOM      2  C   UNL     1       1.140  -1.191  -0.299  0.00  0.00    -0.032 A 
ATOM      3  C   UNL     1       0.136  -2.127  -0.465  0.00  0.00    +0.006 A 
ATOM      4  C   UNL     1       0.338  -3.435  -0.068  0.00  0.00    +0.015 A 
ATOM      5  C   UNL     1       1.545  -3.808   0.496  0.00  0.00    +0.018 A 
ATOM      6  C   UNL     1       2.549  -2.872   0.661  0.00  0.00    +0.015 A 
ATOM      7  C   UNL     1       2.348  -1.565   0.259  0.00  0.00    +0.006 A 
ATOM      8 BR   UNL     1       1.822  -5.598   1.040  0.00  0.00    -0.050 Br
ENDBRANCH   1   2
BRANCH   1   9
ATOM      9  N   UNL     1      -0.110   0.275  -1.780  0.00  0.00    -0.286 NA
ATOM     10  C   UNL     1      -1.456   0.297  -1.193  0.00  0.00    +0.086 C 
ATOM     11  C   UNL     1      -2.501   0.191  -2.307  0.00  0.00    +0.015 C 
ATOM     12  C   UNL     1      -2.327   1.364  -3.276  0.00  0.00    +0.003 C 
ATOM     13  C   UNL     1      -0.902   1.346  -3.836  0.00  0.00    +0.028 C 
ATOM     14  C   UNL     1       0.096   1.418  -2.678  0.00  0.00    +0.143 C 
BRANCH  14  15
ATOM     15  C   UNL     1       1.501   1.381  -3.223  0.00  0.00    +0.228 C 
ATOM     16  O   UNL     1       2.072   0.320  -3.355  0.00  0.00    -0.274 OA
ATOM     17  N   UNL     1       2.122   2.528  -3.564  0.00  0.00    -0.328 N 
ATOM     18  H   UNL     1       1.664   3.377  -3.459  0.00  0.00    +0.145 HD
ATOM     19  H   UNL     1       3.026   2.504  -3.915  0.00  0.00    +0.145 HD
ENDBRANCH  14  15
ENDBRANCH   1   9
BRANCH   1  21
ATOM     20  C   UNL     1       0.377   2.541   0.062  0.00  0.00    -0.012 C 
ATOM     21  C   UNL     1       0.461   1.067   0.466  0.00  0.00    -0.056 C 
BRANCH  21  22
ATOM     22  N   UNL     1       1.423   0.915   1.565  0.00  0.00    +0.381 N 
ATOM     23  H   UNL     1       1.120   1.464   2.356  0.00  0.00    -0.090 HD
ATOM     24  H   UNL     1       1.478  -0.057   1.832  0.00  0.00    -0.090 HD
ATOM     25  H   UNL     1       2.332   1.233   1.263  0.00  0.00    -0.090 HD
ENDBRANCH  21  22
ENDBRANCH   1  21
TORSDOF 5
