REMARK  Name = ZINC02191804
REMARK  14 active torsions:
REMARK  status: ('A' for Active; 'I' for Inactive)
REMARK    1  A    between atoms: C_1  and  C_2
REMARK    2  A    between atoms: C_2  and  O_3
REMARK    3  A    between atoms: O_3  and  C_4
REMARK    4  A    between atoms: C_4  and  C_6
REMARK    5  A    between atoms: C_6  and  C_7
REMARK    6  A    between atoms: C_6  and  N_11
REMARK    7  A    between atoms: C_6  and  N_28
REMARK    8  A    between atoms: N_11  and  C_12
REMARK    9  A    between atoms: C_13  and  C_26
REMARK   10  A    between atoms: C_18  and  C_22
REMARK   11  A    between atoms: C_22  and  C_23
REMARK   12  A    between atoms: C_22  and  C_24
REMARK   13  A    between atoms: C_22  and  C_25
REMARK   14  A    between atoms: C_29  and  C_31
REMARK                            x       y       z     vdW  Elec       q    Type
REMARK                         _______ _______ _______ _____ _____    ______ ____
ROOT
ATOM      1  C   UNL     1       2.774  -3.333  -4.578  0.00  0.00    +0.296 C 
ENDROOT
BRANCH   1   2
ATOM      2  C   UNL     1       2.305  -2.207  -5.502  0.00  0.00    +0.438 C 
ATOM      3  F   UNL     1       2.363  -0.988  -4.817  0.00  0.00    -0.166 F 
ATOM      4  F   UNL     1       3.135  -2.150  -6.626  0.00  0.00    -0.166 F 
ATOM      5  F   UNL     1       0.989  -2.452  -5.906  0.00  0.00    -0.166 F 
ENDBRANCH   1   2
BRANCH   1   6
ATOM      6  N   UNL     1       2.881  -4.578  -5.342  0.00  0.00    -0.274 N 
ATOM      7  C   UNL     1       3.316  -5.703  -4.740  0.00  0.00    +0.246 C 
ATOM      8  O   UNL     1       3.501  -5.716  -3.539  0.00  0.00    -0.270 OA
ATOM      9  H   UNL     1       2.639  -4.593  -6.281  0.00  0.00    +0.152 HD
BRANCH   7  10
ATOM     10  C   UNL     1       3.568  -6.920  -5.541  0.00  0.00    +0.037 A 
ATOM     11  C   UNL     1       3.351  -6.909  -6.920  0.00  0.00    +0.013 A 
ATOM     12  C   UNL     1       3.592  -8.047  -7.662  0.00  0.00    +0.001 A 
ATOM     13  C   UNL     1       4.038  -9.200  -7.040  0.00  0.00    +0.000 A 
ATOM     14  C   UNL     1       4.251  -9.219  -5.673  0.00  0.00    +0.001 A 
ATOM     15  C   UNL     1       4.018  -8.086  -4.921  0.00  0.00    +0.013 A 
ENDBRANCH   7  10
ENDBRANCH   1   6
BRANCH   1  16
ATOM     16  C   UNL     1       4.120  -2.981  -4.000  0.00  0.00    +0.359 C 
ATOM     17  O   UNL     1       5.117  -3.526  -4.413  0.00  0.00    -0.246 OA
BRANCH  16  18
ATOM     18  O   UNL     1       4.213  -2.062  -3.026  0.00  0.00    -0.462 OA
BRANCH  18  20
ATOM     19  C   UNL     1       5.448  -0.710  -1.421  0.00  0.00    +0.048 C 
ATOM     20  C   UNL     1       5.542  -1.773  -2.517  0.00  0.00    +0.229 C 
ENDBRANCH  18  20
ENDBRANCH  16  18
ENDBRANCH   1  16
BRANCH   1  21
ATOM     21  N   UNL     1       1.807  -3.508  -3.492  0.00  0.00    -0.301 N 
ATOM     22  H   UNL     1       1.332  -4.348  -3.396  0.00  0.00    +0.149 HD
BRANCH  21  23
ATOM     23  C   UNL     1       1.571  -2.474  -2.602  0.00  0.00    +0.086 A 
ATOM     24  C   UNL     1       0.709  -2.453  -1.514  0.00  0.00    +0.083 A 
ATOM     25  C   UNL     1       0.646  -1.229  -0.732  0.00  0.00    -0.018 A 
ATOM     26  C   UNL     1       1.450  -0.232  -1.159  0.00  0.00    -0.004 A 
ATOM     27  S   UNL     1       2.280  -0.894  -2.575  0.00  0.00    -0.077 S 
ATOM     28  C   UNL     1       1.597   1.131  -0.555  0.00  0.00    +0.047 C 
ATOM     29  C   UNL     1       0.977   1.107   0.850  0.00  0.00    -0.000 C 
ATOM     30  C   UNL     1      -0.403   0.448   0.768  0.00  0.00    +0.009 C 
ATOM     31  C   UNL     1      -0.249  -1.048   0.488  0.00  0.00    +0.037 C 
BRANCH  29  32
ATOM     32  C   UNL     1       0.832   2.538   1.371  0.00  0.00    -0.035 C 
ATOM     33  C   UNL     1       0.197   2.512   2.762  0.00  0.00    +0.011 C 
ATOM     34  C   UNL     1       2.211   3.194   1.451  0.00  0.00    +0.011 C 
ATOM     35  C   UNL     1      -0.059   3.339   0.418  0.00  0.00    +0.011 C 
ENDBRANCH  29  32
BRANCH  24  36
ATOM     36  C   UNL     1      -0.089  -3.592  -1.176  0.00  0.00    +0.102 C 
ATOM     37  N   UNL     1      -0.723  -4.497  -0.908  0.00  0.00    -0.191 NA
ENDBRANCH  24  36
ENDBRANCH  21  23
ENDBRANCH   1  21
TORSDOF 10
