REMARK  Name = ZINC14713146
REMARK  16 active torsions:
REMARK  status: ('A' for Active; 'I' for Inactive)
REMARK    1  A    between atoms: C_1  and  C_2
REMARK    2  A    between atoms: C_5  and  O_34
REMARK    3  A    between atoms: C_6  and  N_8
REMARK    4  A    between atoms: C_9  and  C_11
REMARK    5  A    between atoms: C_11  and  N_12
REMARK    6  A    between atoms: C_13  and  C_15
REMARK    7  A    between atoms: C_15  and  N_68
REMARK    8  A    between atoms: C_16  and  C_17
REMARK    9  A    between atoms: C_16  and  N_68
REMARK   10  A    between atoms: C_20  and  O_23
REMARK   11  A    between atoms: O_23  and  C_24
REMARK   12  A    between atoms: C_25  and  C_27
REMARK   13  A    between atoms: C_25  and  C_28
REMARK   14  A    between atoms: C_25  and  N_68
REMARK   15  A    between atoms: C_28  and  C_29
REMARK   16  A    between atoms: O_34  and  C_35
REMARK                            x       y       z     vdW  Elec       q    Type
REMARK                         _______ _______ _______ _____ _____    ______ ____
ROOT
ATOM      1  C   UNL     1      -3.313   2.758   4.395  0.00  0.00    +0.019 C 
ENDROOT
BRANCH   1   3
ATOM      2  N   UNL     1      -1.922   3.049   6.420  0.00  0.00    -0.308 N 
ATOM      3  C   UNL     1      -1.983   2.765   5.103  0.00  0.00    +0.197 C 
ATOM      4  O   UNL     1      -0.967   2.516   4.489  0.00  0.00    -0.278 OA
ATOM      5  H   UNL     1      -2.735   3.248   6.911  0.00  0.00    +0.149 HD
BRANCH   2   6
ATOM      6  C   UNL     1      -0.629   3.056   7.109  0.00  0.00    +0.200 C 
BRANCH   6   8
ATOM      7  N   UNL     1       0.221   3.465   9.395  0.00  0.00    -0.281 N 
ATOM      8  C   UNL     1      -0.836   3.399   8.561  0.00  0.00    +0.234 C 
ATOM      9  O   UNL     1      -1.954   3.616   8.980  0.00  0.00    -0.274 OA
ATOM     10  H   UNL     1       1.120   3.361   9.047  0.00  0.00    +0.155 HD
BRANCH   7  16
ATOM     11  C   UNL     1      -2.510   5.345  13.027  0.00  0.00    +0.044 C 
ATOM     12  C   UNL     1      -1.294   4.590  12.553  0.00  0.00    -0.048 A 
ATOM     13  C   UNL     1      -0.378   4.113  13.472  0.00  0.00    +0.007 A 
ATOM     14  C   UNL     1       0.739   3.420  13.044  0.00  0.00    +0.048 A 
ATOM     15  C   UNL     1       0.943   3.202  11.691  0.00  0.00    +0.141 A 
ATOM     16  C   UNL     1       0.020   3.682  10.765  0.00  0.00    +0.076 A 
ATOM     17  C   UNL     1      -1.096   4.382  11.202  0.00  0.00    +0.030 A 
BRANCH  15  18
ATOM     18  O   UNL     1       2.041   2.520  11.268  0.00  0.00    -0.493 OA
ATOM     19  C   UNL     1       2.944   2.057  12.274  0.00  0.00    +0.277 C 
ENDBRANCH  15  18
ENDBRANCH   7  16
ENDBRANCH   6   8
ENDBRANCH   2   6
ENDBRANCH   1   3
BRANCH   1  20
ATOM     20  N   UNL     1      -3.096   2.399   2.977  0.00  0.00    +0.390 N 
ATOM     21  H   UNL     1      -2.544   1.535   2.933  0.00  0.00    -0.080 HD
BRANCH  20  22
ATOM     22  C   UNL     1      -2.355   3.478   2.291  0.00  0.00    -0.066 C 
ATOM     23  C   UNL     1      -3.318   4.566   1.811  0.00  0.00    -0.013 C 
BRANCH  22  24
ATOM     24  C   UNL     1      -1.622   2.879   1.089  0.00  0.00    +0.027 C 
BRANCH  24  25
ATOM     25  C   UNL     1      -0.563   1.923   1.572  0.00  0.00    -0.012 A 
ATOM     26  C   UNL     1      -0.681   0.614   1.903  0.00  0.00    +0.011 A 
ATOM     27  C   UNL     1       0.439  -0.074   2.330  0.00  0.00    +0.008 A 
ATOM     28  C   UNL     1       1.626   0.578   2.393  0.00  0.00    +0.045 A 
ATOM     29  S   UNL     1       1.176   2.217   1.847  0.00  0.00    -0.102 S 
ENDBRANCH  24  25
ENDBRANCH  22  24
ENDBRANCH  20  22
BRANCH  20  30
ATOM     30  C   UNL     1      -4.395   2.174   2.309  0.00  0.00    -0.042 C 
BRANCH  30  31
ATOM     31  C   UNL     1      -4.158   1.383   1.048  0.00  0.00    -0.064 A 
ATOM     32  C   UNL     1      -4.300   1.992  -0.185  0.00  0.00    +0.005 A 
ATOM     33  C   UNL     1      -4.078   1.270  -1.342  0.00  0.00    +0.046 A 
ATOM     34  C   UNL     1      -3.724  -0.069  -1.266  0.00  0.00    +0.120 A 
ATOM     35  C   UNL     1      -3.588  -0.679  -0.027  0.00  0.00    +0.046 A 
ATOM     36  C   UNL     1      -3.806   0.048   1.127  0.00  0.00    +0.005 A 
BRANCH  34  37
ATOM     37  O   UNL     1      -3.510  -0.783  -2.403  0.00  0.00    -0.495 OA
ATOM     38  C   UNL     1      -3.668  -0.090  -3.643  0.00  0.00    +0.277 C 
ENDBRANCH  34  37
ENDBRANCH  30  31
ENDBRANCH  20  30
ENDBRANCH   1  20
TORSDOF 12
