REMARK  Name = ZINC15729000
REMARK  4 active torsions:
REMARK  status: ('A' for Active; 'I' for Inactive)
REMARK    1  A    between atoms: C_1  and  C_2
REMARK    2  A    between atoms: C_5  and  C_23
REMARK    3  A    between atoms: C_8  and  C_10
REMARK    4  A    between atoms: C_12  and  C_16
REMARK                            x       y       z     vdW  Elec       q    Type
REMARK                         _______ _______ _______ _____ _____    ______ ____
ROOT
ATOM      1  C   UNL     1      -0.018   1.503   0.010  0.00  0.00    +0.111 C 
ATOM      2  C   UNL     1       0.002  -0.004   0.002  0.00  0.00    +0.235 C 
ATOM      3  O   UNL     1       0.020  -0.616   1.050  0.00  0.00    -0.274 OA
ATOM      4  N   UNL     1       0.000  -0.672  -1.169  0.00  0.00    -0.144 N 
ATOM      5  C   UNL     1       0.012  -2.132  -1.364  0.00  0.00    +0.337 C 
ATOM      6  O   UNL     1       0.004  -2.298  -2.789  0.00  0.00    -0.444 OA
ATOM      7  C   UNL     1      -0.011  -1.066  -3.348  0.00  0.00    +0.258 C 
ATOM      8  N   UNL     1      -0.020  -0.123  -2.460  0.00  0.00    -0.134 NA
ENDROOT
BRANCH   7   9
ATOM      9  C   UNL     1      -0.023  -0.824  -4.801  0.00  0.00    +0.122 A 
ATOM     10  C   UNL     1      -0.033   0.404  -5.424  0.00  0.00    +0.062 A 
ATOM     11  C   UNL     1      -0.041   0.177  -6.809  0.00  0.00    +0.093 A 
ATOM     12  N   UNL     1      -0.036  -1.123  -7.018  0.00  0.00    -0.173 NA
ATOM     13  N   UNL     1      -0.020  -1.777  -5.780  0.00  0.00    -0.272 N 
ATOM     14  H   UNL     1      -0.009  -2.737  -5.642  0.00  0.00    +0.189 HD
BRANCH  11  15
ATOM     15  C   UNL     1      -0.053   1.225  -7.860  0.00  0.00    +0.002 A 
ATOM     16  C   UNL     1      -0.052   2.572  -7.504  0.00  0.00    +0.011 A 
ATOM     17  C   UNL     1      -0.063   3.543  -8.485  0.00  0.00    +0.016 A 
ATOM     18  C   UNL     1      -0.076   3.180  -9.821  0.00  0.00    +0.018 A 
ATOM     19  C   UNL     1      -0.077   1.843 -10.179  0.00  0.00    +0.016 A 
ATOM     20  C   UNL     1      -0.061   0.865  -9.206  0.00  0.00    +0.011 A 
ATOM     21 BR   UNL     1      -0.093   4.515 -11.160  0.00  0.00    -0.050 Br
ENDBRANCH  11  15
ENDBRANCH   7   9
BRANCH   5  22
ATOM     22  C   UNL     1       1.259  -2.733  -0.768  0.00  0.00    +0.102 A 
ATOM     23  C   UNL     1       1.800  -3.876  -1.325  0.00  0.00    +0.029 A 
ATOM     24  C   UNL     1       2.947  -4.421  -0.769  0.00  0.00    +0.003 A 
ATOM     25  C   UNL     1       3.509  -3.793   0.332  0.00  0.00    +0.020 A 
ATOM     26  C   UNL     1       2.912  -2.653   0.835  0.00  0.00    +0.111 A 
ATOM     27  N   UNL     1       1.823  -2.160   0.277  0.00  0.00    -0.254 NA
ENDBRANCH   5  22
TORSDOF 3
