REMARK  Name = ZINC49563237
REMARK  4 active torsions:
REMARK  status: ('A' for Active; 'I' for Inactive)
REMARK    1  A    between atoms: C_3  and  S_9
REMARK    2  A    between atoms: C_6  and  N_7
REMARK    3  A    between atoms: S_9  and  N_12
REMARK    4  A    between atoms: N_12  and  C_13
REMARK                            x       y       z     vdW  Elec       q    Type
REMARK                         _______ _______ _______ _____ _____    ______ ____
ROOT
ATOM      1  S   UNL     1       3.936   2.335  -0.042  0.00  0.00    +0.060 S 
ATOM      2  O   UNL     1       4.871   1.830  -0.986  0.00  0.00    -0.153 OA
ATOM      3  O   UNL     1       3.472   3.678  -0.073  0.00  0.00    -0.153 OA
ENDROOT
BRANCH   1   6
ATOM      4  C   UNL     1       1.353  -0.536  -1.147  0.00  0.00    +0.025 A 
ATOM      5  C   UNL     1       2.470   0.273  -1.063  0.00  0.00    +0.031 A 
ATOM      6  C   UNL     1       2.510   1.306  -0.146  0.00  0.00    +0.119 A 
ATOM      7  C   UNL     1       1.431   1.534   0.692  0.00  0.00    +0.046 A 
ATOM      8  C   UNL     1       0.311   0.729   0.613  0.00  0.00    +0.040 A 
ATOM      9  C   UNL     1       0.269  -0.310  -0.309  0.00  0.00    +0.026 A 
ATOM     10 BR   UNL     1       1.491   2.949   1.945  0.00  0.00    -0.048 Br
BRANCH   9  11
ATOM     11  N   UNL     1      -0.862  -1.126  -0.391  0.00  0.00    -0.358 N 
ATOM     12  H   UNL     1      -0.890  -1.851  -1.035  0.00  0.00    +0.142 HD
ATOM     13  H   UNL     1      -1.619  -0.967   0.195  0.00  0.00    +0.142 HD
ENDBRANCH   9  11
ENDBRANCH   1   6
BRANCH   1  14
ATOM     14  N   UNL     1       4.602   2.099   1.456  0.00  0.00    -0.188 NA
ATOM     15  H   UNL     1       4.625   2.828   2.096  0.00  0.00    +0.148 HD
BRANCH  14  16
ATOM     16  C   UNL     1       5.156   0.791   1.814  0.00  0.00    +0.061 C 
ATOM     17  C   UNL     1       6.707   0.803   1.730  0.00  0.00    +0.000 C 
ATOM     18  C   UNL     1       7.181  -0.028   2.947  0.00  0.00    -0.077 C 
ATOM     19  N   UNL     1       5.964  -0.537   3.582  0.00  0.00    +0.383 N 
ATOM     20  C   UNL     1       4.919   0.483   3.303  0.00  0.00    -0.050 C 
ATOM     21  C   UNL     1       3.567  -0.159   3.586  0.00  0.00    -0.014 C 
ATOM     22  C   UNL     1       3.523  -0.497   5.084  0.00  0.00    -0.003 C 
ATOM     23  C   UNL     1       4.709  -1.379   5.471  0.00  0.00    -0.019 C 
ATOM     24  C   UNL     1       6.034  -0.739   5.022  0.00  0.00    -0.078 C 
ATOM     25  H   UNL     1       5.694  -1.402   3.138  0.00  0.00    -0.081 HD
ENDBRANCH  14  16
ENDBRANCH   1  14
TORSDOF 4
