REMARK  Name = ZINC36598526
REMARK  14 active torsions:
REMARK  status: ('A' for Active; 'I' for Inactive)
REMARK    1  A    between atoms: C_1  and  C_2
REMARK    2  A    between atoms: C_5  and  C_7
REMARK    3  A    between atoms: C_7  and  N_8
REMARK    4  A    between atoms: N_8  and  C_9
REMARK    5  A    between atoms: C_9  and  C_11
REMARK    6  A    between atoms: C_9  and  C_20
REMARK    7  A    between atoms: C_12  and  O_19
REMARK    8  A    between atoms: C_14  and  O_18
REMARK    9  A    between atoms: C_16  and  O_17
REMARK   10  A    between atoms: N_22  and  C_23
REMARK   11  A    between atoms: C_29  and  C_31
REMARK   12  A    between atoms: C_31  and  C_32
REMARK   13  A    between atoms: C_32  and  C_34
REMARK   14  A    between atoms: C_32  and  C_35
REMARK                            x       y       z     vdW  Elec       q    Type
REMARK                         _______ _______ _______ _____ _____    ______ ____
ROOT
ATOM      1  C   UNL     1       3.075  -2.954  -2.248  0.00  0.00    +0.200 C 
ENDROOT
BRANCH   1   2
ATOM      2  C   UNL     1       2.863  -1.526  -1.817  0.00  0.00    +0.065 A 
ATOM      3  C   UNL     1       2.525  -1.241  -0.502  0.00  0.00    +0.129 A 
ATOM      4  C   UNL     1       2.330   0.073  -0.105  0.00  0.00    +0.091 A 
ATOM      5  C   UNL     1       2.473   1.103  -1.022  0.00  0.00    +0.124 A 
ATOM      6  C   UNL     1       2.811   0.819  -2.337  0.00  0.00    +0.091 A 
ATOM      7  C   UNL     1       3.011  -0.495  -2.733  0.00  0.00    +0.129 A 
BRANCH   7   8
ATOM      8  O   UNL     1       3.347  -0.773  -4.020  0.00  0.00    -0.506 OA
ATOM      9  H   UNL     1       2.589  -0.917  -4.602  0.00  0.00    +0.292 HD
ENDBRANCH   7   8
BRANCH   5  10
ATOM     10  O   UNL     1       2.280   2.391  -0.633  0.00  0.00    -0.507 OA
ATOM     11  H   UNL     1       3.081   2.829  -0.314  0.00  0.00    +0.292 HD
ENDBRANCH   5  10
BRANCH   3  12
ATOM     12  O   UNL     1       2.385  -2.251   0.397  0.00  0.00    -0.506 OA
ATOM     13  H   UNL     1       3.173  -2.412   0.933  0.00  0.00    +0.292 HD
ENDBRANCH   3  12
ENDBRANCH   1   2
BRANCH   1  14
ATOM     14  C   UNL     1       4.387  -3.454  -1.701  0.00  0.00    +0.239 C 
ATOM     15  O   UNL     1       4.401  -4.190  -0.737  0.00  0.00    -0.273 OA
ATOM     16  N   UNL     1       5.545  -3.084  -2.284  0.00  0.00    -0.311 N 
ATOM     17  H   UNL     1       5.534  -2.496  -3.055  0.00  0.00    +0.149 HD
BRANCH  16  18
ATOM     18  C   UNL     1       6.820  -3.571  -1.752  0.00  0.00    +0.073 C 
ATOM     19  C   UNL     1       7.276  -2.663  -0.608  0.00  0.00    +0.022 C 
ATOM     20  C   UNL     1       8.608  -3.171  -0.052  0.00  0.00    +0.002 C 
ATOM     21  C   UNL     1       9.661  -3.159  -1.162  0.00  0.00    +0.000 C 
ATOM     22  C   UNL     1       9.205  -4.068  -2.306  0.00  0.00    +0.002 C 
ATOM     23  C   UNL     1       7.873  -3.560  -2.862  0.00  0.00    +0.022 C 
ENDBRANCH  16  18
ENDBRANCH   1  14
BRANCH   1  24
ATOM     24  N   UNL     1       1.983  -3.786  -1.737  0.00  0.00    -0.278 N 
ATOM     25  C   UNL     1       0.717  -3.326  -1.761  0.00  0.00    +0.217 C 
ATOM     26  O   UNL     1       0.481  -2.223  -2.207  0.00  0.00    -0.276 OA
BRANCH  24  27
ATOM     27  C   UNL     1       2.268  -5.118  -1.198  0.00  0.00    +0.183 C 
BRANCH  27  32
ATOM     28  C   UNL     1       3.504  -4.523   3.656  0.00  0.00    +0.086 C 
ATOM     29  C   UNL     1       2.703  -4.827   2.416  0.00  0.00    +0.102 A 
ATOM     30  C   UNL     1       1.420  -5.229   2.386  0.00  0.00    +0.045 A 
ATOM     31  C   UNL     1       1.073  -5.395   1.026  0.00  0.00    +0.046 A 
ATOM     32  C   UNL     1       2.166  -5.085   0.305  0.00  0.00    +0.122 A 
ATOM     33  O   UNL     1       3.148  -4.736   1.152  0.00  0.00    -0.463 OA
ENDBRANCH  27  32
ENDBRANCH  24  27
BRANCH  25  34
ATOM     34  C   UNL     1      -0.406  -4.182  -1.235  0.00  0.00    +0.104 C 
BRANCH  34  35
ATOM     35  C   UNL     1      -1.731  -3.430  -1.378  0.00  0.00    +0.025 C 
ATOM     36  C   UNL     1      -2.042  -3.222  -2.862  0.00  0.00    +0.013 C 
BRANCH  35  37
ATOM     37  C   UNL     1      -2.836  -4.233  -0.741  0.00  0.00    -0.044 A 
ATOM     38  C   UNL     1      -3.118  -5.506  -1.200  0.00  0.00    +0.004 A 
ATOM     39  C   UNL     1      -4.131  -6.243  -0.616  0.00  0.00    +0.000 A 
ATOM     40  C   UNL     1      -4.862  -5.706   0.427  0.00  0.00    +0.000 A 
ATOM     41  C   UNL     1      -4.580  -4.433   0.887  0.00  0.00    +0.000 A 
ATOM     42  C   UNL     1      -3.564  -3.699   0.305  0.00  0.00    +0.004 A 
ENDBRANCH  35  37
ENDBRANCH  34  35
ENDBRANCH  25  34
ENDBRANCH   1  24
TORSDOF 12
