REMARK  Name = ZINC20083735
REMARK  10 active torsions:
REMARK  status: ('A' for Active; 'I' for Inactive)
REMARK    1  A    between atoms: C_1  and  C_2
REMARK    2  A    between atoms: C_6  and  C_14
REMARK    3  A    between atoms: C_11  and  C_12
REMARK    4  A    between atoms: C_14  and  C_16
REMARK    5  A    between atoms: C_14  and  N_26
REMARK    6  A    between atoms: N_20  and  C_21
REMARK    7  A    between atoms: N_26  and  C_27
REMARK    8  A    between atoms: N_26  and  C_34
REMARK    9  A    between atoms: C_27  and  C_28
REMARK   10  A    between atoms: C_34  and  C_35
REMARK                            x       y       z     vdW  Elec       q    Type
REMARK                         _______ _______ _______ _____ _____    ______ ____
ROOT
ATOM      1  C   UNL     1      -0.066  -5.091  -3.583  0.00  0.00    +0.040 C 
ENDROOT
BRANCH   1   7
ATOM      2  C   UNL     1      -1.665   1.930  -1.645  0.00  0.00    +0.044 C 
ATOM      3  C   UNL     1      -1.518   0.472  -1.296  0.00  0.00    -0.047 A 
ATOM      4  C   UNL     1      -1.139  -0.420  -2.259  0.00  0.00    +0.013 A 
ATOM      5  C   UNL     1      -1.002  -1.774  -1.935  0.00  0.00    -0.001 A 
ATOM      6  C   UNL     1      -0.597  -2.756  -2.943  0.00  0.00    +0.017 A 
ATOM      7  C   UNL     1      -0.481  -4.055  -2.571  0.00  0.00    +0.011 A 
ATOM      8  C   UNL     1      -0.746  -4.439  -1.239  0.00  0.00    +0.251 A 
ATOM      9  N   UNL     1      -1.118  -3.544  -0.307  0.00  0.00    -0.322 N 
ATOM     10  C   UNL     1      -1.254  -2.209  -0.621  0.00  0.00    +0.049 A 
ATOM     11  C   UNL     1      -1.639  -1.283   0.343  0.00  0.00    +0.030 A 
ATOM     12  C   UNL     1      -1.762   0.047   0.003  0.00  0.00    -0.046 A 
ATOM     13  C   UNL     1      -2.172   1.050   1.050  0.00  0.00    +0.044 C 
ATOM     14  O   UNL     1      -0.636  -5.612  -0.926  0.00  0.00    -0.268 OA
ATOM     15  H   UNL     1      -1.293  -3.843   0.600  0.00  0.00    +0.169 HD
ENDBRANCH   1   7
BRANCH   1  16
ATOM     16  C   UNL     1       1.272  -5.665  -3.195  0.00  0.00    +0.143 A 
ATOM     17  N   UNL     1       1.512  -6.501  -2.214  0.00  0.00    -0.115 NA
ATOM     18  N   UNL     1       2.775  -6.755  -2.207  0.00  0.00    -0.023 NA
ATOM     19  N   UNL     1       3.348  -6.102  -3.157  0.00  0.00    -0.044 NA
ATOM     20  N   UNL     1       2.454  -5.423  -3.793  0.00  0.00    -0.227 N 
BRANCH  20  21
ATOM     21  C   UNL     1       2.683  -4.549  -4.947  0.00  0.00    +0.111 C 
ATOM     22  C   UNL     1       3.345  -5.345  -6.090  0.00  0.00    +0.027 C 
ATOM     23  C   UNL     1       4.338  -4.341  -6.726  0.00  0.00    +0.002 C 
ATOM     24  C   UNL     1       4.886  -3.575  -5.497  0.00  0.00    +0.002 C 
ATOM     25  C   UNL     1       3.662  -3.424  -4.569  0.00  0.00    +0.027 C 
ENDBRANCH  20  21
ENDBRANCH   1  16
BRANCH   1  26
ATOM     26  N   UNL     1      -1.067  -6.166  -3.621  0.00  0.00    +0.397 N 
ATOM     27  H   UNL     1      -1.025  -6.695  -2.762  0.00  0.00    -0.079 HD
BRANCH  26  28
ATOM     28  C   UNL     1      -2.407  -5.583  -3.772  0.00  0.00    -0.039 C 
BRANCH  28  29
ATOM     29  C   UNL     1      -3.442  -6.675  -3.687  0.00  0.00    -0.046 A 
ATOM     30  C   UNL     1      -3.854  -7.341  -4.831  0.00  0.00    +0.005 A 
ATOM     31  C   UNL     1      -4.809  -8.338  -4.706  0.00  0.00    +0.020 A 
ATOM     32  C   UNL     1      -5.315  -8.633  -3.454  0.00  0.00    +0.111 A 
ATOM     33  N   UNL     1      -4.900  -7.978  -2.388  0.00  0.00    -0.263 NA
ATOM     34  C   UNL     1      -3.989  -7.028  -2.468  0.00  0.00    +0.112 A 
ENDBRANCH  28  29
ENDBRANCH  26  28
BRANCH  26  35
ATOM     35  C   UNL     1      -0.789  -7.054  -4.757  0.00  0.00    -0.001 C 
BRANCH  35  36
ATOM     36  C   UNL     1       0.453  -7.860  -4.473  0.00  0.00    +0.089 A 
ATOM     37  C   UNL     1       0.513  -8.971  -3.717  0.00  0.00    +0.042 A 
ATOM     38  C   UNL     1       1.862  -9.396  -3.720  0.00  0.00    +0.041 A 
ATOM     39  C   UNL     1       2.545  -8.519  -4.478  0.00  0.00    +0.195 A 
ATOM     40  O   UNL     1       1.685  -7.594  -4.936  0.00  0.00    -0.470 OA
ENDBRANCH  35  36
ENDBRANCH  26  35
ENDBRANCH   1  26
TORSDOF 8
