REMARK  Name = ZINC65423708
REMARK  5 active torsions:
REMARK  status: ('A' for Active; 'I' for Inactive)
REMARK    1  A    between atoms: C_1  and  N_2
REMARK    2  A    between atoms: N_2  and  C_3
REMARK    3  A    between atoms: C_3  and  C_4
REMARK    4  A    between atoms: C_15  and  C_17
REMARK    5  A    between atoms: C_17  and  N_18
REMARK                            x       y       z     vdW  Elec       q    Type
REMARK                         _______ _______ _______ _____ _____    ______ ____
ROOT
ATOM      1  C   UNL     1      -0.018   1.461   0.010  0.00  0.00    +0.132 C 
ATOM      2  N   UNL     1       0.002  -0.004   0.002  0.00  0.00    -0.299 N 
ATOM      3  C   UNL     1       0.000  -0.672  -1.169  0.00  0.00    +0.235 C 
ATOM      4  O   UNL     1       0.017  -1.884  -1.175  0.00  0.00    -0.274 OA
ENDROOT
BRANCH   2   5
ATOM      5  C   UNL     1       0.024  -0.743   1.267  0.00  0.00    +0.154 C 
BRANCH   5   6
ATOM      6  C   UNL     1      -1.411  -1.020   1.720  0.00  0.00    +0.192 C 
ATOM      7  N   UNL     1      -2.147   0.242   1.863  0.00  0.00    -0.362 N 
ATOM      8  C   UNL     1      -3.151   0.205   1.037  0.00  0.00    +0.060 A 
ATOM      9  C   UNL     1      -4.227   1.157   0.729  0.00  0.00    +0.029 A 
ATOM     10  C   UNL     1      -5.152   0.839  -0.198  0.00  0.00    +0.022 A 
ATOM     11  C   UNL     1      -5.137  -0.384  -0.895  0.00  0.00    +0.043 A 
ATOM     12  C   UNL     1      -4.194  -1.327  -0.689  0.00  0.00    +0.047 A 
ATOM     13  C   UNL     1      -3.135  -1.088   0.299  0.00  0.00    +0.062 A 
ATOM     14  N   UNL     1      -2.120  -1.802   0.700  0.00  0.00    -0.362 N 
ATOM     15 CL   UNL     1      -6.380  -0.690  -2.068  0.00  0.00    -0.083 Cl
ATOM     16  H   UNL     1      -1.925   0.971   2.464  0.00  0.00    +0.162 HD
ATOM     17  H   UNL     1      -1.877  -2.685   0.382  0.00  0.00    +0.162 HD
ENDBRANCH   5   6
ENDBRANCH   2   5
BRANCH   3  18
ATOM     18  C   UNL     1      -0.023   0.089  -2.470  0.00  0.00    +0.224 C 
BRANCH  18  19
ATOM     19  N   UNL     1      -0.020  -0.857  -3.588  0.00  0.00    -0.265 N 
ATOM     20  C   UNL     1       1.105  -1.379  -4.225  0.00  0.00    +0.091 A 
ATOM     21  C   UNL     1       2.468  -1.204  -4.043  0.00  0.00    +0.030 A 
ATOM     22  C   UNL     1       3.362  -1.876  -4.855  0.00  0.00    +0.002 A 
ATOM     23  C   UNL     1       2.899  -2.722  -5.848  0.00  0.00    +0.004 A 
ATOM     24  C   UNL     1       1.543  -2.901  -6.035  0.00  0.00    +0.048 A 
ATOM     25  C   UNL     1       0.639  -2.231  -5.225  0.00  0.00    +0.157 A 
ATOM     26  O   UNL     1      -0.716  -2.208  -5.174  0.00  0.00    -0.407 OA
ATOM     27  C   UNL     1      -1.106  -1.387  -4.186  0.00  0.00    +0.422 A 
ATOM     28  O   UNL     1      -2.260  -1.154  -3.881  0.00  0.00    -0.223 OA
ENDBRANCH  18  19
ENDBRANCH   3  18
TORSDOF 4
