REMARK  Name = ZINC48332401
REMARK  8 active torsions:
REMARK  status: ('A' for Active; 'I' for Inactive)
REMARK    1  A    between atoms: C_1  and  C_2
REMARK    2  A    between atoms: C_2  and  C_3
REMARK    3  A    between atoms: C_2  and  C_4
REMARK    4  A    between atoms: C_7  and  C_10
REMARK    5  A    between atoms: C_11  and  C_12
REMARK    6  A    between atoms: C_11  and  C_14
REMARK    7  A    between atoms: N_20  and  C_21
REMARK    8  A    between atoms: N_20  and  C_22
REMARK                            x       y       z     vdW  Elec       q    Type
REMARK                         _______ _______ _______ _____ _____    ______ ____
ROOT
ATOM      1  C   UNL     1      -4.863  -2.073   0.231  0.00  0.00    +0.030 C 
ATOM      2  C   UNL     1      -5.507  -2.737  -0.769  0.00  0.00    +0.097 C 
ENDROOT
BRANCH   2   3
ATOM      3  C   UNL     1      -4.792  -3.061  -2.022  0.00  0.00    +0.177 A 
ATOM      4  N   UNL     1      -4.663  -4.329  -2.406  0.00  0.00    -0.194 NA
ATOM      5  C   UNL     1      -4.020  -4.620  -3.532  0.00  0.00    +0.217 A 
ATOM      6  N   UNL     1      -3.506  -3.644  -4.275  0.00  0.00    -0.181 NA
ATOM      7  C   UNL     1      -3.635  -2.378  -3.893  0.00  0.00    +0.222 A 
ATOM      8  N   UNL     1      -4.282  -2.085  -2.769  0.00  0.00    -0.194 NA
ATOM      9  N   UNL     1      -3.101  -1.366  -4.665  0.00  0.00    -0.306 N 
ATOM     10  C   UNL     1      -2.392  -1.689  -5.907  0.00  0.00    +0.132 C 
ATOM     11  C   UNL     1      -3.242   0.030  -4.244  0.00  0.00    +0.132 C 
ATOM     12  N   UNL     1      -3.886  -5.934  -3.931  0.00  0.00    -0.327 N 
ATOM     13  H   UNL     1      -4.326  -6.640  -3.432  0.00  0.00    +0.145 HD
ATOM     14  H   UNL     1      -3.351  -6.153  -4.710  0.00  0.00    +0.145 HD
ENDBRANCH   2   3
BRANCH   1  18
ATOM     15  C   UNL     1      -0.697  -1.341  -0.052  0.00  0.00    -0.045 A 
ATOM     16  C   UNL     1      -1.508  -0.447   0.626  0.00  0.00    +0.004 A 
ATOM     17  C   UNL     1      -2.864  -0.677   0.723  0.00  0.00    +0.008 A 
ATOM     18  C   UNL     1      -3.420  -1.819   0.133  0.00  0.00    -0.024 A 
ATOM     19  C   UNL     1      -2.592  -2.718  -0.550  0.00  0.00    +0.008 A 
ATOM     20  C   UNL     1      -1.239  -2.469  -0.642  0.00  0.00    +0.004 A 
BRANCH  15  22
ATOM     21  C   UNL     1       1.020   0.255  -0.860  0.00  0.00    +0.012 C 
ATOM     22  C   UNL     1       0.784  -1.081  -0.152  0.00  0.00    +0.013 C 
ATOM     23  C   UNL     1       1.389  -1.028   1.252  0.00  0.00    +0.012 C 
ENDBRANCH  15  22
ENDBRANCH   1  18
BRANCH   2  24
ATOM     24  C   UNL     1      -6.877  -3.120  -0.606  0.00  0.00    +0.103 C 
ATOM     25  N   UNL     1      -7.964  -3.425  -0.477  0.00  0.00    -0.191 NA
ENDBRANCH   2  24
TORSDOF 4
