REMARK  Name = ZINC51146905
REMARK  8 active torsions:
REMARK  status: ('A' for Active; 'I' for Inactive)
REMARK    1  A    between atoms: C_1  and  C_2
REMARK    2  A    between atoms: C_3  and  C_10
REMARK    3  A    between atoms: N_5  and  C_7
REMARK    4  A    between atoms: N_8  and  N_9
REMARK    5  A    between atoms: C_10  and  N_11
REMARK    6  A    between atoms: N_11  and  C_12
REMARK    7  A    between atoms: N_11  and  C_13
REMARK    8  A    between atoms: N_16  and  C_19
REMARK                            x       y       z     vdW  Elec       q    Type
REMARK                         _______ _______ _______ _____ _____    ______ ____
ROOT
ATOM      1  C   UNL     1      -0.186   1.570   0.395  0.00  0.00    +0.065 C 
ATOM      2  C   UNL     1      -0.005   0.085   0.210  0.00  0.00    +0.038 A 
ATOM      3  C   UNL     1      -0.987  -0.782  -0.069  0.00  0.00    +0.032 A 
ATOM      4  C   UNL     1      -0.384  -2.120  -0.166  0.00  0.00    +0.171 A 
ATOM      5  N   UNL     1       0.984  -1.950   0.074  0.00  0.00    -0.271 N 
ATOM      6  N   UNL     1       1.197  -0.584   0.297  0.00  0.00    -0.300 N 
ATOM      7  C   UNL     1       2.003  -3.003   0.083  0.00  0.00    +0.172 C 
ATOM      8  N   UNL     1      -1.001  -3.241  -0.423  0.00  0.00    -0.170 NA
ATOM      9  H   UNL     1       2.055  -0.174   0.486  0.00  0.00    +0.187 HD
ENDROOT
BRANCH   8  10
ATOM     10  N   UNL     1      -0.267  -4.421  -0.596  0.00  0.00    -0.281 N 
ATOM     11  H   UNL     1      -0.680  -5.280  -0.415  0.00  0.00    +0.164 HD
ATOM     12  H   UNL     1       0.654  -4.380  -0.897  0.00  0.00    +0.164 HD
ENDBRANCH   8  10
BRANCH   3  13
ATOM     13  C   UNL     1      -2.445  -0.447  -0.249  0.00  0.00    +0.125 C 
BRANCH  13  14
ATOM     14  N   UNL     1      -2.731  -0.261  -1.678  0.00  0.00    -0.298 NA
ATOM     15  C   UNL     1      -2.033   0.920  -2.205  0.00  0.00    +0.105 C 
BRANCH  14  16
ATOM     16  C   UNL     1      -4.177  -0.168  -1.918  0.00  0.00    +0.053 C 
ATOM     17  C   UNL     1      -4.857  -1.460  -1.454  0.00  0.00    +0.000 C 
ATOM     18  C   UNL     1      -6.350  -1.389  -1.779  0.00  0.00    -0.078 C 
ATOM     19  N   UNL     1      -6.533  -1.231  -3.227  0.00  0.00    +0.378 N 
ATOM     20  C   UNL     1      -5.946   0.041  -3.667  0.00  0.00    -0.078 C 
ATOM     21  C   UNL     1      -4.437   0.025  -3.414  0.00  0.00    +0.000 C 
ATOM     22  C   UNL     1      -7.967  -1.241  -3.542  0.00  0.00    -0.096 C 
ATOM     23  H   UNL     1      -6.079  -1.993  -3.708  0.00  0.00    -0.082 HD
ENDBRANCH  14  16
ENDBRANCH  13  14
ENDBRANCH   3  13
TORSDOF 4
