REMARK  Name = ZINC35593398
REMARK  14 active torsions:
REMARK  status: ('A' for Active; 'I' for Inactive)
REMARK    1  A    between atoms: C_1  and  C_2
REMARK    2  A    between atoms: C_2  and  C_3
REMARK    3  A    between atoms: C_3  and  C_5
REMARK    4  A    between atoms: C_3  and  N_6
REMARK    5  A    between atoms: C_7  and  C_9
REMARK    6  A    between atoms: C_9  and  N_10
REMARK    7  A    between atoms: C_13  and  C_24
REMARK    8  A    between atoms: N_15  and  C_16
REMARK    9  A    between atoms: C_19  and  C_23
REMARK   10  A    between atoms: C_21  and  C_22
REMARK   11  A    between atoms: C_24  and  C_25
REMARK   12  A    between atoms: C_24  and  C_26
REMARK   13  A    between atoms: C_24  and  C_27
REMARK   14  A    between atoms: C_28  and  C_34
REMARK                            x       y       z     vdW  Elec       q    Type
REMARK                         _______ _______ _______ _____ _____    ______ ____
ROOT
ATOM      1  N   UNL     1      -7.360   1.980  -5.750  0.00  0.00    -0.246 N 
ATOM      2  C   UNL     1      -7.644   0.837  -4.986  0.00  0.00    +0.136 A 
ATOM      3  C   UNL     1      -8.528  -0.117  -5.358  0.00  0.00    +0.034 A 
ATOM      4  C   UNL     1      -8.555  -1.090  -4.358  0.00  0.00    +0.075 A 
ATOM      5  N   UNL     1      -7.713  -0.735  -3.417  0.00  0.00    -0.169 NA
ATOM      6  N   UNL     1      -7.120   0.482  -3.789  0.00  0.00    -0.217 N 
ATOM      7  C   UNL     1      -9.322  -0.102  -6.639  0.00  0.00    +0.118 C 
ATOM      8  S   UNL     1     -10.636   1.162  -6.496  0.00  0.00    -0.138 S 
ATOM      9  C   UNL     1      -9.758   2.523  -5.658  0.00  0.00    +0.166 C 
ATOM     10  C   UNL     1      -8.383   2.701  -6.222  0.00  0.00    +0.231 C 
ATOM     11  O   UNL     1      -8.196   3.500  -7.115  0.00  0.00    -0.274 OA
ENDROOT
BRANCH   6  12
ATOM     12  C   UNL     1      -6.162   1.197  -3.057  0.00  0.00    +0.070 A 
ATOM     13  C   UNL     1      -6.459   2.464  -2.573  0.00  0.00    +0.028 A 
ATOM     14  C   UNL     1      -5.513   3.165  -1.852  0.00  0.00    +0.005 A 
ATOM     15  C   UNL     1      -4.270   2.608  -1.613  0.00  0.00    -0.050 A 
ATOM     16  C   UNL     1      -3.971   1.347  -2.095  0.00  0.00    +0.008 A 
ATOM     17  C   UNL     1      -4.915   0.637  -2.811  0.00  0.00    -0.025 A 
ATOM     18  C   UNL     1      -4.591  -0.740  -3.330  0.00  0.00    +0.046 C 
ATOM     19  C   UNL     1      -3.240   3.377  -0.827  0.00  0.00    +0.044 C 
ENDBRANCH   6  12
BRANCH   7  20
ATOM     20  C   UNL     1      -9.941  -1.458  -6.867  0.00  0.00    +0.007 A 
ATOM     21  C   UNL     1     -11.125  -1.941  -6.419  0.00  0.00    +0.012 A 
ATOM     22  C   UNL     1     -11.494  -3.230  -6.756  0.00  0.00    +0.008 A 
ATOM     23  C   UNL     1     -10.660  -3.972  -7.526  0.00  0.00    +0.045 A 
ATOM     24  S   UNL     1      -9.308  -2.840  -7.802  0.00  0.00    -0.100 S 
ENDBRANCH   7  20
BRANCH   4  25
ATOM     25  C   UNL     1      -9.405  -2.334  -4.359  0.00  0.00    +0.007 C 
ATOM     26  C   UNL     1      -8.964  -3.253  -5.500  0.00  0.00    +0.017 C 
ATOM     27  C   UNL     1      -9.241  -3.064  -3.024  0.00  0.00    +0.017 C 
ATOM     28  C   UNL     1     -10.873  -1.949  -4.552  0.00  0.00    +0.017 C 
ENDBRANCH   4  25
BRANCH   1  29
ATOM     29  C   UNL     1      -5.976   2.377  -6.018  0.00  0.00    +0.210 C 
BRANCH  29  31
ATOM     30  N   UNL     1      -4.346   2.145  -7.864  0.00  0.00    -0.311 N 
ATOM     31  C   UNL     1      -5.526   1.779  -7.326  0.00  0.00    +0.231 C 
ATOM     32  O   UNL     1      -6.226   0.969  -7.895  0.00  0.00    -0.274 OA
ATOM     33  H   UNL     1      -3.745   2.723  -7.367  0.00  0.00    +0.149 HD
BRANCH  30  34
ATOM     34  C   UNL     1      -3.971   1.671  -9.198  0.00  0.00    +0.070 C 
ATOM     35  C   UNL     1      -4.947   2.234 -10.233  0.00  0.00    +0.028 C 
BRANCH  34  37
ATOM     36  C   UNL     1      -1.560   1.480  -8.568  0.00  0.00    +0.005 C 
ATOM     37  C   UNL     1      -2.552   2.142  -9.526  0.00  0.00    +0.018 C 
ENDBRANCH  34  37
ENDBRANCH  30  34
ENDBRANCH  29  31
ENDBRANCH   1  29
TORSDOF 7
