REMARK  Name = ZINC53647017
REMARK  9 active torsions:
REMARK  status: ('A' for Active; 'I' for Inactive)
REMARK    1  A    between atoms: C_1  and  C_2
REMARK    2  A    between atoms: C_2  and  C_3
REMARK    3  A    between atoms: C_3  and  C_4
REMARK    4  A    between atoms: C_4  and  S_5
REMARK    5  A    between atoms: S_5  and  N_8
REMARK    6  A    between atoms: N_8  and  C_9
REMARK    7  A    between atoms: C_9  and  C_10
REMARK    8  A    between atoms: C_10  and  S_11
REMARK    9  A    between atoms: S_11  and  N_14
REMARK                            x       y       z     vdW  Elec       q    Type
REMARK                         _______ _______ _______ _____ _____    ______ ____
ROOT
ATOM      1  S   UNL     1      -1.083  -7.325  -3.054  0.00  0.00    +0.033 S 
ATOM      2  O   UNL     1      -1.721  -7.330  -1.784  0.00  0.00    -0.158 OA
ATOM      3  O   UNL     1      -1.788  -6.915  -4.217  0.00  0.00    -0.158 OA
ENDROOT
BRANCH   1   4
ATOM      4  N   UNL     1      -0.688  -8.908  -3.335  0.00  0.00    -0.178 NA
ATOM      5  C   UNL     1      -0.538  -9.410  -4.708  0.00  0.00    +0.128 C 
ATOM      6  C   UNL     1       0.851 -10.045  -4.849  0.00  0.00    +0.123 C 
ATOM      7  N   UNL     1       1.059 -10.974  -3.729  0.00  0.00    -0.314 N 
ATOM      8  C   UNL     1       0.909 -10.473  -2.356  0.00  0.00    +0.123 C 
ATOM      9  C   UNL     1      -0.474  -9.836  -2.215  0.00  0.00    +0.128 C 
ATOM     10  C   UNL     1       1.390 -12.303  -3.965  0.00  0.00    +0.099 A 
ATOM     11  C   UNL     1       1.405 -12.789  -5.269  0.00  0.00    +0.042 A 
ATOM     12  C   UNL     1       1.737 -14.114  -5.489  0.00  0.00    +0.005 A 
ATOM     13  C   UNL     1       2.044 -14.911  -4.394  0.00  0.00    +0.018 A 
ATOM     14  C   UNL     1       2.010 -14.363  -3.128  0.00  0.00    +0.084 A 
ATOM     15  N   UNL     1       1.695 -13.094  -2.948  0.00  0.00    -0.350 N 
ATOM     16  H   UNL     1       1.682 -12.732  -2.048  0.00  0.00    +0.166 HD
ENDBRANCH   1   4
BRANCH   1  17
ATOM     17  C   UNL     1       0.508  -6.459  -2.950  0.00  0.00    +0.202 C 
BRANCH  17  18
ATOM     18  C   UNL     1       0.263  -4.971  -2.690  0.00  0.00    +0.129 C 
BRANCH  18  19
ATOM     19  N   UNL     1       1.547  -4.272  -2.606  0.00  0.00    -0.193 NA
ATOM     20  H   UNL     1       2.368  -4.777  -2.494  0.00  0.00    +0.148 HD
BRANCH  19  21
ATOM     21  S   UNL     1       1.598  -2.620  -2.703  0.00  0.00    +0.029 S 
ATOM     22  O   UNL     1       0.854  -2.301  -3.871  0.00  0.00    -0.158 OA
ATOM     23  O   UNL     1       2.978  -2.293  -2.611  0.00  0.00    -0.158 OA
BRANCH  21  24
ATOM     24  C   UNL     1       0.720  -2.039  -1.225  0.00  0.00    +0.185 C 
BRANCH  24  25
ATOM     25  C   UNL     1       0.705  -0.509  -1.209  0.00  0.00    +0.024 C 
BRANCH  25  27
ATOM     26  C   UNL     1      -0.051   1.510   0.053  0.00  0.00    +0.004 C 
ATOM     27  C   UNL     1      -0.036  -0.020   0.037  0.00  0.00    -0.002 C 
ENDBRANCH  25  27
ENDBRANCH  24  25
ENDBRANCH  21  24
ENDBRANCH  19  21
ENDBRANCH  18  19
ENDBRANCH  17  18
ENDBRANCH   1  17
TORSDOF 8
