REMARK  Name = ZINC63250087
REMARK  8 active torsions:
REMARK  status: ('A' for Active; 'I' for Inactive)
REMARK    1  A    between atoms: C_7  and  C_10
REMARK    2  A    between atoms: C_10  and  C_11
REMARK    3  A    between atoms: C_11  and  N_12
REMARK    4  A    between atoms: C_13  and  C_15
REMARK    5  A    between atoms: C_15  and  N_26
REMARK    6  A    between atoms: C_16  and  C_17
REMARK    7  A    between atoms: C_21  and  N_23
REMARK    8  A    between atoms: C_27  and  C_29
REMARK                            x       y       z     vdW  Elec       q    Type
REMARK                         _______ _______ _______ _____ _____    ______ ____
ROOT
ATOM      1  C   UNL     1      -1.918  -6.321  -2.707  0.00  0.00    +0.097 C 
ATOM      2  C   UNL     1      -2.180  -7.153  -3.741  0.00  0.00    +0.036 C 
ENDROOT
BRANCH   2   3
ATOM      3  C   UNL     1      -1.671  -6.839  -5.085  0.00  0.00    -0.021 A 
ATOM      4  C   UNL     1      -0.368  -6.355  -5.248  0.00  0.00    +0.008 A 
ATOM      5  C   UNL     1       0.102  -6.063  -6.511  0.00  0.00    +0.003 A 
ATOM      6  C   UNL     1      -0.712  -6.248  -7.616  0.00  0.00    +0.033 A 
ATOM      7  C   UNL     1      -2.001  -6.726  -7.463  0.00  0.00    +0.127 A 
ATOM      8  C   UNL     1      -2.484  -7.028  -6.207  0.00  0.00    +0.040 A 
BRANCH   7   9
ATOM      9  N   UNL     1      -2.863  -6.919  -8.651  0.00  0.00    +0.056 N 
ATOM     10  O   UNL     1      -2.440  -6.659  -9.753  0.00  0.00    -0.126 OA
ATOM     11  O   UNL     1      -3.990  -7.337  -8.519  0.00  0.00    -0.126 OA
ENDBRANCH   7   9
ENDBRANCH   2   3
BRANCH   1  13
ATOM     12  N   UNL     1      -1.002  -4.193  -1.937  0.00  0.00    -0.310 N 
ATOM     13  C   UNL     1      -1.400  -4.969  -2.964  0.00  0.00    +0.258 C 
ATOM     14  O   UNL     1      -1.331  -4.551  -4.105  0.00  0.00    -0.269 OA
ATOM     15  H   UNL     1      -1.058  -4.526  -1.027  0.00  0.00    +0.149 HD
BRANCH  12  16
ATOM     16  C   UNL     1      -0.487  -2.845  -2.193  0.00  0.00    +0.109 C 
BRANCH  16  17
ATOM     17  C   UNL     1      -0.109  -2.183  -0.867  0.00  0.00    +0.052 C 
BRANCH  17  24
ATOM     18  C   UNL     1      -2.098   1.952  -0.854  0.00  0.00    +0.001 A 
ATOM     19  C   UNL     1      -1.218   2.999  -1.161  0.00  0.00    +0.002 A 
ATOM     20  C   UNL     1       0.088   2.799  -1.433  0.00  0.00    +0.026 A 
ATOM     21  C   UNL     1       0.632   1.484  -1.416  0.00  0.00    +0.043 A 
ATOM     22  N   UNL     1       1.844   1.038  -1.642  0.00  0.00    -0.380 N 
ATOM     23  C   UNL     1       1.842  -0.421  -1.488  0.00  0.00    +0.144 C 
ATOM     24  C   UNL     1       0.422  -0.798  -1.130  0.00  0.00    -0.040 C 
ATOM     25  C   UNL     1      -0.276   0.361  -1.095  0.00  0.00    -0.001 A 
ATOM     26  C   UNL     1      -1.683   0.665  -0.811  0.00  0.00    +0.010 A 
ATOM     27  H   UNL     1       2.614   1.582  -1.872  0.00  0.00    +0.160 HD
ENDBRANCH  17  24
ENDBRANCH  16  17
ENDBRANCH  12  16
ENDBRANCH   1  13
BRANCH   1  28
ATOM     28  N   UNL     1      -2.139  -6.746  -1.394  0.00  0.00    -0.277 N 
ATOM     29  C   UNL     1      -2.994  -6.070  -0.602  0.00  0.00    +0.255 C 
ATOM     30  O   UNL     1      -3.637  -5.140  -1.054  0.00  0.00    -0.269 OA
ATOM     31  H   UNL     1      -1.678  -7.529  -1.054  0.00  0.00    +0.155 HD
BRANCH  29  32
ATOM     32  C   UNL     1      -3.150  -6.454   0.804  0.00  0.00    +0.074 A 
ATOM     33  C   UNL     1      -3.969  -5.900   1.776  0.00  0.00    +0.021 A 
ATOM     34  C   UNL     1      -3.898  -6.481   3.019  0.00  0.00    +0.008 A 
ATOM     35  C   UNL     1      -3.056  -7.526   3.211  0.00  0.00    +0.046 A 
ATOM     36  S   UNL     1      -2.341  -7.760   1.708  0.00  0.00    -0.092 S 
ENDBRANCH  29  32
ENDBRANCH   1  28
TORSDOF 8
