REMARK  Name = ZINC61594328
REMARK  9 active torsions:
REMARK  status: ('A' for Active; 'I' for Inactive)
REMARK    1  A    between atoms: C_1  and  C_2
REMARK    2  A    between atoms: C_2  and  C_3
REMARK    3  A    between atoms: C_3  and  C_5
REMARK    4  A    between atoms: C_3  and  N_24
REMARK    5  A    between atoms: C_5  and  C_7
REMARK    6  A    between atoms: C_5  and  S_14
REMARK    7  A    between atoms: S_14  and  C_15
REMARK    8  A    between atoms: N_21  and  C_22
REMARK    9  A    between atoms: C_22  and  C_23
REMARK                            x       y       z     vdW  Elec       q    Type
REMARK                         _______ _______ _______ _____ _____    ______ ____
ROOT
ATOM      1  C   UNL     1       0.666  -2.186   1.242  0.00  0.00    +0.070 C 
ENDROOT
BRANCH   1   2
ATOM      2  C   UNL     1      -0.661  -2.899   1.277  0.00  0.00    -0.036 A 
ATOM      3  C   UNL     1      -1.449  -2.836   2.410  0.00  0.00    +0.006 A 
ATOM      4  C   UNL     1      -2.667  -3.489   2.443  0.00  0.00    +0.015 A 
ATOM      5  C   UNL     1      -3.096  -4.207   1.342  0.00  0.00    +0.018 A 
ATOM      6  C   UNL     1      -2.306  -4.271   0.208  0.00  0.00    +0.015 A 
ATOM      7  C   UNL     1      -1.091  -3.613   0.174  0.00  0.00    +0.006 A 
ATOM      8 BR   UNL     1      -4.761  -5.103   1.386  0.00  0.00    -0.050 Br
ENDBRANCH   1   2
BRANCH   1   9
ATOM      9  C   UNL     1       0.433  -0.683   1.073  0.00  0.00    -0.057 C 
BRANCH   9  10
ATOM     10  N   UNL     1      -0.397  -0.447  -0.116  0.00  0.00    +0.381 N 
ATOM     11  H   UNL     1      -0.466   0.545  -0.286  0.00  0.00    -0.090 HD
ATOM     12  H   UNL     1       0.025  -0.896  -0.915  0.00  0.00    -0.090 HD
ATOM     13  H   UNL     1      -1.318  -0.828   0.036  0.00  0.00    -0.090 HD
ENDBRANCH   9  10
BRANCH   9  15
ATOM     14  C   UNL     1      -0.387   1.387   2.206  0.00  0.00    +0.002 C 
ATOM     15  C   UNL     1      -0.281  -0.136   2.310  0.00  0.00    -0.018 C 
ENDBRANCH   9  15
ENDBRANCH   1   9
BRANCH   1  16
ATOM     16  S   UNL     1       1.558  -2.489   2.792  0.00  0.00    -0.080 S 
BRANCH  16  17
ATOM     17  C   UNL     1       3.155  -1.803   2.507  0.00  0.00    +0.193 A 
ATOM     18  N   UNL     1       3.524  -1.157   1.439  0.00  0.00    -0.145 NA
ATOM     19  N   UNL     1       4.864  -0.778   1.602  0.00  0.00    -0.226 N 
ATOM     20  H   UNL     1       5.402  -0.283   0.965  0.00  0.00    +0.194 HD
ATOM     21  C   UNL     1       5.266  -1.227   2.809  0.00  0.00    +0.345 A 
ATOM     22  O   UNL     1       6.373  -1.085   3.297  0.00  0.00    -0.245 OA
ATOM     23  N   UNL     1       4.219  -1.856   3.379  0.00  0.00    -0.271 N 
BRANCH  23  24
ATOM     24  C   UNL     1       4.215  -2.490   4.699  0.00  0.00    +0.125 C 
ATOM     25  C   UNL     1       4.641  -3.954   4.563  0.00  0.00    +0.027 C 
ENDBRANCH  23  24
ENDBRANCH  16  17
ENDBRANCH   1  16
TORSDOF 7
