REMARK  Name = ZINC02247685
REMARK  5 active torsions:
REMARK  status: ('A' for Active; 'I' for Inactive)
REMARK    1  A    between atoms: C_9  and  S_23
REMARK    2  A    between atoms: C_10  and  N_22
REMARK    3  A    between atoms: N_11  and  C_14
REMARK    4  A    between atoms: C_14  and  C_15
REMARK    5  A    between atoms: S_23  and  C_26
REMARK                            x       y       z     vdW  Elec       q    Type
REMARK                         _______ _______ _______ _____ _____    ______ ____
ROOT
ATOM      1  C   UNL     1       4.772   3.318  -5.112  0.00  0.00    +0.002 A 
ATOM      2  C   UNL     1       3.531   2.863  -5.558  0.00  0.00    +0.002 A 
ATOM      3  C   UNL     1       2.562   2.497  -4.677  0.00  0.00    +0.030 A 
ATOM      4  C   UNL     1       2.808   2.575  -3.293  0.00  0.00    +0.092 A 
ATOM      5  C   UNL     1       4.069   3.037  -2.840  0.00  0.00    +0.090 A 
ATOM      6  C   UNL     1       5.047   3.407  -3.784  0.00  0.00    +0.030 A 
ATOM      7  N   UNL     1       4.330   3.121  -1.531  0.00  0.00    -0.240 NA
ATOM      8  C   UNL     1       3.401   2.770  -0.656  0.00  0.00    +0.135 A 
ATOM      9  C   UNL     1       3.338   2.734   0.758  0.00  0.00    +0.160 A 
ATOM     10  C   UNL     1       2.112   2.284   1.112  0.00  0.00    +0.126 A 
ATOM     11  N   UNL     1       1.356   2.010  -0.000  0.00  0.00    -0.307 N 
ATOM     12  C   UNL     1       2.095   2.293  -1.129  0.00  0.00    +0.163 A 
ATOM     13  N   UNL     1       1.858   2.218  -2.419  0.00  0.00    -0.226 NA
ENDROOT
BRANCH  10  14
ATOM     14  N   UNL     1       1.680   2.121   2.416  0.00  0.00    -0.343 N 
ATOM     15  H   UNL     1       0.785   1.791   2.593  0.00  0.00    +0.144 HD
ATOM     16  H   UNL     1       2.272   2.337   3.154  0.00  0.00    +0.144 HD
ENDBRANCH  10  14
BRANCH   9  17
ATOM     17  S   UNL     1       4.629   3.199   1.863  0.00  0.00    +0.030 S 
ATOM     18  O   UNL     1       4.388   2.511   3.082  0.00  0.00    -0.164 OA
ATOM     19  O   UNL     1       5.847   3.068   1.143  0.00  0.00    -0.164 OA
BRANCH  17  20
ATOM     20  C   UNL     1       4.429   4.916   2.205  0.00  0.00    +0.094 A 
ATOM     21  C   UNL     1       5.056   5.857   1.410  0.00  0.00    +0.030 A 
ATOM     22  C   UNL     1       4.896   7.204   1.674  0.00  0.00    +0.040 A 
ATOM     23  C   UNL     1       4.114   7.611   2.743  0.00  0.00    +0.124 A 
ATOM     24  C   UNL     1       3.490   6.667   3.541  0.00  0.00    +0.040 A 
ATOM     25  C   UNL     1       3.648   5.321   3.272  0.00  0.00    +0.030 A 
ATOM     26  F   UNL     1       3.961   8.927   3.005  0.00  0.00    -0.205 F 
ENDBRANCH  17  20
ENDBRANCH   9  17
BRANCH  11  27
ATOM     27  C   UNL     1      -0.018   1.503   0.010  0.00  0.00    +0.160 C 
BRANCH  27  28
ATOM     28  C   UNL     1       0.002  -0.004   0.002  0.00  0.00    -0.027 A 
ATOM     29  C   UNL     1      -0.006  -0.688  -1.199  0.00  0.00    +0.008 A 
ATOM     30  C   UNL     1       0.018  -2.070  -1.208  0.00  0.00    +0.038 A 
ATOM     31  C   UNL     1       0.039  -2.769  -0.013  0.00  0.00    +0.123 A 
ATOM     32  C   UNL     1       0.041  -2.083   1.189  0.00  0.00    +0.038 A 
ATOM     33  C   UNL     1       0.023  -0.701   1.196  0.00  0.00    +0.008 A 
ATOM     34  F   UNL     1       0.057  -4.120  -0.021  0.00  0.00    -0.205 F 
ENDBRANCH  27  28
ENDBRANCH  11  27
TORSDOF 5
