REMARK  Name = ZINC54162966
REMARK  7 active torsions:
REMARK  status: ('A' for Active; 'I' for Inactive)
REMARK    1  A    between atoms: C_1  and  C_2
REMARK    2  A    between atoms: C_2  and  C_3
REMARK    3  A    between atoms: C_3  and  C_5
REMARK    4  A    between atoms: C_3  and  N_10
REMARK    5  A    between atoms: C_5  and  C_6
REMARK    6  A    between atoms: N_7  and  O_8
REMARK    7  A    between atoms: C_11  and  C_13
REMARK                            x       y       z     vdW  Elec       q    Type
REMARK                         _______ _______ _______ _____ _____    ______ ____
ROOT
ATOM      1  N   UNL     1      -2.105  -0.148  -1.230  0.00  0.00    -0.308 N 
ATOM      2  C   UNL     1      -2.690   1.062  -1.334  0.00  0.00    +0.251 C 
ATOM      3  O   UNL     1      -2.659   1.834  -0.394  0.00  0.00    -0.270 OA
ATOM      4  H   UNL     1      -2.130  -0.764  -1.980  0.00  0.00    +0.149 HD
ENDROOT
BRANCH   2   5
ATOM      5  C   UNL     1      -3.362   1.447  -2.578  0.00  0.00    +0.074 A 
ATOM      6  C   UNL     1      -4.010   2.626  -2.889  0.00  0.00    +0.024 A 
ATOM      7  C   UNL     1      -4.568   2.725  -4.161  0.00  0.00    -0.036 A 
ATOM      8  C   UNL     1      -4.420   1.644  -4.972  0.00  0.00    -0.006 A 
ATOM      9  S   UNL     1      -3.552   0.520  -4.088  0.00  0.00    -0.088 S 
ATOM     10  C   UNL     1      -4.922   1.474  -6.375  0.00  0.00    +0.043 C 
ATOM     11  C   UNL     1      -5.004   2.844  -7.058  0.00  0.00    +0.005 C 
ATOM     12  C   UNL     1      -6.384   3.438  -6.792  0.00  0.00    +0.001 C 
ATOM     13  C   UNL     1      -6.608   3.624  -5.294  0.00  0.00    +0.005 C 
ATOM     14  C   UNL     1      -5.299   3.988  -4.600  0.00  0.00    +0.036 C 
ENDBRANCH   2   5
BRANCH   1  15
ATOM     15  C   UNL     1      -1.433  -0.534   0.013  0.00  0.00    +0.080 C 
BRANCH  15  17
ATOM     16  C   UNL     1      -0.019   1.526   0.010  0.00  0.00    +0.006 C 
ATOM     17  C   UNL     1       0.002  -0.004   0.002  0.00  0.00    +0.019 C 
ENDBRANCH  15  17
BRANCH  15  18
ATOM     18  C   UNL     1      -1.413  -2.059   0.130  0.00  0.00    +0.096 C 
BRANCH  18  19
ATOM     19  C   UNL     1      -2.824  -2.571   0.265  0.00  0.00    +0.133 C 
ATOM     20  N   UNL     1      -3.815  -1.742   0.266  0.00  0.00    -0.077 NA
ATOM     21  N   UNL     1      -3.058  -3.923   0.385  0.00  0.00    -0.344 N 
ATOM     22  H   UNL     1      -2.314  -4.546   0.384  0.00  0.00    +0.144 HD
ATOM     23  H   UNL     1      -3.966  -4.253   0.472  0.00  0.00    +0.144 HD
BRANCH  20  24
ATOM     24  O   UNL     1      -5.141  -2.223   0.392  0.00  0.00    -0.408 OA
ATOM     25  H   UNL     1      -5.814  -1.529   0.383  0.00  0.00    +0.328 HD
ENDBRANCH  20  24
ENDBRANCH  18  19
ENDBRANCH  15  18
ENDBRANCH   1  15
TORSDOF 6
