REMARK  Name = ZINC39834598
REMARK  9 active torsions:
REMARK  status: ('A' for Active; 'I' for Inactive)
REMARK    1  A    between atoms: C_1  and  C_2
REMARK    2  A    between atoms: N_5  and  S_8
REMARK    3  A    between atoms: S_8  and  C_11
REMARK    4  A    between atoms: C_14  and  C_17
REMARK    5  A    between atoms: N_21  and  C_22
REMARK    6  A    between atoms: C_25  and  O_28
REMARK    7  A    between atoms: O_28  and  C_29
REMARK    8  A    between atoms: N_30  and  C_31
REMARK    9  A    between atoms: C_31  and  C_32
REMARK                            x       y       z     vdW  Elec       q    Type
REMARK                         _______ _______ _______ _____ _____    ______ ____
ROOT
ATOM      1  C   UNL     1       7.383   0.026  -0.011  0.00  0.00    +0.058 A 
ATOM      2  C   UNL     1       7.918   0.405  -1.210  0.00  0.00    +0.074 A 
ATOM      3  S   UNL     1       9.628   0.647  -0.750  0.00  0.00    -0.062 S 
ATOM      4  C   UNL     1       9.460   0.224   0.978  0.00  0.00    +0.144 A 
ATOM      5  N   UNL     1      10.426   0.195   1.971  0.00  0.00    -0.295 N 
ATOM      6  N   UNL     1       8.171  -0.050   1.059  0.00  0.00    -0.315 N 
ATOM      7  H   UNL     1      10.202  -0.133   2.856  0.00  0.00    +0.154 HD
ENDROOT
BRANCH   1  11
ATOM      8  C   UNL     1       3.241  -0.881   0.304  0.00  0.00    +0.106 A 
ATOM      9  C   UNL     1       4.170  -1.661   0.969  0.00  0.00    +0.029 A 
ATOM     10  C   UNL     1       5.515  -1.371   0.871  0.00  0.00    +0.012 A 
ATOM     11  C   UNL     1       5.938  -0.291   0.098  0.00  0.00    -0.001 A 
ATOM     12  C   UNL     1       4.998   0.491  -0.570  0.00  0.00    +0.012 A 
ATOM     13  C   UNL     1       3.655   0.190  -0.469  0.00  0.00    +0.029 A 
BRANCH   8  14
ATOM     14  S   UNL     1       1.524  -1.257   0.434  0.00  0.00    +0.061 S 
ATOM     15  O   UNL     1       0.823  -0.053   0.154  0.00  0.00    -0.153 OA
ATOM     16  O   UNL     1       1.357  -1.971   1.651  0.00  0.00    -0.153 OA
BRANCH  14  21
ATOM     17  C   UNL     1       2.469  -4.572  -4.149  0.00  0.00    +0.007 C 
ATOM     18  C   UNL     1       1.603  -3.954  -3.049  0.00  0.00    -0.012 C 
ATOM     19  C   UNL     1       2.156  -4.355  -1.679  0.00  0.00    +0.020 C 
ATOM     20  C   UNL     1       1.266  -3.764  -0.581  0.00  0.00    +0.110 C 
ATOM     21  N   UNL     1       1.160  -2.313  -0.789  0.00  0.00    -0.177 NA
ATOM     22  C   UNL     1       0.724  -1.817  -2.101  0.00  0.00    +0.110 C 
ATOM     23  C   UNL     1       1.620  -2.430  -3.182  0.00  0.00    +0.020 C 
ENDBRANCH  14  21
ENDBRANCH   8  14
ENDBRANCH   1  11
BRANCH   5  24
ATOM     24  C   UNL     1      11.725   0.640   1.698  0.00  0.00    +0.033 A 
ATOM     25  C   UNL     1      11.927   1.690   0.811  0.00  0.00    +0.027 A 
ATOM     26  C   UNL     1      13.209   2.128   0.542  0.00  0.00    +0.047 A 
ATOM     27  C   UNL     1      14.294   1.521   1.157  0.00  0.00    +0.120 A 
ATOM     28  C   UNL     1      14.092   0.473   2.043  0.00  0.00    +0.047 A 
ATOM     29  C   UNL     1      12.811   0.037   2.317  0.00  0.00    +0.027 A 
BRANCH  27  30
ATOM     30  O   UNL     1      15.555   1.954   0.892  0.00  0.00    -0.495 OA
ATOM     31  C   UNL     1      16.625   1.283   1.560  0.00  0.00    +0.277 C 
ENDBRANCH  27  30
ENDBRANCH   5  24
BRANCH   6  32
ATOM     32  C   UNL     1       7.599  -0.450   2.347  0.00  0.00    +0.198 C 
BRANCH  32  33
ATOM     33  C   UNL     1       8.023  -1.860   2.669  0.00  0.00    +0.124 A 
ATOM     34  C   UNL     1       9.056  -2.210   3.457  0.00  0.00    +0.046 A 
ATOM     35  C   UNL     1       9.091  -3.623   3.482  0.00  0.00    +0.041 A 
ATOM     36  C   UNL     1       8.078  -4.052   2.707  0.00  0.00    +0.195 A 
ATOM     37  O   UNL     1       7.431  -2.979   2.222  0.00  0.00    -0.466 OA
ENDBRANCH  32  33
ENDBRANCH   6  32
TORSDOF 7
