REMARK  Name = ZINC25377241
REMARK  11 active torsions:
REMARK  status: ('A' for Active; 'I' for Inactive)
REMARK    1  A    between atoms: C_1  and  C_2
REMARK    2  A    between atoms: C_2  and  C_4
REMARK    3  A    between atoms: C_7  and  S_10
REMARK    4  A    between atoms: S_10  and  N_13
REMARK    5  A    between atoms: N_13  and  C_14
REMARK    6  A    between atoms: C_14  and  C_15
REMARK    7  A    between atoms: C_18  and  C_21
REMARK    8  A    between atoms: N_23  and  C_24
REMARK    9  A    between atoms: C_24  and  C_25
REMARK   10  A    between atoms: C_25  and  C_27
REMARK   11  A    between atoms: C_25  and  N_32
REMARK                            x       y       z     vdW  Elec       q    Type
REMARK                         _______ _______ _______ _____ _____    ______ ____
ROOT
ATOM      1  C   UNL     1       1.990   5.060   3.548  0.00  0.00    -0.032 A 
ATOM      2  C   UNL     1       2.529   6.334   3.579  0.00  0.00    +0.006 A 
ATOM      3  C   UNL     1       2.540   7.054   4.755  0.00  0.00    +0.013 A 
ATOM      4  C   UNL     1       2.015   6.490   5.919  0.00  0.00    +0.037 A 
ATOM      5  C   UNL     1       1.477   5.203   5.883  0.00  0.00    +0.013 A 
ATOM      6  C   UNL     1       1.468   4.495   4.699  0.00  0.00    +0.006 A 
ENDROOT
BRANCH   4   7
ATOM      7  C   UNL     1       2.027   7.254   7.185  0.00  0.00    +0.244 C 
ATOM      8  O   UNL     1       1.569   6.761   8.197  0.00  0.00    -0.270 OA
ATOM      9  N   UNL     1       2.547   8.497   7.217  0.00  0.00    -0.312 N 
ATOM     10  H   UNL     1       2.962   8.943   6.301  0.00  0.00    +0.149 HD
BRANCH   9  11
ATOM     11  C   UNL     1       2.560   9.254   8.471  0.00  0.00    +0.097 C 
BRANCH  11  12
ATOM     12  C   UNL     1       3.304  10.574   8.263  0.00  0.00    +0.016 C 
BRANCH  12  13
ATOM     13  N   UNL     1       3.429  11.274   9.548  0.00  0.00    +0.387 N 
ATOM     14  C   UNL     1       4.173  10.448  10.534  0.00  0.00    -0.078 C 
ATOM     15  C   UNL     1       4.657  11.488  11.575  0.00  0.00    -0.020 C 
ATOM     16  C   UNL     1       5.009  12.714  10.701  0.00  0.00    -0.020 C 
ATOM     17  C   UNL     1       4.210  12.522   9.399  0.00  0.00    -0.078 C 
ATOM     18  H   UNL     1       2.401  11.479   9.879  0.00  0.00    -0.081 HD
ENDBRANCH  12  13
BRANCH  12  19
ATOM     19  C   UNL     1       2.536  11.436   7.294  0.00  0.00    +0.093 A 
ATOM     20  C   UNL     1       2.811  11.586   5.986  0.00  0.00    +0.043 A 
ATOM     21  C   UNL     1       1.845  12.477   5.464  0.00  0.00    +0.041 A 
ATOM     22  C   UNL     1       1.038  12.819   6.485  0.00  0.00    +0.195 A 
ATOM     23  O   UNL     1       1.458  12.181   7.590  0.00  0.00    -0.469 OA
ENDBRANCH  12  19
ENDBRANCH  11  12
ENDBRANCH   9  11
ENDBRANCH   4   7
BRANCH   1  24
ATOM     24  C   UNL     1       1.977   4.281   2.258  0.00  0.00    +0.141 C 
BRANCH  24  25
ATOM     25  N   UNL     1       0.733   4.555   1.535  0.00  0.00    -0.186 NA
ATOM     26  H   UNL     1      -0.163   4.879   2.085  0.00  0.00    +0.148 HD
BRANCH  25  27
ATOM     27  S   UNL     1       0.596   4.144  -0.063  0.00  0.00    +0.059 S 
ATOM     28  O   UNL     1       1.757   4.644  -0.712  0.00  0.00    -0.153 OA
ATOM     29  O   UNL     1      -0.717   4.507  -0.465  0.00  0.00    -0.153 OA
BRANCH  27  33
ATOM     30  C   UNL     1       0.821  -0.376  -0.309  0.00  0.00    +0.017 A 
ATOM     31  C   UNL     1      -0.415   0.259  -0.151  0.00  0.00    +0.013 A 
ATOM     32  C   UNL     1      -0.475   1.634  -0.077  0.00  0.00    +0.029 A 
ATOM     33  C   UNL     1       0.684   2.386  -0.158  0.00  0.00    +0.105 A 
ATOM     34  C   UNL     1       1.911   1.766  -0.315  0.00  0.00    +0.029 A 
ATOM     35  C   UNL     1       1.987   0.391  -0.391  0.00  0.00    +0.013 A 
BRANCH  30  37
ATOM     36  C   UNL     1       2.228  -2.524  -0.559  0.00  0.00    +0.091 C 
ATOM     37  C   UNL     1       0.894  -1.844  -0.388  0.00  0.00    +0.160 C 
ATOM     38  O   UNL     1      -0.119  -2.506  -0.317  0.00  0.00    -0.292 OA
ENDBRANCH  30  37
ENDBRANCH  27  33
ENDBRANCH  25  27
ENDBRANCH  24  25
ENDBRANCH   1  24
TORSDOF 10
