REMARK  Name = ZINC39695822
REMARK  11 active torsions:
REMARK  status: ('A' for Active; 'I' for Inactive)
REMARK    1  A    between atoms: C_1  and  C_2
REMARK    2  A    between atoms: C_2  and  C_3
REMARK    3  A    between atoms: C_3  and  C_4
REMARK    4  A    between atoms: C_4  and  C_5
REMARK    5  A    between atoms: C_5  and  C_7
REMARK    6  A    between atoms: C_5  and  C_8
REMARK    7  A    between atoms: C_12  and  C_21
REMARK    8  A    between atoms: N_23  and  C_24
REMARK    9  A    between atoms: C_24  and  C_26
REMARK   10  A    between atoms: C_24  and  C_27
REMARK   11  A    between atoms: C_33  and  C_37
REMARK                            x       y       z     vdW  Elec       q    Type
REMARK                         _______ _______ _______ _____ _____    ______ ____
ROOT
ATOM      1  C   UNL     1       1.869  -4.281   2.456  0.00  0.00    +0.218 C 
ATOM      2  O   UNL     1       1.577  -4.953   1.490  0.00  0.00    -0.275 OA
ATOM      3  N   UNL     1       2.323  -4.875   3.578  0.00  0.00    -0.300 N 
ATOM      4  C   UNL     1       2.623  -4.241   4.883  0.00  0.00    +0.121 C 
ATOM      5  C   UNL     1       2.121  -5.255   5.935  0.00  0.00    +0.100 C 
ATOM      6  C   UNL     1       2.132  -6.611   5.209  0.00  0.00    -0.004 C 
ATOM      7  C   UNL     1       2.627  -6.311   3.787  0.00  0.00    +0.115 C 
ATOM      8  C   UNL     1       0.723  -7.194   5.158  0.00  0.00    -0.010 C 
ATOM      9  C   UNL     1       0.768  -8.567   4.482  0.00  0.00    -0.082 C 
ATOM     10  N   UNL     1       1.661  -9.456   5.236  0.00  0.00    +0.379 N 
ATOM     11  C   UNL     1       3.033  -8.936   5.202  0.00  0.00    -0.082 C 
ATOM     12  C   UNL     1       3.083  -7.578   5.908  0.00  0.00    -0.010 C 
ATOM     13  H   UNL     1       1.347  -9.512   6.194  0.00  0.00    -0.086 HD
ATOM     14  H   UNL     1       1.642 -10.377   4.825  0.00  0.00    -0.086 HD
ENDROOT
BRANCH   5  15
ATOM     15  C   UNL     1       3.051  -5.285   7.121  0.00  0.00    +0.219 C 
ATOM     16  O   UNL     1       4.228  -5.031   6.975  0.00  0.00    -0.275 OA
ATOM     17  N   UNL     1       2.575  -5.594   8.343  0.00  0.00    -0.305 N 
ATOM     18  H   UNL     1       1.633  -5.798   8.460  0.00  0.00    +0.149 HD
BRANCH  17  19
ATOM     19  C   UNL     1       3.478  -5.623   9.496  0.00  0.00    +0.136 C 
ATOM     20  C   UNL     1       3.620  -4.212  10.069  0.00  0.00    +0.036 C 
BRANCH  19  21
ATOM     21  C   UNL     1       2.917  -6.541  10.551  0.00  0.00    +0.128 A 
ATOM     22  H   UNL     1       4.616  -7.137  11.606  0.00  0.00    +0.167 HD
ATOM     23  N   UNL     1       1.657  -6.835  10.689  0.00  0.00    -0.231 NA
ATOM     24  C   UNL     1       1.499  -7.686  11.736  0.00  0.00    +0.089 A 
ATOM     25  C   UNL     1       0.389  -8.306  12.313  0.00  0.00    +0.030 A 
ATOM     26  C   UNL     1       0.554  -9.133  13.389  0.00  0.00    +0.005 A 
ATOM     27  C   UNL     1       1.816  -9.364  13.917  0.00  0.00    -0.048 A 
ATOM     28  C   UNL     1       2.926  -8.761  13.363  0.00  0.00    +0.031 A 
ATOM     29  C   UNL     1       2.777  -7.919  12.270  0.00  0.00    +0.067 A 
ATOM     30  N   UNL     1       3.654  -7.186  11.495  0.00  0.00    -0.340 N 
ATOM     31  C   UNL     1       1.975 -10.278  15.104  0.00  0.00    +0.044 C 
ENDBRANCH  19  21
ENDBRANCH  17  19
ENDBRANCH   5  15
BRANCH   1  32
ATOM     32  C   UNL     1       1.725  -2.782   2.403  0.00  0.00    +0.072 C 
ATOM     33  C   UNL     1       0.317  -2.389   2.854  0.00  0.00    +0.017 C 
BRANCH  32  34
ATOM     34  C   UNL     1       1.954  -2.299   0.969  0.00  0.00    +0.012 C 
BRANCH  34  35
ATOM     35  C   UNL     1       1.932  -0.769   0.937  0.00  0.00    +0.000 C 
BRANCH  35  37
ATOM     36  C   UNL     1       2.139   1.244  -0.528  0.00  0.00    +0.004 C 
ATOM     37  C   UNL     1       2.161  -0.285  -0.496  0.00  0.00    -0.003 C 
ENDBRANCH  35  37
ENDBRANCH  34  35
ENDBRANCH  32  34
ENDBRANCH   1  32
TORSDOF 7
