REMARK  Name = ZINC49060742
REMARK  6 active torsions:
REMARK  status: ('A' for Active; 'I' for Inactive)
REMARK    1  A    between atoms: C_1  and  C_2
REMARK    2  A    between atoms: C_2  and  C_4
REMARK    3  A    between atoms: C_2  and  N_11
REMARK    4  A    between atoms: C_7  and  N_10
REMARK    5  A    between atoms: N_11  and  S_12
REMARK    6  A    between atoms: S_12  and  C_15
REMARK                            x       y       z     vdW  Elec       q    Type
REMARK                         _______ _______ _______ _____ _____    ______ ____
ROOT
ATOM      1  C   UNL     1      -0.019   1.526   0.010  0.00  0.00    +0.031 C 
ATOM      2  C   UNL     1       0.002  -0.004   0.002  0.00  0.00    +0.103 C 
ENDROOT
BRANCH   2   3
ATOM      3  C   UNL     1      -1.412  -0.526   0.013  0.00  0.00    -0.029 A 
ATOM      4  C   UNL     1      -2.140  -0.568  -1.162  0.00  0.00    +0.007 A 
ATOM      5  C   UNL     1      -3.436  -1.046  -1.156  0.00  0.00    +0.023 A 
ATOM      6  C   UNL     1      -4.008  -1.483   0.032  0.00  0.00    +0.025 A 
ATOM      7  C   UNL     1      -3.273  -1.439   1.210  0.00  0.00    +0.023 A 
ATOM      8  C   UNL     1      -1.976  -0.966   1.196  0.00  0.00    +0.007 A 
BRANCH   6   9
ATOM      9  N   UNL     1      -5.318  -1.966   0.042  0.00  0.00    -0.358 N 
ATOM     10  H   UNL     1      -5.830  -1.996  -0.781  0.00  0.00    +0.142 HD
ATOM     11  H   UNL     1      -5.716  -2.272   0.873  0.00  0.00    +0.142 HD
ENDBRANCH   6   9
ENDBRANCH   2   3
BRANCH   2  12
ATOM     12  N   UNL     1       0.688  -0.476  -1.203  0.00  0.00    -0.182 NA
ATOM     13  H   UNL     1       0.197  -0.571  -2.035  0.00  0.00    +0.149 HD
BRANCH  12  14
ATOM     14  S   UNL     1       2.300  -0.849  -1.146  0.00  0.00    +0.066 S 
ATOM     15  O   UNL     1       2.660  -1.296  -2.446  0.00  0.00    -0.152 OA
ATOM     16  O   UNL     1       2.947   0.245  -0.511  0.00  0.00    -0.152 OA
BRANCH  14  17
ATOM     17  C   UNL     1       2.478  -2.233  -0.071  0.00  0.00    +0.156 A 
ATOM     18  C   UNL     1       3.605  -2.892   0.294  0.00  0.00    +0.051 A 
ATOM     19  C   UNL     1       3.504  -3.964   1.161  0.00  0.00    +0.025 A 
ATOM     20  C   UNL     1       2.281  -4.324   1.621  0.00  0.00    +0.048 A 
ATOM     21  S   UNL     1       1.220  -3.127   0.828  0.00  0.00    -0.076 S 
ATOM     22 BR   UNL     1       5.290  -2.354  -0.374  0.00  0.00    -0.048 Br
ENDBRANCH  14  17
ENDBRANCH  12  14
ENDBRANCH   2  12
TORSDOF 5
