REMARK  Name = ZINC39007736
REMARK  9 active torsions:
REMARK  status: ('A' for Active; 'I' for Inactive)
REMARK    1  A    between atoms: C_1  and  C_2
REMARK    2  A    between atoms: C_2  and  C_3
REMARK    3  A    between atoms: C_3  and  C_4
REMARK    4  A    between atoms: C_4  and  N_5
REMARK    5  A    between atoms: N_5  and  C_6
REMARK    6  A    between atoms: N_5  and  S_20
REMARK    7  A    between atoms: C_6  and  C_7
REMARK    8  A    between atoms: C_14  and  C_19
REMARK    9  A    between atoms: S_20  and  C_23
REMARK                            x       y       z     vdW  Elec       q    Type
REMARK                         _______ _______ _______ _____ _____    ______ ____
ROOT
ATOM      1  N   UNL     1       1.425  -2.537  -2.570  0.00  0.00    -0.176 NA
ENDROOT
BRANCH   1   2
ATOM      2  S   UNL     1       0.645  -2.621  -4.028  0.00  0.00    +0.061 S 
ATOM      3  O   UNL     1       1.560  -3.207  -4.944  0.00  0.00    -0.153 OA
ATOM      4  O   UNL     1      -0.638  -3.176  -3.772  0.00  0.00    -0.153 OA
BRANCH   2   5
ATOM      5  C   UNL     1       0.378  -0.966  -4.572  0.00  0.00    +0.105 A 
ATOM      6  C   UNL     1      -0.780  -0.300  -4.216  0.00  0.00    +0.028 A 
ATOM      7  C   UNL     1      -0.989   0.998  -4.643  0.00  0.00    +0.002 A 
ATOM      8  C   UNL     1      -0.040   1.631  -5.424  0.00  0.00    +0.000 A 
ATOM      9  C   UNL     1       1.119   0.965  -5.778  0.00  0.00    +0.002 A 
ATOM     10  C   UNL     1       1.330  -0.332  -5.348  0.00  0.00    +0.028 A 
ENDBRANCH   2   5
ENDBRANCH   1   2
BRANCH   1  11
ATOM     11  C   UNL     1       0.650  -2.485  -1.327  0.00  0.00    +0.109 C 
BRANCH  11  12
ATOM     12  C   UNL     1       0.492  -1.028  -0.886  0.00  0.00    +0.017 C 
BRANCH  12  14
ATOM     13  C   UNL     1      -0.474   0.483   0.853  0.00  0.00    +0.004 C 
ATOM     14  C   UNL     1      -0.316  -0.973   0.412  0.00  0.00    -0.002 C 
ENDBRANCH  12  14
ENDBRANCH  11  12
ENDBRANCH   1  11
BRANCH   1  15
ATOM     15  C   UNL     1       2.889  -2.516  -2.522  0.00  0.00    +0.126 C 
BRANCH  15  16
ATOM     16  C   UNL     1       3.402  -3.864  -2.011  0.00  0.00    +0.114 C 
ATOM     17  C   UNL     1       2.881  -4.942  -2.941  0.00  0.00    -0.003 C 
ATOM     18  C   UNL     1       3.803  -5.736  -3.557  0.00  0.00    -0.007 A 
ATOM     19  C   UNL     1       3.386  -6.801  -4.470  0.00  0.00    +0.009 A 
ATOM     20  C   UNL     1       4.340  -7.567  -5.060  0.00  0.00    +0.001 A 
ATOM     21  C   UNL     1       5.697  -7.357  -4.813  0.00  0.00    +0.005 A 
ATOM     22  C   UNL     1       6.147  -6.386  -3.976  0.00  0.00    -0.029 A 
ATOM     23  C   UNL     1       5.242  -5.536  -3.314  0.00  0.00    +0.043 A 
ATOM     24  N   UNL     1       5.696  -4.586  -2.497  0.00  0.00    -0.284 N 
ATOM     25  C   UNL     1       4.901  -3.757  -1.844  0.00  0.00    +0.225 C 
ATOM     26  O   UNL     1       5.374  -2.909  -1.111  0.00  0.00    -0.275 OA
ATOM     27  C   UNL     1       7.629  -6.217  -3.756  0.00  0.00    +0.045 C 
ATOM     28  H   UNL     1       6.654  -4.500  -2.375  0.00  0.00    +0.155 HD
ENDBRANCH  15  16
ENDBRANCH   1  15
TORSDOF 7
