REMARK  Name = ZINC23311821
REMARK  10 active torsions:
REMARK  status: ('A' for Active; 'I' for Inactive)
REMARK    1  A    between atoms: C_1  and  C_2
REMARK    2  A    between atoms: C_5  and  C_7
REMARK    3  A    between atoms: C_7  and  N_8
REMARK    4  A    between atoms: C_14  and  C_16
REMARK    5  A    between atoms: C_16  and  C_17
REMARK    6  A    between atoms: N_19  and  C_20
REMARK    7  A    between atoms: N_19  and  C_21
REMARK    8  A    between atoms: C_21  and  C_22
REMARK    9  A    between atoms: C_22  and  C_23
REMARK   10  A    between atoms: N_26  and  C_28
REMARK                            x       y       z     vdW  Elec       q    Type
REMARK                         _______ _______ _______ _____ _____    ______ ____
ROOT
ATOM      1  N   UNL     1      -1.387  -1.660  -3.503  0.00  0.00    +0.393 N 
ATOM      2  C   UNL     1      -1.307  -2.551  -4.672  0.00  0.00    -0.058 C 
ATOM      3  C   UNL     1      -1.486  -1.715  -5.941  0.00  0.00    +0.085 C 
ATOM      4  N   UNL     1      -0.588  -0.565  -5.913  0.00  0.00    -0.318 N 
ATOM      5  C   UNL     1      -0.015  -0.117  -4.791  0.00  0.00    +0.200 C 
ATOM      6  O   UNL     1       0.695   0.865  -4.853  0.00  0.00    -0.278 OA
ATOM      7  C   UNL     1      -0.213  -0.779  -3.456  0.00  0.00    +0.029 C 
ATOM      8  H   UNL     1      -0.355  -0.026  -6.843  0.00  0.00    +0.149 HD
ATOM      9  H   UNL     1      -2.288  -1.036  -3.600  0.00  0.00    -0.080 HD
ENDROOT
BRANCH   1  10
ATOM     10  C   UNL     1      -1.516  -2.433  -2.260  0.00  0.00    -0.002 C 
BRANCH  10  15
ATOM     11  C   UNL     1      -6.176  -4.353  -2.054  0.00  0.00    +0.086 C 
ATOM     12  C   UNL     1      -4.693  -4.232  -2.296  0.00  0.00    +0.102 A 
ATOM     13  C   UNL     1      -3.896  -5.196  -2.792  0.00  0.00    +0.044 A 
ATOM     14  C   UNL     1      -2.590  -4.657  -2.850  0.00  0.00    +0.043 A 
ATOM     15  C   UNL     1      -2.667  -3.398  -2.385  0.00  0.00    +0.089 A 
ATOM     16  O   UNL     1      -3.942  -3.147  -2.046  0.00  0.00    -0.467 OA
ENDBRANCH  10  15
ENDBRANCH   1  10
BRANCH   7  17
ATOM     17  C   UNL     1      -0.425   0.292  -2.385  0.00  0.00    +0.090 C 
BRANCH  17  18
ATOM     18  C   UNL     1      -1.640   1.115  -2.730  0.00  0.00    +0.214 C 
ATOM     19  O   UNL     1      -2.331   0.808  -3.678  0.00  0.00    -0.276 OA
ATOM     20  N   UNL     1      -1.959   2.191  -1.984  0.00  0.00    -0.304 N 
ATOM     21  C   UNL     1      -1.124   2.562  -0.839  0.00  0.00    +0.132 C 
BRANCH  20  22
ATOM     22  C   UNL     1      -3.140   2.991  -2.319  0.00  0.00    +0.112 C 
BRANCH  22  23
ATOM     23  C   UNL     1      -2.744   4.102  -3.294  0.00  0.00    +0.057 C 
BRANCH  23  24
ATOM     24  C   UNL     1      -3.959   4.924  -3.639  0.00  0.00    -0.008 A 
ATOM     25  C   UNL     1      -4.836   4.690  -4.702  0.00  0.00    +0.138 A 
ATOM     26  N   UNL     1      -5.767   5.609  -4.675  0.00  0.00    -0.180 NA
ATOM     27  N   UNL     1      -5.505   6.465  -3.597  0.00  0.00    -0.274 N 
ATOM     28  C   UNL     1      -4.390   6.023  -2.977  0.00  0.00    +0.111 A 
ATOM     29  C   UNL     1      -6.299   7.634  -3.211  0.00  0.00    +0.172 C 
ENDBRANCH  23  24
ENDBRANCH  22  23
ENDBRANCH  20  22
ENDBRANCH  17  18
ENDBRANCH   7  17
TORSDOF 7
