REMARK  Name = ZINC39596318
REMARK  9 active torsions:
REMARK  status: ('A' for Active; 'I' for Inactive)
REMARK    1  A    between atoms: C_1  and  C_2
REMARK    2  A    between atoms: C_2  and  C_4
REMARK    3  A    between atoms: C_2  and  O_29
REMARK    4  A    between atoms: C_4  and  N_5
REMARK    5  A    between atoms: C_6  and  C_8
REMARK    6  A    between atoms: C_19  and  C_21
REMARK    7  A    between atoms: C_25  and  O_26
REMARK    8  A    between atoms: O_26  and  C_27
REMARK    9  A    between atoms: O_29  and  C_30
REMARK                            x       y       z     vdW  Elec       q    Type
REMARK                         _______ _______ _______ _____ _____    ______ ____
ROOT
ATOM      1  C   UNL     1      -2.845  -4.170  -0.146  0.00  0.00    +0.100 C 
ATOM      2  C   UNL     1      -2.490  -4.668   1.273  0.00  0.00    +0.121 C 
ATOM      3  N   UNL     1      -3.798  -4.951   1.908  0.00  0.00    -0.296 N 
ATOM      4  C   UNL     1      -4.608  -5.561   0.827  0.00  0.00    +0.115 C 
ATOM      5  C   UNL     1      -4.234  -4.762  -0.436  0.00  0.00    -0.004 C 
ATOM      6  C   UNL     1      -4.172  -5.687  -1.648  0.00  0.00    -0.010 C 
ATOM      7  C   UNL     1      -5.576  -6.217  -1.952  0.00  0.00    -0.082 C 
ATOM      8  N   UNL     1      -6.480  -5.091  -2.217  0.00  0.00    +0.379 N 
ATOM      9  C   UNL     1      -6.606  -4.257  -1.015  0.00  0.00    -0.082 C 
ATOM     10  C   UNL     1      -5.246  -3.644  -0.671  0.00  0.00    -0.010 C 
ATOM     11  C   UNL     1      -4.167  -4.709   3.182  0.00  0.00    +0.251 C 
ATOM     12  O   UNL     1      -3.421  -4.102   3.927  0.00  0.00    -0.270 OA
ATOM     13  H   UNL     1      -6.110  -4.535  -2.973  0.00  0.00    -0.086 HD
ATOM     14  H   UNL     1      -7.389  -5.444  -2.476  0.00  0.00    -0.086 HD
ENDROOT
BRANCH  11  15
ATOM     15  C   UNL     1      -5.472  -5.178   3.670  0.00  0.00    +0.087 A 
ATOM     16  C   UNL     1      -6.111  -6.258   3.099  0.00  0.00    +0.063 A 
ATOM     17  S   UNL     1      -7.534  -6.408   3.976  0.00  0.00    -0.081 S 
ATOM     18  C   UNL     1      -7.339  -5.061   5.122  0.00  0.00    +0.120 A 
ATOM     19  C   UNL     1      -6.143  -4.533   4.776  0.00  0.00    +0.158 A 
ATOM     20 CL   UNL     1      -8.419  -4.551   6.382  0.00  0.00    -0.072 Cl
BRANCH  19  21
ATOM     21  O   UNL     1      -5.608  -3.462   5.424  0.00  0.00    -0.492 OA
ATOM     22  C   UNL     1      -5.939  -2.167   4.919  0.00  0.00    +0.277 C 
ENDBRANCH  19  21
ENDBRANCH  11  15
BRANCH   1  24
ATOM     23  N   UNL     1      -2.776  -2.008  -1.347  0.00  0.00    -0.312 N 
ATOM     24  C   UNL     1      -2.899  -2.664  -0.176  0.00  0.00    +0.218 C 
ATOM     25  O   UNL     1      -3.054  -2.042   0.854  0.00  0.00    -0.275 OA
ATOM     26  H   UNL     1      -2.653  -2.505  -2.170  0.00  0.00    +0.149 HD
BRANCH  23  27
ATOM     27  C   UNL     1      -2.829  -0.544  -1.375  0.00  0.00    +0.148 C 
BRANCH  27  29
ATOM     28  C   UNL     1      -2.722   1.473  -2.846  0.00  0.00    +0.053 C 
ATOM     29  C   UNL     1      -2.666  -0.056  -2.816  0.00  0.00    +0.187 C 
BRANCH  29  30
ATOM     30  O   UNL     1      -1.407  -0.497  -3.329  0.00  0.00    -0.488 OA
BRANCH  30  31
ATOM     31  C   UNL     1      -1.356  -0.814  -4.650  0.00  0.00    +0.121 A 
ATOM     32  C   UNL     1      -0.201  -1.364  -5.187  0.00  0.00    +0.048 A 
ATOM     33  C   UNL     1      -0.150  -1.686  -6.529  0.00  0.00    +0.042 A 
ATOM     34  C   UNL     1      -1.251  -1.459  -7.339  0.00  0.00    +0.124 A 
ATOM     35  C   UNL     1      -2.404  -0.910  -6.804  0.00  0.00    +0.042 A 
ATOM     36  C   UNL     1      -2.460  -0.593  -5.460  0.00  0.00    +0.048 A 
ATOM     37  F   UNL     1      -1.199  -1.774  -8.652  0.00  0.00    -0.205 F 
ENDBRANCH  30  31
ENDBRANCH  29  30
ENDBRANCH  27  29
ENDBRANCH  23  27
ENDBRANCH   1  24
TORSDOF 7
