REMARK  Name = ZINC66468744
REMARK  4 active torsions:
REMARK  status: ('A' for Active; 'I' for Inactive)
REMARK    1  A    between atoms: C_1  and  C_2
REMARK    2  A    between atoms: N_11  and  C_14
REMARK    3  A    between atoms: C_14  and  C_15
REMARK    4  A    between atoms: N_17  and  C_18
REMARK                            x       y       z     vdW  Elec       q    Type
REMARK                         _______ _______ _______ _____ _____    ______ ____
ROOT
ATOM      1  C   UNL     1      -3.286  -5.487   3.022  0.00  0.00    +0.019 C 
ENDROOT
BRANCH   1  12
ATOM      2  C   UNL     1       0.120  -2.489   9.951  0.00  0.00    +0.066 C 
ATOM      3  C   UNL     1      -0.343  -2.199   8.547  0.00  0.00    +0.047 A 
ATOM      4  C   UNL     1      -1.124  -1.129   8.266  0.00  0.00    +0.071 A 
ATOM      5  S   UNL     1      -1.329  -1.318   6.502  0.00  0.00    -0.060 S 
ATOM      6  C   UNL     1      -0.413  -2.717   6.311  0.00  0.00    +0.161 A 
ATOM      7  N   UNL     1      -0.001  -2.975   7.533  0.00  0.00    -0.230 NA
ATOM      8  N   UNL     1      -0.153  -3.424   5.147  0.00  0.00    -0.311 N 
ATOM      9  C   UNL     1       0.681  -4.640   5.224  0.00  0.00    +0.105 C 
ATOM     10  C   UNL     1       0.110  -5.760   4.334  0.00  0.00    +0.000 C 
ATOM     11  C   UNL     1      -1.399  -5.766   4.439  0.00  0.00    -0.077 C 
ATOM     12  N   UNL     1      -1.961  -4.953   3.363  0.00  0.00    +0.386 N 
ATOM     13  C   UNL     1      -2.098  -3.580   3.663  0.00  0.00    -0.059 C 
ATOM     14  C   UNL     1      -0.713  -2.945   3.900  0.00  0.00    +0.088 C 
ATOM     15  H   UNL     1      -1.367  -5.044   2.552  0.00  0.00    -0.081 HD
ENDBRANCH   1  12
BRANCH   1  16
ATOM     16  C   UNL     1      -3.134  -6.860   2.418  0.00  0.00    +0.197 C 
ATOM     17  O   UNL     1      -2.029  -7.301   2.186  0.00  0.00    -0.278 OA
ATOM     18  N   UNL     1      -4.227  -7.597   2.136  0.00  0.00    -0.314 N 
ATOM     19  H   UNL     1      -5.111  -7.244   2.321  0.00  0.00    +0.149 HD
BRANCH  18  20
ATOM     20  C   UNL     1      -4.079  -8.931   1.549  0.00  0.00    +0.073 C 
ATOM     21  C   UNL     1      -3.948  -8.808   0.030  0.00  0.00    +0.027 C 
ATOM     22  C   UNL     1      -3.790 -10.201  -0.583  0.00  0.00    +0.067 C 
ATOM     23  C   UNL     1      -5.015 -11.050  -0.239  0.00  0.00    +0.170 C 
ATOM     24  C   UNL     1      -5.152 -11.171   1.280  0.00  0.00    +0.067 C 
ATOM     25  C   UNL     1      -5.308  -9.777   1.890  0.00  0.00    +0.027 C 
ATOM     26  O   UNL     1      -6.194 -10.428  -0.776  0.00  0.00    -0.346 OA
ATOM     27  C   UNL     1      -6.409 -11.082  -2.050  0.00  0.00    +0.191 C 
ATOM     28  C   UNL     1      -5.972 -12.535  -1.735  0.00  0.00    +0.191 C 
ATOM     29  O   UNL     1      -4.876 -12.354  -0.816  0.00  0.00    -0.346 OA
ENDBRANCH  18  20
ENDBRANCH   1  16
TORSDOF 3
