REMARK  Name = ZINC50321368
REMARK  7 active torsions:
REMARK  status: ('A' for Active; 'I' for Inactive)
REMARK    1  A    between atoms: C_1  and  C_2
REMARK    2  A    between atoms: C_2  and  C_3
REMARK    3  A    between atoms: C_2  and  C_4
REMARK    4  A    between atoms: C_5  and  N_20
REMARK    5  A    between atoms: C_6  and  C_10
REMARK    6  A    between atoms: C_16  and  C_18
REMARK    7  A    between atoms: C_18  and  O_19
REMARK                            x       y       z     vdW  Elec       q    Type
REMARK                         _______ _______ _______ _____ _____    ______ ____
ROOT
ATOM      1  C   UNL     1       0.707  -0.490  -1.238  0.00  0.00    +0.060 A 
ATOM      2  C   UNL     1       1.824  -1.264  -1.281  0.00  0.00    +0.078 A 
ATOM      3  C   UNL     1       2.099  -1.452  -2.660  0.00  0.00    +0.168 A 
ATOM      4  N   UNL     1       1.167  -0.805  -3.333  0.00  0.00    -0.167 NA
ATOM      5  N   UNL     1       0.344  -0.242  -2.523  0.00  0.00    -0.279 N 
ATOM      6  H   UNL     1      -0.425   0.285  -2.791  0.00  0.00    +0.189 HD
ENDROOT
BRANCH   3   7
ATOM      7  C   UNL     1       3.217  -2.225  -3.233  0.00  0.00    +0.269 C 
ATOM      8  O   UNL     1       4.014  -2.778  -2.499  0.00  0.00    -0.268 OA
ATOM      9  N   UNL     1       3.355  -2.319  -4.571  0.00  0.00    -0.291 N 
ATOM     10  C   UNL     1       2.470  -1.697  -5.572  0.00  0.00    +0.108 C 
ATOM     11  C   UNL     1       3.344  -1.558  -6.843  0.00  0.00    +0.021 C 
ATOM     12  C   UNL     1       4.186  -2.861  -6.786  0.00  0.00    +0.026 C 
ATOM     13  C   UNL     1       4.418  -3.054  -5.273  0.00  0.00    +0.102 C 
BRANCH  13  14
ATOM     14  C   UNL     1       4.341  -4.541  -4.923  0.00  0.00    +0.178 C 
BRANCH  14  15
ATOM     15  O   UNL     1       4.653  -4.722  -3.540  0.00  0.00    -0.393 OA
ATOM     16  H   UNL     1       4.624  -5.643  -3.248  0.00  0.00    +0.209 HD
ENDBRANCH  14  15
ENDBRANCH  13  14
ENDBRANCH   3   7
BRANCH   1  18
ATOM     17  C   UNL     1      -0.019   1.526   0.010  0.00  0.00    +0.014 C 
ATOM     18  C   UNL     1       0.002  -0.004   0.002  0.00  0.00    +0.033 C 
ATOM     19  C   UNL     1      -1.433  -0.534   0.013  0.00  0.00    +0.014 C 
ENDBRANCH   1  18
BRANCH   2  20
ATOM     20  N   UNL     1       2.551  -1.769  -0.193  0.00  0.00    -0.355 N 
ATOM     21  H   UNL     1       2.266  -1.573   0.713  0.00  0.00    +0.142 HD
ATOM     22  H   UNL     1       3.338  -2.314  -0.347  0.00  0.00    +0.142 HD
ENDBRANCH   2  20
TORSDOF 5
