REMARK  Name = ZINC40317576
REMARK  15 active torsions:
REMARK  status: ('A' for Active; 'I' for Inactive)
REMARK    1  A    between atoms: C_1  and  C_2
REMARK    2  A    between atoms: C_4  and  C_34
REMARK    3  A    between atoms: C_6  and  O_8
REMARK    4  A    between atoms: O_8  and  C_9
REMARK    5  A    between atoms: C_9  and  C_10
REMARK    6  A    between atoms: C_10  and  C_12
REMARK    7  A    between atoms: C_10  and  O_33
REMARK    8  A    between atoms: C_12  and  N_13
REMARK    9  A    between atoms: N_13  and  C_14
REMARK   10  A    between atoms: N_13  and  C_25
REMARK   11  A    between atoms: C_14  and  C_15
REMARK   12  A    between atoms: C_18  and  C_21
REMARK   13  A    between atoms: C_21  and  C_22
REMARK   14  A    between atoms: C_21  and  C_23
REMARK   15  A    between atoms: C_21  and  C_24
REMARK                            x       y       z     vdW  Elec       q    Type
REMARK                         _______ _______ _______ _____ _____    ______ ____
ROOT
ATOM      1  N   UNL     1      -0.152  -3.003   7.277  0.00  0.00    +0.387 N 
ATOM      2  H   UNL     1      -0.917  -3.490   7.720  0.00  0.00    -0.081 HD
ENDROOT
BRANCH   1   3
ATOM      3  C   UNL     1       0.961  -3.936   7.055  0.00  0.00    -0.045 C 
ATOM      4  C   UNL     1       1.109  -4.865   8.271  0.00  0.00    +0.009 C 
ATOM      5  C   UNL     1       2.456  -5.624   8.193  0.00  0.00    +0.164 C 
ATOM      6  S   UNL     1       3.520  -4.463   7.243  0.00  0.00    -0.033 S 
ATOM      7  O   UNL     1       3.901  -5.080   6.021  0.00  0.00    -0.174 OA
ATOM      8  O   UNL     1       4.522  -3.943   8.105  0.00  0.00    -0.174 OA
ATOM      9  C   UNL     1       2.287  -3.141   6.888  0.00  0.00    +0.151 C 
ENDBRANCH   1   3
BRANCH   1  10
ATOM     10  C   UNL     1      -0.600  -2.459   5.987  0.00  0.00    -0.043 C 
BRANCH  10  11
ATOM     11  C   UNL     1      -1.208  -3.582   5.144  0.00  0.00    +0.135 C 
BRANCH  11  12
ATOM     12  O   UNL     1      -2.325  -4.145   5.835  0.00  0.00    -0.390 OA
ATOM     13  H   UNL     1      -3.032  -3.512   6.020  0.00  0.00    +0.210 HD
ENDBRANCH  11  12
BRANCH  11  14
ATOM     14  C   UNL     1      -1.671  -3.016   3.800  0.00  0.00    +0.258 C 
BRANCH  14  15
ATOM     15  O   UNL     1      -2.132  -4.082   2.968  0.00  0.00    -0.489 OA
BRANCH  15  21
ATOM     16  C   UNL     1      -3.037  -0.644  -0.376  0.00  0.00    +0.044 C 
ATOM     17  C   UNL     1      -3.039  -2.085   0.066  0.00  0.00    -0.047 A 
ATOM     18  C   UNL     1      -3.499  -3.068  -0.790  0.00  0.00    +0.007 A 
ATOM     19  C   UNL     1      -3.501  -4.392  -0.389  0.00  0.00    -0.047 A 
ATOM     20  C   UNL     1      -3.044  -4.734   0.869  0.00  0.00    +0.049 A 
ATOM     21  C   UNL     1      -2.582  -3.748   1.730  0.00  0.00    +0.121 A 
ATOM     22  C   UNL     1      -2.576  -2.422   1.323  0.00  0.00    +0.049 A 
ATOM     23  C   UNL     1      -4.003  -5.461  -1.324  0.00  0.00    +0.044 C 
ENDBRANCH  15  21
ENDBRANCH  14  15
ENDBRANCH  11  14
ENDBRANCH  10  11
ENDBRANCH   1  10
BRANCH   1  24
ATOM     24  C   UNL     1       0.295  -1.904   8.143  0.00  0.00    -0.042 C 
BRANCH  24  25
ATOM     25  C   UNL     1       0.601  -2.441   9.518  0.00  0.00    -0.064 A 
ATOM     26  C   UNL     1      -0.426  -2.881  10.332  0.00  0.00    +0.002 A 
ATOM     27  C   UNL     1      -0.145  -3.373  11.593  0.00  0.00    +0.004 A 
ATOM     28  C   UNL     1       1.162  -3.425  12.039  0.00  0.00    -0.042 A 
ATOM     29  C   UNL     1       2.188  -2.985  11.225  0.00  0.00    +0.004 A 
ATOM     30  C   UNL     1       1.908  -2.497   9.962  0.00  0.00    +0.002 A 
BRANCH  28  31
ATOM     31  C   UNL     1       1.467  -3.961  13.415  0.00  0.00    -0.013 C 
ATOM     32  C   UNL     1       0.984  -5.409  13.517  0.00  0.00    +0.015 C 
ATOM     33  C   UNL     1       2.977  -3.908  13.658  0.00  0.00    +0.015 C 
ATOM     34  C   UNL     1       0.751  -3.109  14.464  0.00  0.00    +0.015 C 
ENDBRANCH  28  31
ENDBRANCH  24  25
ENDBRANCH   1  24
TORSDOF 10
