REMARK  Name = ZINC09075562
REMARK  9 active torsions:
REMARK  status: ('A' for Active; 'I' for Inactive)
REMARK    1  A    between atoms: C_8  and  S_10
REMARK    2  A    between atoms: S_10  and  C_11
REMARK    3  A    between atoms: C_11  and  C_12
REMARK    4  A    between atoms: N_14  and  N_15
REMARK    5  A    between atoms: C_16  and  C_17
REMARK    6  A    between atoms: C_20  and  O_23
REMARK    7  A    between atoms: O_23  and  C_24
REMARK    8  A    between atoms: C_24  and  C_26
REMARK    9  A    between atoms: C_26  and  C_27
REMARK                            x       y       z     vdW  Elec       q    Type
REMARK                         _______ _______ _______ _____ _____    ______ ____
ROOT
ATOM      1  C   UNL     1      -7.963  11.755   0.127  0.00  0.00    -0.005 A 
ATOM      2  C   UNL     1      -7.112  12.859   0.226  0.00  0.00    +0.013 A 
ATOM      3  C   UNL     1      -7.637  14.133   0.241  0.00  0.00    +0.047 A 
ATOM      4  C   UNL     1      -9.011  14.320   0.168  0.00  0.00    +0.132 A 
ATOM      5  C   UNL     1      -9.862  13.226   0.075  0.00  0.00    +0.047 A 
ATOM      6  C   UNL     1      -9.345  11.948   0.054  0.00  0.00    +0.013 A 
ENDROOT
BRANCH   1   8
ATOM      7  N   UNL     1      -6.121  10.213   0.174  0.00  0.00    -0.188 NA
ATOM      8  C   UNL     1      -7.405  10.391   0.106  0.00  0.00    +0.138 C 
BRANCH   7  11
ATOM      9  C   UNL     1      -4.258   8.733   0.225  0.00  0.00    +0.242 C 
ATOM     10  O   UNL     1      -3.517   9.690   0.305  0.00  0.00    -0.273 OA
ATOM     11  N   UNL     1      -5.591   8.917   0.154  0.00  0.00    -0.206 N 
ATOM     12  H   UNL     1      -6.183   8.151   0.090  0.00  0.00    +0.177 HD
BRANCH   9  13
ATOM     13  C   UNL     1      -3.687   7.338   0.203  0.00  0.00    +0.173 C 
BRANCH  13  14
ATOM     14  S   UNL     1      -1.883   7.422   0.312  0.00  0.00    -0.089 S 
BRANCH  14  22
ATOM     15  C   UNL     1       1.015   1.669   0.256  0.00  0.00    +0.002 A 
ATOM     16  C   UNL     1      -0.178   0.968   0.159  0.00  0.00    +0.001 A 
ATOM     17  C   UNL     1      -1.372   1.665   0.110  0.00  0.00    +0.017 A 
ATOM     18  C   UNL     1      -1.358   3.036   0.170  0.00  0.00    +0.040 A 
ATOM     19  C   UNL     1      -0.163   3.783   0.269  0.00  0.00    +0.079 A 
ATOM     20  C   UNL     1       1.038   3.038   0.310  0.00  0.00    +0.029 A 
ATOM     21  N   UNL     1      -0.314   5.125   0.313  0.00  0.00    -0.233 NA
ATOM     22  C   UNL     1      -1.493   5.704   0.267  0.00  0.00    +0.136 A 
ATOM     23  S   UNL     1      -2.600   4.306   0.148  0.00  0.00    -0.061 S 
ENDBRANCH  14  22
ENDBRANCH  13  14
ENDBRANCH   9  13
ENDBRANCH   7  11
ENDBRANCH   1   8
BRANCH   4  24
ATOM     24  O   UNL     1      -9.526  15.577   0.188  0.00  0.00    -0.426 OA
BRANCH  24  25
ATOM     25  C   UNL     1     -10.218  15.936   1.281  0.00  0.00    +0.314 C 
ATOM     26  O   UNL     1     -10.272  15.193   2.233  0.00  0.00    -0.250 OA
BRANCH  25  27
ATOM     27  C   UNL     1     -10.927  17.265   1.322  0.00  0.00    +0.145 C 
BRANCH  27  28
ATOM     28  C   UNL     1     -11.634  17.425   2.670  0.00  0.00    +0.152 C 
ATOM     29  C   UNL     1     -12.466  18.699   2.711  0.00  0.00    +0.234 C 
ATOM     30  O   UNL     1     -13.401  18.887   1.962  0.00  0.00    -0.274 OA
ATOM     31  N   UNL     1     -12.098  19.587   3.619  0.00  0.00    -0.246 N 
ATOM     32  C   UNL     1     -11.063  19.400   4.460  0.00  0.00    +0.279 C 
ATOM     33  O   UNL     1     -10.652  20.152   5.322  0.00  0.00    -0.263 OA
ATOM     34  S   UNL     1     -10.435  17.788   4.014  0.00  0.00    -0.054 S 
ATOM     35  H   UNL     1     -12.598  20.415   3.682  0.00  0.00    +0.158 HD
ENDBRANCH  27  28
ENDBRANCH  25  27
ENDBRANCH  24  25
ENDBRANCH   4  24
TORSDOF 9
