REMARK  Name = ZINC13129755
REMARK  11 active torsions:
REMARK  status: ('A' for Active; 'I' for Inactive)
REMARK    1  A    between atoms: C_4  and  C_7
REMARK    2  A    between atoms: C_7  and  N_8
REMARK    3  A    between atoms: C_9  and  N_38
REMARK    4  A    between atoms: C_10  and  N_17
REMARK    5  A    between atoms: N_17  and  C_18
REMARK    6  A    between atoms: C_18  and  C_19
REMARK    7  A    between atoms: C_19  and  O_20
REMARK    8  A    between atoms: C_21  and  C_23
REMARK    9  A    between atoms: C_28  and  O_29
REMARK   10  A    between atoms: O_29  and  C_30
REMARK   11  A    between atoms: C_30  and  C_31
REMARK                            x       y       z     vdW  Elec       q    Type
REMARK                         _______ _______ _______ _____ _____    ______ ____
ROOT
ATOM      1  N   UNL     1       0.826   1.859  -0.307  0.00  0.00    -0.258 N 
ATOM      2  C   UNL     1      -0.171   1.347   0.443  0.00  0.00    +0.255 C 
ATOM      3  O   UNL     1      -1.018   2.083   0.912  0.00  0.00    -0.270 OA
ENDROOT
BRANCH   1   6
ATOM      4  N   UNL     1       2.819  -0.644  -2.114  0.00  0.00    -0.276 N 
ATOM      5  C   UNL     1       1.751   0.141  -1.744  0.00  0.00    +0.128 A 
ATOM      6  C   UNL     1       1.901   1.037  -0.706  0.00  0.00    +0.140 A 
ATOM      7  C   UNL     1       3.143   1.114  -0.049  0.00  0.00    +0.277 A 
ATOM      8  O   UNL     1       3.302   1.894   0.875  0.00  0.00    -0.266 OA
ATOM      9  N   UNL     1       4.156   0.319  -0.447  0.00  0.00    -0.273 N 
ATOM     10  H   UNL     1       5.039   0.373   0.020  0.00  0.00    +0.173 HD
ATOM     11  C   UNL     1       3.993  -0.545  -1.464  0.00  0.00    +0.331 A 
ATOM     12  O   UNL     1       4.924  -1.250  -1.803  0.00  0.00    -0.246 OA
BRANCH   5  13
ATOM     13  N   UNL     1       0.550   0.036  -2.405  0.00  0.00    -0.343 N 
ATOM     14  H   UNL     1      -0.176   0.642  -2.189  0.00  0.00    +0.144 HD
ATOM     15  H   UNL     1       0.429  -0.643  -3.087  0.00  0.00    +0.144 HD
ENDBRANCH   5  13
BRANCH   4  16
ATOM     16  C   UNL     1       2.676  -1.596  -3.218  0.00  0.00    +0.163 C 
BRANCH  16  20
ATOM     17  C   UNL     1       1.337  -5.354  -1.692  0.00  0.00    +0.000 A 
ATOM     18  C   UNL     1       0.416  -4.402  -2.088  0.00  0.00    +0.000 A 
ATOM     19  C   UNL     1       0.850  -3.186  -2.582  0.00  0.00    +0.005 A 
ATOM     20  C   UNL     1       2.203  -2.922  -2.679  0.00  0.00    -0.028 A 
ATOM     21  C   UNL     1       3.123  -3.876  -2.288  0.00  0.00    +0.005 A 
ATOM     22  C   UNL     1       2.690  -5.091  -1.790  0.00  0.00    +0.000 A 
ENDBRANCH  16  20
ENDBRANCH   4  16
ENDBRANCH   1   6
BRANCH   2  23
ATOM     23  C   UNL     1      -0.230  -0.105   0.700  0.00  0.00    +0.079 A 
ATOM     24  C   UNL     1       0.942  -0.866   0.705  0.00  0.00    +0.017 A 
ATOM     25  C   UNL     1       0.879  -2.221   0.946  0.00  0.00    +0.001 A 
ATOM     26  C   UNL     1      -0.341  -2.833   1.183  0.00  0.00    +0.004 A 
ATOM     27  C   UNL     1      -1.506  -2.093   1.180  0.00  0.00    +0.046 A 
ATOM     28  C   UNL     1      -1.461  -0.727   0.945  0.00  0.00    +0.133 A 
BRANCH  28  29
ATOM     29  O   UNL     1      -2.605   0.003   0.948  0.00  0.00    -0.487 OA
BRANCH  29  30
ATOM     30  C   UNL     1      -3.822  -0.700   1.206  0.00  0.00    +0.266 C 
BRANCH  30  31
ATOM     31  C   UNL     1      -4.978   0.267   1.169  0.00  0.00    +0.008 A 
ATOM     32  C   UNL     1      -4.750   1.607   0.919  0.00  0.00    +0.008 A 
ATOM     33  C   UNL     1      -5.811   2.493   0.882  0.00  0.00    +0.000 A 
ATOM     34  C   UNL     1      -7.098   2.041   1.103  0.00  0.00    +0.001 A 
ATOM     35  C   UNL     1      -7.326   0.702   1.359  0.00  0.00    +0.020 A 
ATOM     36  C   UNL     1      -6.266  -0.186   1.392  0.00  0.00    +0.047 A 
ATOM     37 CL   UNL     1      -6.552  -1.868   1.713  0.00  0.00    -0.083 Cl
ENDBRANCH  30  31
ENDBRANCH  29  30
ENDBRANCH  28  29
ENDBRANCH   2  23
BRANCH   1  38
ATOM     38  C   UNL     1       0.793   3.268  -0.706  0.00  0.00    +0.142 C 
BRANCH  38  39
ATOM     39  C   UNL     1       1.313   4.136   0.441  0.00  0.00    +0.175 C 
BRANCH  39  40
ATOM     40  O   UNL     1       2.736   4.027   0.513  0.00  0.00    -0.393 OA
ATOM     41  H   UNL     1       3.135   4.553   1.220  0.00  0.00    +0.209 HD
ENDBRANCH  39  40
ENDBRANCH  38  39
ENDBRANCH   1  38
TORSDOF 11
