REMARK  Name = ZINC59170775
REMARK  9 active torsions:
REMARK  status: ('A' for Active; 'I' for Inactive)
REMARK    1  A    between atoms: C_1  and  C_2
REMARK    2  A    between atoms: C_6  and  N_8
REMARK    3  A    between atoms: C_10  and  C_24
REMARK    4  A    between atoms: C_14  and  C_20
REMARK    5  A    between atoms: C_16  and  O_19
REMARK    6  A    between atoms: C_20  and  C_21
REMARK    7  A    between atoms: C_20  and  C_22
REMARK    8  A    between atoms: C_20  and  C_23
REMARK    9  A    between atoms: C_24  and  N_26
REMARK                            x       y       z     vdW  Elec       q    Type
REMARK                         _______ _______ _______ _____ _____    ______ ____
ROOT
ATOM      1  N   UNL     1      -0.138  -2.528   2.696  0.00  0.00    -0.325 N 
ATOM      2  C   UNL     1      -0.818  -3.654   2.670  0.00  0.00    +0.209 A 
ATOM      3  C   UNL     1      -0.669  -4.658   3.742  0.00  0.00    +0.064 A 
ATOM      4  C   UNL     1      -1.749  -5.499   3.977  0.00  0.00    +0.027 A 
ATOM      5  C   UNL     1      -2.938  -5.315   3.142  0.00  0.00    +0.022 A 
ATOM      6  C   UNL     1      -4.152  -5.927   3.478  0.00  0.00    +0.016 A 
ATOM      7  C   UNL     1      -5.251  -5.738   2.688  0.00  0.00    -0.038 A 
ATOM      8  C   UNL     1      -5.176  -4.945   1.553  0.00  0.00    +0.053 A 
ATOM      9  C   UNL     1      -3.986  -4.332   1.199  0.00  0.00    +0.160 A 
ATOM     10  C   UNL     1      -2.855  -4.513   1.989  0.00  0.00    +0.179 A 
ATOM     11  O   UNL     1      -1.682  -3.926   1.659  0.00  0.00    -0.435 OA
ATOM     12  H   UNL     1       0.400  -2.304   3.471  0.00  0.00    +0.169 HD
ENDROOT
BRANCH   1  18
ATOM     13  C   UNL     1      -0.591   2.033   0.977  0.00  0.00    +0.044 C 
ATOM     14  C   UNL     1      -0.409   0.554   0.756  0.00  0.00    -0.049 A 
ATOM     15  C   UNL     1      -0.294   0.057  -0.531  0.00  0.00    +0.003 A 
ATOM     16  C   UNL     1      -0.126  -1.300  -0.743  0.00  0.00    +0.002 A 
ATOM     17  C   UNL     1      -0.073  -2.168   0.328  0.00  0.00    +0.026 A 
ATOM     18  C   UNL     1      -0.189  -1.674   1.629  0.00  0.00    +0.042 A 
ATOM     19  C   UNL     1      -0.353  -0.301   1.836  0.00  0.00    +0.029 A 
ENDBRANCH   1  18
BRANCH   7  20
ATOM     20  C   UNL     1      -6.556  -6.398   3.053  0.00  0.00    -0.013 C 
ATOM     21  C   UNL     1      -7.002  -5.916   4.435  0.00  0.00    +0.015 C 
ATOM     22  C   UNL     1      -7.620  -6.031   2.018  0.00  0.00    +0.015 C 
ATOM     23  C   UNL     1      -6.370  -7.916   3.078  0.00  0.00    +0.015 C 
ENDBRANCH   7  20
BRANCH   9  24
ATOM     24  O   UNL     1      -3.923  -3.557   0.083  0.00  0.00    -0.503 OA
ATOM     25  H   UNL     1      -4.126  -2.625   0.239  0.00  0.00    +0.292 HD
ENDBRANCH   9  24
BRANCH   3  26
ATOM     26  C   UNL     1       0.571  -4.764   4.528  0.00  0.00    +0.082 C 
ATOM     27  S   UNL     1       1.933  -3.817   4.108  0.00  0.00    -0.035 S 
BRANCH  26  28
ATOM     28  N   UNL     1       0.633  -5.606   5.578  0.00  0.00    -0.352 N 
ATOM     29  H   UNL     1      -0.139  -6.143   5.816  0.00  0.00    +0.143 HD
ATOM     30  H   UNL     1       1.450  -5.676   6.096  0.00  0.00    +0.143 HD
ENDBRANCH  26  28
ENDBRANCH   3  26
TORSDOF 5
