REMARK  Name = ZINC09560718
REMARK  9 active torsions:
REMARK  status: ('A' for Active; 'I' for Inactive)
REMARK    1  A    between atoms: C_1  and  C_2
REMARK    2  A    between atoms: C_2  and  O_3
REMARK    3  A    between atoms: O_3  and  C_4
REMARK    4  A    between atoms: C_4  and  C_6
REMARK    5  A    between atoms: C_7  and  C_29
REMARK    6  A    between atoms: C_13  and  S_15
REMARK    7  A    between atoms: S_15  and  N_18
REMARK    8  A    between atoms: N_18  and  C_19
REMARK    9  A    between atoms: C_20  and  C_28
REMARK                            x       y       z     vdW  Elec       q    Type
REMARK                         _______ _______ _______ _____ _____    ______ ____
ROOT
ATOM      1  C   UNL     1       2.795   2.228  -3.004  0.00  0.00    +0.107 A 
ATOM      2  C   UNL     1       2.749   3.524  -3.418  0.00  0.00    +0.117 A 
ATOM      3  O   UNL     1       1.639   4.109  -2.957  0.00  0.00    -0.459 OA
ATOM      4  C   UNL     1       0.899   3.251  -2.225  0.00  0.00    +0.138 A 
ATOM      5  C   UNL     1       1.571   2.020  -2.205  0.00  0.00    +0.035 A 
ATOM      6  C   UNL     1       1.034   0.939  -1.515  0.00  0.00    +0.014 A 
ATOM      7  C   UNL     1      -0.166   1.082  -0.850  0.00  0.00    +0.029 A 
ATOM      8  C   UNL     1      -0.832   2.297  -0.868  0.00  0.00    +0.112 A 
ATOM      9  C   UNL     1      -0.308   3.376  -1.549  0.00  0.00    +0.075 A 
ATOM     10  C   UNL     1       3.794   4.198  -4.270  0.00  0.00    +0.087 C 
ENDROOT
BRANCH   8  11
ATOM     11  S   UNL     1      -2.368   2.463  -0.020  0.00  0.00    +0.073 S 
ATOM     12  O   UNL     1      -2.815   3.793  -0.246  0.00  0.00    -0.150 OA
ATOM     13  O   UNL     1      -3.148   1.327  -0.366  0.00  0.00    -0.150 OA
BRANCH  11  14
ATOM     14  N   UNL     1      -2.047   2.341   1.600  0.00  0.00    -0.214 N 
ATOM     15  H   UNL     1      -2.059   1.473   2.033  0.00  0.00    +0.174 HD
BRANCH  14  16
ATOM     16  C   UNL     1      -1.760   3.485   2.342  0.00  0.00    +0.079 A 
ATOM     17  C   UNL     1      -2.075   3.537   3.666  0.00  0.00    -0.026 A 
ATOM     18  C   UNL     1      -1.796   4.664   4.436  0.00  0.00    +0.007 A 
ATOM     19  C   UNL     1      -1.210   5.762   3.902  0.00  0.00    +0.031 A 
ATOM     20  C   UNL     1      -0.858   5.785   2.526  0.00  0.00    +0.102 A 
ATOM     21  C   UNL     1      -1.141   4.606   1.716  0.00  0.00    +0.122 A 
ATOM     22  N   UNL     1      -0.760   4.764   0.451  0.00  0.00    -0.189 NA
ATOM     23  S   UNL     1      -0.143   6.202   0.356  0.00  0.00    +0.117 S 
ATOM     24  N   UNL     1      -0.281   6.753   1.817  0.00  0.00    -0.191 NA
ATOM     25  C   UNL     1      -2.734   2.346   4.314  0.00  0.00    +0.046 C 
ENDBRANCH  14  16
ENDBRANCH  11  14
ENDBRANCH   8  11
BRANCH   1  26
ATOM     26  C   UNL     1       3.845   1.241  -3.292  0.00  0.00    +0.343 C 
ATOM     27  O   UNL     1       3.763   0.536  -4.279  0.00  0.00    -0.245 OA
BRANCH  26  28
ATOM     28  O   UNL     1       4.899   1.116  -2.461  0.00  0.00    -0.461 OA
BRANCH  28  30
ATOM     29  C   UNL     1       7.009   0.126  -1.756  0.00  0.00    +0.048 C 
ATOM     30  C   UNL     1       5.898   0.121  -2.807  0.00  0.00    +0.229 C 
ENDBRANCH  28  30
ENDBRANCH  26  28
ENDBRANCH   1  26
TORSDOF 6
