REMARK  Name = ZINC33620988
REMARK  12 active torsions:
REMARK  status: ('A' for Active; 'I' for Inactive)
REMARK    1  A    between atoms: C_1  and  C_2
REMARK    2  A    between atoms: C_2  and  C_4
REMARK    3  A    between atoms: C_2  and  N_17
REMARK    4  A    between atoms: N_14  and  C_15
REMARK    5  A    between atoms: N_17  and  C_18
REMARK    6  A    between atoms: C_18  and  C_19
REMARK    7  A    between atoms: C_19  and  C_20
REMARK    8  A    between atoms: C_20  and  C_21
REMARK    9  A    between atoms: C_21  and  C_22
REMARK   10  A    between atoms: C_22  and  C_23
REMARK   11  A    between atoms: C_23  and  N_24
REMARK   12  A    between atoms: C_25  and  C_27
REMARK                            x       y       z     vdW  Elec       q    Type
REMARK                         _______ _______ _______ _____ _____    ______ ____
ROOT
ATOM      1  N   UNL     1       2.857  -3.170  -0.407  0.00  0.00    -0.288 N 
ATOM      2  C   UNL     1       2.305  -2.832  -1.589  0.00  0.00    +0.247 C 
ATOM      3  O   UNL     1       2.995  -2.347  -2.465  0.00  0.00    -0.270 OA
ENDROOT
BRANCH   2   4
ATOM      4  C   UNL     1       0.862  -3.051  -1.822  0.00  0.00    +0.037 A 
ATOM      5  C   UNL     1       0.142  -2.175  -2.636  0.00  0.00    +0.014 A 
ATOM      6  C   UNL     1      -1.204  -2.385  -2.848  0.00  0.00    +0.016 A 
ATOM      7  C   UNL     1      -1.842  -3.462  -2.256  0.00  0.00    +0.018 A 
ATOM      8  C   UNL     1      -1.133  -4.334  -1.447  0.00  0.00    +0.016 A 
ATOM      9  C   UNL     1       0.213  -4.135  -1.227  0.00  0.00    +0.014 A 
ATOM     10 BR   UNL     1      -3.689  -3.741  -2.552  0.00  0.00    -0.050 Br
ENDBRANCH   2   4
BRANCH   1  12
ATOM     11  C   UNL     1       1.302  -4.469   0.964  0.00  0.00    +0.036 C 
ATOM     12  C   UNL     1       2.607  -4.495   0.165  0.00  0.00    +0.139 C 
BRANCH  12  13
ATOM     13  C   UNL     1       2.496  -5.509  -0.944  0.00  0.00    +0.133 A 
ATOM     14  N   UNL     1       1.559  -6.404  -0.870  0.00  0.00    -0.232 NA
ATOM     15  C   UNL     1       1.399  -7.348  -1.831  0.00  0.00    +0.080 A 
ATOM     16  C   UNL     1       0.391  -8.311  -1.753  0.00  0.00    +0.048 A 
ATOM     17  C   UNL     1       0.269  -9.249  -2.756  0.00  0.00    +0.043 A 
ATOM     18  C   UNL     1       1.136  -9.246  -3.842  0.00  0.00    +0.021 A 
ATOM     19  C   UNL     1       2.131  -8.313  -3.939  0.00  0.00    +0.017 A 
ATOM     20  C   UNL     1       2.276  -7.354  -2.939  0.00  0.00    +0.065 A 
ATOM     21  C   UNL     1       3.326  -6.326  -2.993  0.00  0.00    +0.262 A 
ATOM     22  O   UNL     1       4.114  -6.275  -3.919  0.00  0.00    -0.267 OA
ATOM     23  N   UNL     1       3.379  -5.436  -1.974  0.00  0.00    -0.298 N 
ATOM     24  C   UNL     1       4.403  -4.388  -1.980  0.00  0.00    +0.154 C 
ATOM     25 CL   UNL     1      -0.984 -10.447  -2.661  0.00  0.00    -0.083 Cl
ENDBRANCH  12  13
ENDBRANCH   1  12
BRANCH   1  26
ATOM     26  C   UNL     1       3.706  -2.213   0.306  0.00  0.00    +0.109 C 
BRANCH  26  27
ATOM     27  C   UNL     1       2.829  -1.273   1.136  0.00  0.00    +0.019 C 
BRANCH  27  28
ATOM     28  C   UNL     1       3.716  -0.273   1.881  0.00  0.00    +0.001 C 
BRANCH  28  29
ATOM     29  C   UNL     1       2.839   0.666   2.712  0.00  0.00    -0.002 C 
BRANCH  29  30
ATOM     30  C   UNL     1       3.725   1.666   3.456  0.00  0.00    -0.020 C 
BRANCH  30  31
ATOM     31  C   UNL     1       2.849   2.606   4.287  0.00  0.00    -0.086 C 
BRANCH  31  32
ATOM     32  N   UNL     1       3.700   3.566   5.002  0.00  0.00    +0.378 N 
ATOM     33  H   UNL     1       3.069   4.241   5.599  0.00  0.00    -0.090 HD
ATOM     34  H   UNL     1       4.280   4.153   4.275  0.00  0.00    -0.090 HD
ATOM     35  H   UNL     1       4.387   3.022   5.666  0.00  0.00    -0.090 HD
ENDBRANCH  31  32
ENDBRANCH  30  31
ENDBRANCH  29  30
ENDBRANCH  28  29
ENDBRANCH  27  28
ENDBRANCH  26  27
ENDBRANCH   1  26
TORSDOF 10
