REMARK  Name = ZINC09329737
REMARK  7 active torsions:
REMARK  status: ('A' for Active; 'I' for Inactive)
REMARK    1  A    between atoms: C_4  and  O_7
REMARK    2  A    between atoms: O_7  and  C_8
REMARK    3  A    between atoms: C_11  and  N_14
REMARK    4  A    between atoms: N_17  and  C_18
REMARK    5  A    between atoms: C_20  and  C_25
REMARK    6  A    between atoms: C_25  and  S_26
REMARK    7  A    between atoms: S_26  and  C_27
REMARK                            x       y       z     vdW  Elec       q    Type
REMARK                         _______ _______ _______ _____ _____    ______ ____
ROOT
ATOM      1  N   UNL     1       3.789  -6.175   0.154  0.00  0.00    -0.326 N 
ATOM      2  C   UNL     1       5.043  -6.716   0.265  0.00  0.00    +0.203 C 
ATOM      3  N   UNL     1       6.147  -5.923   0.102  0.00  0.00    -0.369 N 
ATOM      4  N   UNL     1       5.186  -7.998   0.529  0.00  0.00    -0.177 NA
ATOM      5  H   UNL     1       6.057  -4.957   0.108  0.00  0.00    +0.159 HD
ATOM      6  H   UNL     1       7.021  -6.327  -0.020  0.00  0.00    +0.159 HD
ATOM      7  H   UNL     1       3.009  -6.711   0.366  0.00  0.00    +0.169 HD
ENDROOT
BRANCH   4   8
ATOM      8  C   UNL     1       4.118  -8.836   0.430  0.00  0.00    +0.257 A 
ATOM      9  N   UNL     1       4.238 -10.094   0.846  0.00  0.00    -0.215 NA
ATOM     10  C   UNL     1       3.220 -10.935   0.764  0.00  0.00    +0.061 A 
ATOM     11  C   UNL     1       2.018 -10.496   0.239  0.00  0.00    +0.096 A 
ATOM     12  C   UNL     1       1.920  -9.172  -0.189  0.00  0.00    +0.275 A 
ATOM     13  N   UNL     1       2.976  -8.377  -0.076  0.00  0.00    -0.172 NA
ATOM     14  O   UNL     1       0.760  -8.703  -0.709  0.00  0.00    -0.266 OA
BRANCH  10  15
ATOM     15  C   UNL     1       3.369 -12.358   1.238  0.00  0.00    +0.132 C 
BRANCH  15  16
ATOM     16  S   UNL     1       2.917 -12.462   2.992  0.00  0.00    -0.093 S 
BRANCH  16  17
ATOM     17  C   UNL     1       3.141 -14.164   3.390  0.00  0.00    +0.136 A 
ATOM     18  N   UNL     1       3.546 -15.145   2.615  0.00  0.00    -0.233 NA
ATOM     19  C   UNL     1       3.672 -16.415   3.059  0.00  0.00    +0.079 A 
ATOM     20  C   UNL     1       4.093 -17.555   2.336  0.00  0.00    +0.029 A 
ATOM     21  C   UNL     1       4.166 -18.781   2.943  0.00  0.00    +0.002 A 
ATOM     22  C   UNL     1       3.832 -18.950   4.279  0.00  0.00    +0.001 A 
ATOM     23  C   UNL     1       3.416 -17.857   5.016  0.00  0.00    +0.017 A 
ATOM     24  C   UNL     1       3.340 -16.625   4.417  0.00  0.00    +0.040 A 
ATOM     25  S   UNL     1       2.881 -14.993   4.951  0.00  0.00    -0.061 S 
ENDBRANCH  16  17
ENDBRANCH  15  16
ENDBRANCH  10  15
ENDBRANCH   4   8
BRANCH   1  29
ATOM     26  C   UNL     1       3.327  -2.223  -1.093  0.00  0.00    +0.129 A 
ATOM     27  C   UNL     1       2.400  -2.791  -0.231  0.00  0.00    +0.048 A 
ATOM     28  C   UNL     1       2.552  -4.100   0.182  0.00  0.00    +0.029 A 
ATOM     29  C   UNL     1       3.634  -4.847  -0.265  0.00  0.00    +0.042 A 
ATOM     30  C   UNL     1       4.561  -4.278  -1.127  0.00  0.00    +0.029 A 
ATOM     31  C   UNL     1       4.405  -2.971  -1.544  0.00  0.00    +0.048 A 
BRANCH  26  32
ATOM     32  O   UNL     1       3.177  -0.934  -1.499  0.00  0.00    -0.456 OA
BRANCH  32  36
ATOM     33  C   UNL     1       4.141   2.063   1.167  0.00  0.00    +0.000 A 
ATOM     34  C   UNL     1       3.773   2.382  -0.127  0.00  0.00    +0.004 A 
ATOM     35  C   UNL     1       3.450   1.381  -1.022  0.00  0.00    +0.046 A 
ATOM     36  C   UNL     1       3.494   0.053  -0.621  0.00  0.00    +0.128 A 
ATOM     37  C   UNL     1       3.864  -0.265   0.678  0.00  0.00    +0.046 A 
ATOM     38  C   UNL     1       4.186   0.740   1.569  0.00  0.00    +0.004 A 
ENDBRANCH  32  36
ENDBRANCH  26  32
ENDBRANCH   1  29
TORSDOF 7
