REMARK  Name = ZINC38062531
REMARK  5 active torsions:
REMARK  status: ('A' for Active; 'I' for Inactive)
REMARK    1  A    between atoms: C_2  and  N_21
REMARK    2  A    between atoms: C_5  and  S_8
REMARK    3  A    between atoms: S_8  and  N_11
REMARK    4  A    between atoms: N_11  and  C_12
REMARK    5  A    between atoms: C_12  and  C_13
REMARK                            x       y       z     vdW  Elec       q    Type
REMARK                         _______ _______ _______ _____ _____    ______ ____
ROOT
ATOM      1  S   UNL     1       1.229  -2.443  -0.023  0.00  0.00    +0.061 S 
ATOM      2  O   UNL     1      -0.017  -2.860  -0.564  0.00  0.00    -0.153 OA
ATOM      3  O   UNL     1       2.473  -2.832  -0.588  0.00  0.00    -0.153 OA
ENDROOT
BRANCH   1   8
ATOM      4  C   UNL     1      -0.017   1.378   0.010  0.00  0.00    +0.040 A 
ATOM      5  C   UNL     1       1.177   2.087   0.002  0.00  0.00    +0.027 A 
ATOM      6  C   UNL     1       2.387   1.405  -0.013  0.00  0.00    +0.040 A 
ATOM      7  C   UNL     1       2.400   0.023  -0.021  0.00  0.00    +0.047 A 
ATOM      8  C   UNL     1       1.209  -0.681  -0.013  0.00  0.00    +0.133 A 
ATOM      9  C   UNL     1       0.002  -0.004   0.002  0.00  0.00    +0.047 A 
ATOM     10 BR   UNL     1      -1.623  -0.971   0.013  0.00  0.00    -0.048 Br
ATOM     11 BR   UNL     1       4.046  -0.906  -0.042  0.00  0.00    -0.048 Br
BRANCH   5  12
ATOM     12  N   UNL     1       1.162   3.484   0.009  0.00  0.00    -0.358 N 
ATOM     13  H   UNL     1       0.316   3.959   0.019  0.00  0.00    +0.142 HD
ATOM     14  H   UNL     1       1.996   3.978   0.004  0.00  0.00    +0.142 HD
ENDBRANCH   5  12
ENDBRANCH   1   8
BRANCH   1  15
ATOM     15  N   UNL     1       1.249  -2.941   1.556  0.00  0.00    -0.187 NA
ATOM     16  H   UNL     1       2.019  -3.417   1.905  0.00  0.00    +0.148 HD
BRANCH  15  17
ATOM     17  C   UNL     1       0.104  -2.663   2.427  0.00  0.00    +0.139 C 
BRANCH  17  18
ATOM     18  C   UNL     1       0.200  -3.527   3.686  0.00  0.00    +0.159 C 
ATOM     19  C   UNL     1      -1.056  -3.328   4.540  0.00  0.00    +0.192 C 
ATOM     20  O   UNL     1      -0.910  -4.051   5.765  0.00  0.00    -0.375 OA
ATOM     21  C   UNL     1       0.239  -3.665   6.525  0.00  0.00    +0.188 C 
ATOM     22  C   UNL     1       1.495  -3.865   5.671  0.00  0.00    +0.188 C 
ATOM     23  O   UNL     1       1.350  -3.142   4.444  0.00  0.00    -0.371 OA
ENDBRANCH  17  18
ENDBRANCH  15  17
ENDBRANCH   1  15
TORSDOF 5
