REMARK  Name = ZINC13059281
REMARK  8 active torsions:
REMARK  status: ('A' for Active; 'I' for Inactive)
REMARK    1  A    between atoms: C_1  and  C_2
REMARK    2  A    between atoms: C_4  and  C_14
REMARK    3  A    between atoms: C_5  and  C_13
REMARK    4  A    between atoms: N_6  and  C_7
REMARK    5  A    between atoms: C_7  and  C_8
REMARK    6  A    between atoms: C_14  and  C_16
REMARK    7  A    between atoms: C_16  and  N_17
REMARK    8  A    between atoms: C_28  and  C_32
REMARK                            x       y       z     vdW  Elec       q    Type
REMARK                         _______ _______ _______ _____ _____    ______ ____
ROOT
ATOM      1  C   UNL     1       2.424   1.016  -0.014  0.00  0.00    +0.205 C 
ENDROOT
BRANCH   1   2
ATOM      2  N   UNL     1       1.161   1.759   0.000  0.00  0.00    -0.291 N 
ATOM      3  C   UNL     1      -0.013   1.076   0.008  0.00  0.00    +0.203 A 
ATOM      4  N   UNL     1      -1.159   1.702   0.017  0.00  0.00    -0.230 NA
ATOM      5  C   UNL     1      -1.212   3.031   0.029  0.00  0.00    +0.116 A 
ATOM      6  C   UNL     1      -0.052   3.822   0.021  0.00  0.00    +0.076 A 
ATOM      7  C   UNL     1       1.188   3.105   0.006  0.00  0.00    +0.263 A 
ATOM      8  O   UNL     1       2.250   3.703  -0.000  0.00  0.00    -0.267 OA
ATOM      9  C   UNL     1      -0.265   5.269   0.029  0.00  0.00    -0.023 A 
ATOM     10  C   UNL     1      -1.544   5.700   0.044  0.00  0.00    -0.004 A 
ATOM     11  S   UNL     1      -2.526   4.224   0.047  0.00  0.00    -0.073 S 
ATOM     12  C   UNL     1      -2.024   7.119   0.053  0.00  0.00    +0.046 C 
ATOM     13  C   UNL     1      -0.850   8.030  -0.332  0.00  0.00    -0.009 C 
ATOM     14  C   UNL     1       0.376   7.625   0.492  0.00  0.00    +0.008 C 
ATOM     15  C   UNL     1       0.892   6.264   0.022  0.00  0.00    +0.037 C 
ATOM     16  C   UNL     1      -1.210   9.487  -0.033  0.00  0.00    +0.008 C 
ENDBRANCH   1   2
BRANCH   1  17
ATOM     17  C   UNL     1       2.844   0.767  -1.440  0.00  0.00    +0.184 C 
ATOM     18  O   UNL     1       2.156   1.171  -2.354  0.00  0.00    -0.290 OA
BRANCH  17  22
ATOM     19  C   UNL     1       7.208  -1.799  -0.866  0.00  0.00    +0.063 C 
ATOM     20  C   UNL     1       6.010  -1.095  -1.450  0.00  0.00    +0.017 A 
ATOM     21  C   UNL     1       5.029  -0.511  -0.742  0.00  0.00    +0.034 A 
ATOM     22  C   UNL     1       4.082   0.038  -1.722  0.00  0.00    +0.040 A 
ATOM     23  C   UNL     1       4.603  -0.270  -2.964  0.00  0.00    +0.027 A 
ATOM     24  N   UNL     1       5.752  -0.945  -2.781  0.00  0.00    -0.340 N 
ATOM     25  C   UNL     1       3.990   0.088  -4.293  0.00  0.00    +0.064 C 
BRANCH  24  26
ATOM     26  C   UNL     1       6.606  -1.448  -3.860  0.00  0.00    +0.196 C 
BRANCH  26  27
ATOM     27  C   UNL     1       7.619  -0.396  -4.231  0.00  0.00    +0.124 A 
ATOM     28  C   UNL     1       8.838  -0.250  -3.683  0.00  0.00    +0.046 A 
ATOM     29  C   UNL     1       9.447   0.852  -4.327  0.00  0.00    +0.041 A 
ATOM     30  C   UNL     1       8.560   1.318  -5.224  0.00  0.00    +0.195 A 
ATOM     31  O   UNL     1       7.455   0.558  -5.162  0.00  0.00    -0.466 OA
ENDBRANCH  26  27
ENDBRANCH  24  26
ENDBRANCH  17  22
ENDBRANCH   1  17
TORSDOF 5
