REMARK  Name = ZINC02128854
REMARK  8 active torsions:
REMARK  status: ('A' for Active; 'I' for Inactive)
REMARK    1  A    between atoms: C_1  and  C_2
REMARK    2  A    between atoms: C_2  and  O_3
REMARK    3  A    between atoms: O_3  and  C_4
REMARK    4  A    between atoms: C_13  and  C_15
REMARK    5  A    between atoms: C_24  and  O_35
REMARK    6  A    between atoms: C_25  and  C_26
REMARK    7  A    between atoms: C_26  and  N_27
REMARK    8  A    between atoms: C_31  and  C_34
REMARK                            x       y       z     vdW  Elec       q    Type
REMARK                         _______ _______ _______ _____ _____    ______ ____
ROOT
ATOM      1  C   UNL     1       3.642  -3.863  -5.737  0.00  0.00    +0.006 A 
ATOM      2  C   UNL     1       2.965  -4.491  -6.770  0.00  0.00    +0.101 A 
ATOM      3  C   UNL     1       3.676  -4.930  -7.896  0.00  0.00    +0.338 A 
ATOM      4  O   UNL     1       3.072  -5.481  -8.800  0.00  0.00    -0.245 OA
ATOM      5  O   UNL     1       5.003  -4.761  -8.006  0.00  0.00    -0.422 OA
ATOM      6  C   UNL     1       5.730  -4.159  -7.040  0.00  0.00    +0.144 A 
ATOM      7  C   UNL     1       5.098  -3.682  -5.880  0.00  0.00    +0.026 A 
ATOM      8  C   UNL     1       5.845  -3.053  -4.882  0.00  0.00    +0.016 A 
ATOM      9  C   UNL     1       7.193  -2.897  -5.039  0.00  0.00    +0.046 A 
ATOM     10  C   UNL     1       7.826  -3.362  -6.189  0.00  0.00    +0.122 A 
ATOM     11  C   UNL     1       7.100  -3.998  -7.183  0.00  0.00    +0.020 A 
ENDROOT
BRANCH   1  21
ATOM     12  C   UNL     1       0.777  -1.811  -1.336  0.00  0.00    +0.163 A 
ATOM     13  C   UNL     1       0.245  -2.669  -0.390  0.00  0.00    +0.049 A 
ATOM     14  C   UNL     1       0.342  -4.043  -0.550  0.00  0.00    +0.004 A 
ATOM     15  C   UNL     1       0.975  -4.574  -1.638  0.00  0.00    +0.012 A 
ATOM     16  C   UNL     1       1.545  -3.725  -2.598  0.00  0.00    +0.022 A 
ATOM     17  C   UNL     1       1.416  -2.331  -2.459  0.00  0.00    +0.180 A 
ATOM     18  O   UNL     1       1.897  -1.504  -3.419  0.00  0.00    -0.418 OA
ATOM     19  C   UNL     1       2.934  -1.962  -4.157  0.00  0.00    +0.345 A 
ATOM     20  O   UNL     1       3.840  -1.223  -4.496  0.00  0.00    -0.245 OA
ATOM     21  C   UNL     1       2.929  -3.387  -4.537  0.00  0.00    +0.068 A 
ATOM     22  C   UNL     1       2.237  -4.261  -3.716  0.00  0.00    +0.027 A 
BRANCH  12  23
ATOM     23  O   UNL     1       0.671  -0.465  -1.174  0.00  0.00    -0.489 OA
BRANCH  23  25
ATOM     24  C   UNL     1      -0.019   1.526   0.010  0.00  0.00    +0.048 C 
ATOM     25  C   UNL     1       0.002  -0.004   0.002  0.00  0.00    +0.226 C 
ENDBRANCH  23  25
ENDBRANCH  12  23
ENDBRANCH   1  21
BRANCH  10  26
ATOM     26  O   UNL     1       9.166  -3.201  -6.332  0.00  0.00    -0.506 OA
ATOM     27  H   UNL     1       9.691  -3.935  -5.983  0.00  0.00    +0.292 HD
ENDBRANCH  10  26
BRANCH  11  28
ATOM     28  C   UNL     1       7.794  -4.497  -8.424  0.00  0.00    -0.036 C 
BRANCH  28  29
ATOM     29  N   UNL     1       7.813  -3.433  -9.436  0.00  0.00    +0.383 N 
ATOM     30  C   UNL     1       8.627  -2.312  -8.950  0.00  0.00    -0.078 C 
ATOM     31  C   UNL     1       8.584  -1.168  -9.965  0.00  0.00    -0.018 C 
ATOM     32  C   UNL     1       9.139  -1.660 -11.305  0.00  0.00    -0.001 C 
ATOM     33  C   UNL     1       8.329  -2.876 -11.766  0.00  0.00    -0.031 C 
ATOM     34  C   UNL     1       8.382  -3.957 -10.684  0.00  0.00    -0.075 C 
ATOM     35  C   UNL     1       8.924  -3.423 -13.065  0.00  0.00    +0.005 C 
ATOM     36  H   UNL     1       6.871  -3.114  -9.605  0.00  0.00    -0.081 HD
ENDBRANCH  28  29
ENDBRANCH  11  28
TORSDOF 6
