REMARK  Name = ZINC23044357
REMARK  11 active torsions:
REMARK  status: ('A' for Active; 'I' for Inactive)
REMARK    1  A    between atoms: C_1  and  C_2
REMARK    2  A    between atoms: C_2  and  C_3
REMARK    3  A    between atoms: C_3  and  N_4
REMARK    4  A    between atoms: C_8  and  S_30
REMARK    5  A    between atoms: C_12  and  S_13
REMARK    6  A    between atoms: S_13  and  C_14
REMARK    7  A    between atoms: C_14  and  C_16
REMARK    8  A    between atoms: C_14  and  C_17
REMARK    9  A    between atoms: C_17  and  C_19
REMARK   10  A    between atoms: C_20  and  C_29
REMARK   11  A    between atoms: S_30  and  N_33
REMARK                            x       y       z     vdW  Elec       q    Type
REMARK                         _______ _______ _______ _____ _____    ______ ____
ROOT
ATOM      1  N   UNL     1       2.472   3.622  -0.120  0.00  0.00    -0.319 N 
ATOM      2  C   UNL     1       1.151   3.212  -0.056  0.00  0.00    +0.070 A 
ATOM      3  C   UNL     1      -0.064   3.880  -0.059  0.00  0.00    +0.030 A 
ATOM      4  C   UNL     1      -1.242   3.165   0.019  0.00  0.00    +0.030 A 
ATOM      5  C   UNL     1      -1.219   1.780   0.096  0.00  0.00    +0.107 A 
ATOM      6  C   UNL     1      -0.021   1.100   0.106  0.00  0.00    +0.058 A 
ATOM      7  C   UNL     1       1.180   1.810   0.028  0.00  0.00    +0.092 A 
ATOM      8  N   UNL     1       2.486   1.435   0.011  0.00  0.00    -0.222 NA
ATOM      9  C   UNL     1       3.248   2.497  -0.076  0.00  0.00    +0.171 A 
ENDROOT
BRANCH   5  10
ATOM     10  S   UNL     1      -2.733   0.884   0.188  0.00  0.00    +0.056 S 
ATOM     11  O   UNL     1      -3.732   1.715  -0.389  0.00  0.00    -0.153 OA
ATOM     12  O   UNL     1      -2.461  -0.425  -0.293  0.00  0.00    -0.153 OA
BRANCH  10  13
ATOM     13  N   UNL     1      -3.114   0.730   1.792  0.00  0.00    -0.204 NA
ATOM     14  H   UNL     1      -4.058   0.173   1.892  0.00  0.00    +0.144 HD
ATOM     15  H   UNL     1      -3.228   1.728   2.240  0.00  0.00    +0.144 HD
ENDBRANCH  10  13
ENDBRANCH   5  10
BRANCH   1  16
ATOM     16  C   UNL     1       2.950   5.003  -0.217  0.00  0.00    +0.124 C 
BRANCH  16  18
ATOM     17  C   UNL     1       3.572   6.840  -1.792  0.00  0.00    +0.005 C 
ATOM     18  C   UNL     1       3.074   5.397  -1.690  0.00  0.00    +0.018 C 
ENDBRANCH  16  18
ENDBRANCH   1  16
BRANCH   9  19
ATOM     19  S   UNL     1       5.009   2.479  -0.127  0.00  0.00    -0.077 S 
BRANCH  19  20
ATOM     20  C   UNL     1       5.308   0.697  -0.028  0.00  0.00    +0.122 C 
ATOM     21  C   UNL     1       4.752   0.016  -1.281  0.00  0.00    +0.028 C 
BRANCH  20  22
ATOM     22  C   UNL     1       6.790   0.441   0.067  0.00  0.00    +0.178 C 
ATOM     23  O   UNL     1       7.575   1.243  -0.394  0.00  0.00    -0.291 OA
BRANCH  22  24
ATOM     24  C   UNL     1       7.266  -0.737   0.695  0.00  0.00    +0.046 A 
ATOM     25  C   UNL     1       7.475  -0.930   2.044  0.00  0.00    +0.024 A 
ATOM     26  N   UNL     1       7.932  -2.179   2.257  0.00  0.00    -0.358 N 
ATOM     27  H   UNL     1       8.157  -2.515   3.280  0.00  0.00    +0.166 HD
ATOM     28  C   UNL     1       8.046  -2.867   1.066  0.00  0.00    +0.047 A 
ATOM     29  C   UNL     1       7.633  -2.007   0.037  0.00  0.00    +0.010 A 
ATOM     30  C   UNL     1       7.649  -2.440  -1.286  0.00  0.00    +0.011 A 
ATOM     31  C   UNL     1       8.064  -3.722  -1.578  0.00  0.00    +0.001 A 
ATOM     32  C   UNL     1       8.468  -4.575  -0.562  0.00  0.00    +0.002 A 
ATOM     33  C   UNL     1       8.461  -4.156   0.751  0.00  0.00    +0.026 A 
ATOM     34  C   UNL     1       7.229   0.100   3.116  0.00  0.00    +0.064 C 
ENDBRANCH  22  24
ENDBRANCH  20  22
ENDBRANCH  19  20
ENDBRANCH   9  19
TORSDOF 8
