REMARK  Name = ZINC51530136
REMARK  9 active torsions:
REMARK  status: ('A' for Active; 'I' for Inactive)
REMARK    1  A    between atoms: C_1  and  C_2
REMARK    2  A    between atoms: N_7  and  C_10
REMARK    3  A    between atoms: C_12  and  C_13
REMARK    4  A    between atoms: N_15  and  C_16
REMARK    5  A    between atoms: C_16  and  C_17
REMARK    6  A    between atoms: C_17  and  C_19
REMARK    7  A    between atoms: C_17  and  N_24
REMARK    8  A    between atoms: N_24  and  C_25
REMARK    9  A    between atoms: N_24  and  C_26
REMARK                            x       y       z     vdW  Elec       q    Type
REMARK                         _______ _______ _______ _____ _____    ______ ____
ROOT
ATOM      1  C   UNL     1       0.651   0.059   3.037  0.00  0.00    +0.251 C 
ATOM      2  O   UNL     1       0.547   1.238   3.317  0.00  0.00    -0.270 OA
ATOM      3  N   UNL     1       0.477  -0.878   3.990  0.00  0.00    -0.312 N 
ATOM      4  H   UNL     1       0.560  -1.819   3.767  0.00  0.00    +0.149 HD
ENDROOT
BRANCH   1  16
ATOM      5  C   UNL     1       1.092   1.946   0.698  0.00  0.00    +0.046 C 
ATOM      6  C   UNL     1       1.174   0.447   0.571  0.00  0.00    -0.017 A 
ATOM      7  C   UNL     1       1.470  -0.136  -0.663  0.00  0.00    +0.076 A 
ATOM      8  C   UNL     1       1.525  -1.548  -0.680  0.00  0.00    +0.116 A 
ATOM      9  N   UNL     1       1.796  -2.226  -1.788  0.00  0.00    -0.230 NA
ATOM     10  C   UNL     1       2.026  -1.620  -2.921  0.00  0.00    +0.203 A 
ATOM     11  N   UNL     1       2.001  -0.269  -3.029  0.00  0.00    -0.302 N 
ATOM     12  C   UNL     1       1.737   0.515  -1.966  0.00  0.00    +0.262 A 
ATOM     13  O   UNL     1       1.717   1.729  -2.074  0.00  0.00    -0.267 OA
ATOM     14  C   UNL     1       2.268   0.352  -4.329  0.00  0.00    +0.153 C 
ATOM     15  S   UNL     1       1.166  -1.990   1.002  0.00  0.00    -0.064 S 
ATOM     16  C   UNL     1       0.965  -0.344   1.663  0.00  0.00    +0.079 A 
ENDBRANCH   1  16
BRANCH   3  17
ATOM     17  C   UNL     1       0.163  -0.476   5.364  0.00  0.00    +0.097 C 
BRANCH  17  18
ATOM     18  C   UNL     1      -0.108  -1.722   6.210  0.00  0.00    +0.016 C 
BRANCH  18  19
ATOM     19  C   UNL     1       1.154  -2.538   6.323  0.00  0.00    +0.093 A 
ATOM     20  C   UNL     1       1.990  -2.552   7.376  0.00  0.00    +0.043 A 
ATOM     21  C   UNL     1       3.035  -3.449   7.058  0.00  0.00    +0.041 A 
ATOM     22  C   UNL     1       2.775  -3.929   5.828  0.00  0.00    +0.195 A 
ATOM     23  O   UNL     1       1.631  -3.378   5.391  0.00  0.00    -0.469 OA
ENDBRANCH  18  19
BRANCH  18  24
ATOM     24  N   UNL     1      -1.157  -2.528   5.572  0.00  0.00    +0.384 N 
ATOM     25  C   UNL     1      -1.411  -3.729   6.380  0.00  0.00    -0.096 C 
ATOM     26  C   UNL     1      -2.390  -1.736   5.471  0.00  0.00    -0.096 C 
ATOM     27  H   UNL     1      -0.856  -2.802   4.649  0.00  0.00    -0.082 HD
ENDBRANCH  18  24
ENDBRANCH  17  18
ENDBRANCH   3  17
TORSDOF 5
