REMARK  Name = ZINC09496804
REMARK  8 active torsions:
REMARK  status: ('A' for Active; 'I' for Inactive)
REMARK    1  A    between atoms: C_1  and  C_2
REMARK    2  A    between atoms: C_5  and  C_7
REMARK    3  A    between atoms: N_8  and  N_9
REMARK    4  A    between atoms: C_10  and  C_12
REMARK    5  A    between atoms: C_13  and  C_23
REMARK    6  A    between atoms: C_23  and  N_63
REMARK    7  A    between atoms: C_26  and  C_29
REMARK    8  A    between atoms: C_29  and  C_30
REMARK                            x       y       z     vdW  Elec       q    Type
REMARK                         _______ _______ _______ _____ _____    ______ ____
ROOT
ATOM      1  C   UNL     1       2.434   0.936  -0.016  0.00  0.00    +0.170 A 
ATOM      2  C   UNL     1       3.672   1.513  -0.025  0.00  0.00    +0.063 A 
ATOM      3  N   UNL     1       4.573   0.505  -0.039  0.00  0.00    -0.194 N 
ATOM      4  N   UNL     1       3.841  -0.691  -0.038  0.00  0.00    -0.058 NA
ATOM      5  N   UNL     1       2.587  -0.400  -0.019  0.00  0.00    -0.124 NA
ATOM      6  C   UNL     1       5.966   0.632  -0.052  0.00  0.00    +0.240 A 
ATOM      7  C   UNL     1       6.928  -0.474  -0.067  0.00  0.00    +0.206 A 
ATOM      8  N   UNL     1       8.132   0.029  -0.076  0.00  0.00    -0.032 NA
ATOM      9  O   UNL     1       8.012   1.440  -0.068  0.00  0.00    -0.239 OA
ATOM     10  N   UNL     1       6.630   1.753  -0.058  0.00  0.00    -0.027 NA
ATOM     11  N   UNL     1       6.611  -1.828  -0.070  0.00  0.00    -0.337 N 
ATOM     12  H   UNL     1       5.683  -2.109  -0.062  0.00  0.00    +0.144 HD
ATOM     13  H   UNL     1       7.319  -2.492  -0.081  0.00  0.00    +0.144 HD
ENDROOT
BRANCH   1  15
ATOM     14  N   UNL     1      -0.011   0.966   0.007  0.00  0.00    -0.202 N 
ATOM     15  C   UNL     1       1.147   1.655   0.000  0.00  0.00    +0.285 C 
ATOM     16  O   UNL     1       1.130   2.872   0.007  0.00  0.00    -0.267 OA
ATOM     17  H   UNL     1       0.002  -0.004   0.002  0.00  0.00    +0.178 HD
BRANCH  14  19
ATOM     18  C   UNL     1      -2.352   0.984   0.019  0.00  0.00    +0.176 C 
ATOM     19  N   UNL     1      -1.234   1.650   0.017  0.00  0.00    -0.184 NA
BRANCH  18  24
ATOM     20  C   UNL     1      -5.688   4.720   0.053  0.00  0.00    +0.086 C 
ATOM     21  C   UNL     1      -5.100   3.332   0.044  0.00  0.00    +0.103 A 
ATOM     22  C   UNL     1      -5.802   2.181   0.041  0.00  0.00    +0.045 A 
ATOM     23  C   UNL     1      -4.870   1.127   0.026  0.00  0.00    +0.051 A 
ATOM     24  C   UNL     1      -3.631   1.700   0.029  0.00  0.00    +0.148 A 
ATOM     25  O   UNL     1      -3.789   3.038   0.036  0.00  0.00    -0.459 OA
ENDBRANCH  18  24
ENDBRANCH  14  19
ENDBRANCH   1  15
BRANCH   2  26
ATOM     26  C   UNL     1       3.975   2.989  -0.020  0.00  0.00    -0.020 C 
BRANCH  26  32
ATOM     27  C   UNL     1       2.943   2.968  -2.210  0.00  0.00    -0.078 C 
ATOM     28  C   UNL     1       3.141   3.373  -3.672  0.00  0.00    -0.015 C 
ATOM     29  C   UNL     1       3.210   4.900  -3.768  0.00  0.00    -0.010 C 
ATOM     30  C   UNL     1       4.350   5.408  -2.881  0.00  0.00    -0.015 C 
ATOM     31  C   UNL     1       4.117   4.944  -1.442  0.00  0.00    -0.078 C 
ATOM     32  N   UNL     1       4.085   3.466  -1.414  0.00  0.00    +0.383 N 
ATOM     33  H   UNL     1       4.957   3.106  -1.821  0.00  0.00    -0.081 HD
BRANCH  29  34
ATOM     34  C   UNL     1       3.469   5.311  -5.219  0.00  0.00    +0.038 C 
BRANCH  34  35
ATOM     35  C   UNL     1       2.288   4.919  -6.070  0.00  0.00    -0.047 A 
ATOM     36  C   UNL     1       2.256   3.677  -6.676  0.00  0.00    +0.003 A 
ATOM     37  C   UNL     1       1.172   3.315  -7.453  0.00  0.00    +0.000 A 
ATOM     38  C   UNL     1       0.124   4.198  -7.632  0.00  0.00    +0.000 A 
ATOM     39  C   UNL     1       0.158   5.442  -7.029  0.00  0.00    +0.000 A 
ATOM     40  C   UNL     1       1.241   5.802  -6.249  0.00  0.00    +0.003 A 
ENDBRANCH  34  35
ENDBRANCH  29  34
ENDBRANCH  26  32
ENDBRANCH   2  26
TORSDOF 7
