REMARK  Name = ZINC20551201
REMARK  8 active torsions:
REMARK  status: ('A' for Active; 'I' for Inactive)
REMARK    1  A    between atoms: C_1  and  C_2
REMARK    2  A    between atoms: C_2  and  C_4
REMARK    3  A    between atoms: C_2  and  C_16
REMARK    4  A    between atoms: C_9  and  O_14
REMARK    5  A    between atoms: O_14  and  C_15
REMARK    6  A    between atoms: N_18  and  N_19
REMARK    7  A    between atoms: C_20  and  C_21
REMARK    8  A    between atoms: C_24  and  O_28
REMARK                            x       y       z     vdW  Elec       q    Type
REMARK                         _______ _______ _______ _____ _____    ______ ____
ROOT
ATOM      1  C   UNL     1      -0.578  -4.804   1.210  0.00  0.00    +0.239 C 
ATOM      2  O   UNL     1      -1.044  -4.028   2.018  0.00  0.00    -0.273 OA
ATOM      3  N   UNL     1      -0.679  -6.132   1.416  0.00  0.00    -0.206 N 
ATOM      4  H   UNL     1      -0.257  -6.836   0.684  0.00  0.00    +0.177 HD
ENDROOT
BRANCH   1   6
ATOM      5  C   UNL     1      -0.613  -4.797  -1.270  0.00  0.00    +0.022 C 
ATOM      6  C   UNL     1       0.113  -4.284  -0.024  0.00  0.00    +0.103 C 
BRANCH   6   7
ATOM      7  C   UNL     1       0.089  -2.777  -0.015  0.00  0.00    -0.035 A 
ATOM      8  C   UNL     1      -1.134  -2.109   0.001  0.00  0.00    +0.005 A 
ATOM      9  C   UNL     1      -1.190  -0.749   0.009  0.00  0.00    +0.009 A 
ATOM     10  C   UNL     1       0.002  -0.004   0.002  0.00  0.00    -0.014 A 
ATOM     11  C   UNL     1      -0.017   1.400   0.010  0.00  0.00    +0.054 A 
ATOM     12  C   UNL     1       1.161   2.091   0.002  0.00  0.00    +0.121 A 
ATOM     13  C   UNL     1       2.387   1.419  -0.013  0.00  0.00    +0.046 A 
ATOM     14  C   UNL     1       2.439   0.060  -0.021  0.00  0.00    +0.012 A 
ATOM     15  C   UNL     1       1.246  -0.683  -0.013  0.00  0.00    -0.017 A 
ATOM     16  C   UNL     1       1.264  -2.088  -0.021  0.00  0.00    +0.013 A 
BRANCH  12  17
ATOM     17  O   UNL     1       1.141   3.450   0.009  0.00  0.00    -0.495 OA
ATOM     18  C   UNL     1       2.405   4.117   0.001  0.00  0.00    +0.277 C 
ENDBRANCH  12  17
ENDBRANCH   6   7
ENDBRANCH   1   6
BRANCH   3  19
ATOM     19  N   UNL     1      -1.322  -6.616   2.563  0.00  0.00    -0.188 NA
ATOM     20  C   UNL     1      -1.419  -7.895   2.762  0.00  0.00    +0.138 C 
BRANCH  20  21
ATOM     21  C   UNL     1      -2.095  -8.404   3.969  0.00  0.00    -0.004 A 
ATOM     22  C   UNL     1      -2.626  -7.511   4.904  0.00  0.00    +0.013 A 
ATOM     23  C   UNL     1      -3.261  -7.992   6.029  0.00  0.00    +0.047 A 
ATOM     24  C   UNL     1      -3.365  -9.360   6.240  0.00  0.00    +0.131 A 
ATOM     25  C   UNL     1      -2.833 -10.252   5.316  0.00  0.00    +0.060 A 
ATOM     26  C   UNL     1      -2.200  -9.780   4.185  0.00  0.00    +0.028 A 
ATOM     27 BR   UNL     1      -2.977 -12.114   5.611  0.00  0.00    -0.047 Br
BRANCH  24  28
ATOM     28  O   UNL     1      -3.987  -9.829   7.353  0.00  0.00    -0.506 OA
ATOM     29  H   UNL     1      -4.070 -10.913   7.521  0.00  0.00    +0.292 HD
ENDBRANCH  24  28
ENDBRANCH  20  21
ENDBRANCH   3  19
TORSDOF 6
