REMARK  Name = ZINC16161139
REMARK  6 active torsions:
REMARK  status: ('A' for Active; 'I' for Inactive)
REMARK    1  A    between atoms: C_1  and  C_2
REMARK    2  A    between atoms: C_2  and  C_3
REMARK    3  A    between atoms: C_4  and  C_21
REMARK    4  A    between atoms: C_8  and  C_14
REMARK    5  A    between atoms: C_11  and  C_13
REMARK    6  A    between atoms: C_19  and  O_20
REMARK                            x       y       z     vdW  Elec       q    Type
REMARK                         _______ _______ _______ _____ _____    ______ ____
ROOT
ATOM      1  C   UNL     1      -1.613   5.107  -1.303  0.00  0.00    +0.073 A 
ATOM      2  C   UNL     1      -1.710   4.807   0.071  0.00  0.00    +0.049 A 
ATOM      3  C   UNL     1      -1.384   3.475   0.220  0.00  0.00    +0.160 A 
ATOM      4  N   UNL     1      -1.107   2.986  -1.031  0.00  0.00    -0.238 N 
ATOM      5  N   UNL     1      -1.253   4.022  -1.945  0.00  0.00    -0.173 NA
ATOM      6  C   UNL     1      -0.735   1.584  -1.248  0.00  0.00    +0.148 C 
ATOM      7  C   UNL     1      -0.013   1.086   0.008  0.00  0.00    +0.082 C 
ATOM      8  C   UNL     1      -0.697   1.561   1.258  0.00  0.00    +0.021 C 
ATOM      9  N   UNL     1      -1.309   2.698   1.334  0.00  0.00    -0.237 NA
ATOM     10  C   UNL     1      -0.668   0.675   2.477  0.00  0.00    +0.061 C 
ENDROOT
BRANCH   6  11
ATOM     11  C   UNL     1      -1.973   0.758  -1.485  0.00  0.00    +0.019 A 
ATOM     12  C   UNL     1      -2.969   0.715  -0.529  0.00  0.00    +0.009 A 
ATOM     13  C   UNL     1      -4.105  -0.042  -0.746  0.00  0.00    +0.001 A 
ATOM     14  C   UNL     1      -4.248  -0.757  -1.921  0.00  0.00    +0.004 A 
ATOM     15  C   UNL     1      -3.255  -0.717  -2.880  0.00  0.00    +0.046 A 
ATOM     16  C   UNL     1      -2.116   0.046  -2.667  0.00  0.00    +0.122 A 
BRANCH  16  17
ATOM     17  O   UNL     1      -1.141   0.091  -3.612  0.00  0.00    -0.506 OA
ATOM     18  H   UNL     1      -0.465  -0.593  -3.513  0.00  0.00    +0.292 HD
ENDBRANCH  16  17
ENDBRANCH   6  11
BRANCH   2  19
ATOM     19  C   UNL     1      -2.090   5.747   1.152  0.00  0.00    -0.013 A 
ATOM     20  C   UNL     1      -1.168   6.084   2.142  0.00  0.00    +0.009 A 
ATOM     21  C   UNL     1      -1.526   6.963   3.144  0.00  0.00    +0.001 A 
ATOM     22  C   UNL     1      -2.800   7.501   3.173  0.00  0.00    +0.000 A 
ATOM     23  C   UNL     1      -3.721   7.166   2.196  0.00  0.00    +0.001 A 
ATOM     24  C   UNL     1      -3.372   6.292   1.187  0.00  0.00    +0.009 A 
ENDBRANCH   2  19
BRANCH   1  26
ATOM     25  C   UNL     1      -3.354   6.551  -2.318  0.00  0.00    +0.010 C 
ATOM     26  C   UNL     1      -1.878   6.451  -1.930  0.00  0.00    +0.054 C 
ENDBRANCH   1  26
TORSDOF 4
