REMARK  Name = ZINC04029023
REMARK  12 active torsions:
REMARK  status: ('A' for Active; 'I' for Inactive)
REMARK    1  A    between atoms: C_1  and  C_2
REMARK    2  A    between atoms: C_2  and  C_3
REMARK    3  A    between atoms: C_3  and  C_27
REMARK    4  A    between atoms: C_5  and  C_9
REMARK    5  A    between atoms: C_5  and  C_19
REMARK    6  A    between atoms: C_9  and  C_10
REMARK    7  A    between atoms: C_10  and  N_60
REMARK    8  A    between atoms: C_11  and  C_12
REMARK    9  A    between atoms: C_11  and  N_60
REMARK   10  A    between atoms: C_17  and  O_18
REMARK   11  A    between atoms: C_24  and  O_25
REMARK   12  A    between atoms: O_25  and  C_26
REMARK                            x       y       z     vdW  Elec       q    Type
REMARK                         _______ _______ _______ _____ _____    ______ ____
ROOT
ATOM      1  C   UNL     1      -0.113   3.070  -5.753  0.00  0.00    +0.067 C 
ATOM      2  C   UNL     1      -0.178   1.544  -5.869  0.00  0.00    +0.046 C 
ATOM      3  C   UNL     1       0.314   0.919  -4.561  0.00  0.00    +0.002 C 
ATOM      4  C   UNL     1       1.733   1.418  -4.269  0.00  0.00    +0.040 C 
ATOM      5  C   UNL     1       1.724   2.950  -4.216  0.00  0.00    +0.161 C 
ATOM      6  O   UNL     1       1.227   3.466  -5.452  0.00  0.00    -0.374 OA
ATOM      7  C   UNL     1      -1.047   3.537  -4.635  0.00  0.00    +0.041 C 
ENDROOT
BRANCH   3   8
ATOM      8  C   UNL     1       0.325  -0.582  -4.692  0.00  0.00    +0.001 A 
ATOM      9  C   UNL     1      -0.116  -1.177  -5.858  0.00  0.00    +0.008 A 
ATOM     10  C   UNL     1      -0.106  -2.554  -5.979  0.00  0.00    +0.001 A 
ATOM     11  C   UNL     1       0.345  -3.340  -4.934  0.00  0.00    +0.004 A 
ATOM     12  C   UNL     1       0.787  -2.749  -3.766  0.00  0.00    +0.046 A 
ATOM     13  C   UNL     1       0.783  -1.367  -3.644  0.00  0.00    +0.124 A 
BRANCH  13  14
ATOM     14  O   UNL     1       1.222  -0.784  -2.498  0.00  0.00    -0.495 OA
ATOM     15  C   UNL     1       1.679  -1.654  -1.461  0.00  0.00    +0.277 C 
ENDBRANCH  13  14
ENDBRANCH   3   8
BRANCH   1  17
ATOM     16  C   UNL     1      -0.397   5.221  -6.991  0.00  0.00    +0.007 C 
ATOM     17  C   UNL     1      -0.546   3.701  -7.078  0.00  0.00    +0.031 C 
ENDBRANCH   1  17
BRANCH   3  18
ATOM     18  C   UNL     1      -0.617   1.326  -3.417  0.00  0.00    -0.007 C 
BRANCH  18  19
ATOM     19  C   UNL     1      -2.050   0.908  -3.752  0.00  0.00    -0.081 C 
BRANCH  19  20
ATOM     20  N   UNL     1      -2.959   1.419  -2.709  0.00  0.00    +0.382 N 
ATOM     21  H   UNL     1      -2.894   2.443  -2.675  0.00  0.00    -0.085 HD
ATOM     22  H   UNL     1      -2.685   1.029  -1.800  0.00  0.00    -0.085 HD
BRANCH  20  23
ATOM     23  C   UNL     1      -4.350   1.030  -3.007  0.00  0.00    -0.043 C 
BRANCH  23  24
ATOM     24  C   UNL     1      -5.255   1.565  -1.927  0.00  0.00    -0.023 A 
ATOM     25  C   UNL     1      -5.688   0.733  -0.912  0.00  0.00    +0.005 A 
ATOM     26  C   UNL     1      -6.517   1.224   0.079  0.00  0.00    +0.000 A 
ATOM     27  C   UNL     1      -6.915   2.548   0.058  0.00  0.00    +0.004 A 
ATOM     28  C   UNL     1      -6.486   3.384  -0.955  0.00  0.00    +0.045 A 
ATOM     29  C   UNL     1      -5.649   2.895  -1.948  0.00  0.00    +0.118 A 
BRANCH  29  30
ATOM     30  O   UNL     1      -5.221   3.716  -2.942  0.00  0.00    -0.507 OA
ATOM     31  H   UNL     1      -5.803   3.737  -3.714  0.00  0.00    +0.292 HD
ENDBRANCH  29  30
ENDBRANCH  23  24
ENDBRANCH  20  23
ENDBRANCH  19  20
ENDBRANCH  18  19
ENDBRANCH   3  18
TORSDOF 9
