REMARK  Name = ZINC42161689
REMARK  4 active torsions:
REMARK  status: ('A' for Active; 'I' for Inactive)
REMARK    1  A    between atoms: C_5  and  S_8
REMARK    2  A    between atoms: S_8  and  N_11
REMARK    3  A    between atoms: C_15  and  C_17
REMARK    4  A    between atoms: C_17  and  C_18
REMARK                            x       y       z     vdW  Elec       q    Type
REMARK                         _______ _______ _______ _____ _____    ______ ____
ROOT
ATOM      1  S   UNL     1       1.050  -2.592  -0.158  0.00  0.00    +0.065 S 
ATOM      2  O   UNL     1       2.278  -1.930  -0.429  0.00  0.00    -0.153 OA
ATOM      3  O   UNL     1      -0.212  -1.994  -0.423  0.00  0.00    -0.153 OA
ENDROOT
BRANCH   1   8
ATOM      4  C   UNL     1       2.319  -5.794  -2.233  0.00  0.00    +0.078 A 
ATOM      5  C   UNL     1       1.145  -6.490  -2.464  0.00  0.00    +0.127 A 
ATOM      6  C   UNL     1      -0.058  -5.994  -1.990  0.00  0.00    +0.055 A 
ATOM      7  C   UNL     1      -0.086  -4.804  -1.286  0.00  0.00    +0.050 A 
ATOM      8  C   UNL     1       1.087  -4.108  -1.055  0.00  0.00    +0.155 A 
ATOM      9  C   UNL     1       2.290  -4.603  -1.528  0.00  0.00    +0.153 A 
ATOM     10  F   UNL     1       3.436  -3.924  -1.303  0.00  0.00    -0.203 F 
ATOM     11 BR   UNL     1      -1.729  -4.127  -0.638  0.00  0.00    -0.048 Br
ATOM     12  F   UNL     1       1.172  -7.652  -3.152  0.00  0.00    -0.205 F 
ENDBRANCH   1   8
BRANCH   1  13
ATOM     13  N   UNL     1       1.064  -2.975   1.453  0.00  0.00    -0.173 NA
ATOM     14  C   UNL     1       2.266  -3.095   2.297  0.00  0.00    +0.110 C 
ATOM     15  C   UNL     1       1.845  -4.030   3.458  0.00  0.00    +0.019 C 
ATOM     16  C   UNL     1       0.378  -3.585   3.700  0.00  0.00    +0.022 C 
ATOM     17  C   UNL     1      -0.122  -3.247   2.279  0.00  0.00    +0.091 C 
BRANCH  17  18
ATOM     18  C   UNL     1      -1.021  -2.009   2.322  0.00  0.00    +0.145 C 
BRANCH  18  19
ATOM     19  C   UNL     1      -2.297  -2.341   3.050  0.00  0.00    +0.358 C 
ATOM     20  O   UNL     1      -2.519  -3.488   3.401  0.00  0.00    -0.246 OA
ATOM     21  O   UNL     1      -3.109  -1.463   3.289  0.00  0.00    -0.246 OA
ENDBRANCH  18  19
ENDBRANCH  17  18
ENDBRANCH   1  13
TORSDOF 4
