REMARK  Name = ZINC16479824
REMARK  6 active torsions:
REMARK  status: ('A' for Active; 'I' for Inactive)
REMARK    1  A    between atoms: C_1  and  C_2
REMARK    2  A    between atoms: C_7  and  N_12
REMARK    3  A    between atoms: C_9  and  C_11
REMARK    4  A    between atoms: C_16  and  C_18
REMARK    5  A    between atoms: C_18  and  N_19
REMARK    6  A    between atoms: C_25  and  C_27
REMARK                            x       y       z     vdW  Elec       q    Type
REMARK                         _______ _______ _______ _____ _____    ______ ____
ROOT
ATOM      1  N   UNL     1       2.181  -0.358   3.417  0.00  0.00    -0.296 N 
ATOM      2  C   UNL     1       1.858   0.205   4.598  0.00  0.00    +0.306 C 
ATOM      3  O   UNL     1       0.969   1.032   4.654  0.00  0.00    -0.252 OA
ATOM      4  N   UNL     1       2.522  -0.147   5.717  0.00  0.00    -0.239 N 
ATOM      5  C   UNL     1       2.200   0.417   6.898  0.00  0.00    +0.234 C 
ATOM      6  O   UNL     1       1.313   1.241   6.954  0.00  0.00    -0.274 OA
ATOM      7  H   UNL     1       2.891  -1.018   3.372  0.00  0.00    +0.151 HD
ATOM      8  H   UNL     1       3.232  -0.807   5.672  0.00  0.00    +0.159 HD
ENDROOT
BRANCH   1  14
ATOM      9  C   UNL     1       1.230   1.658  -0.220  0.00  0.00    +0.008 C 
ATOM     10  C   UNL     1       1.593   0.173  -0.289  0.00  0.00    -0.009 C 
ATOM     11  C   UNL     1       0.315  -0.659  -0.408  0.00  0.00    +0.003 C 
ATOM     12  C   UNL     1      -0.573  -0.407   0.813  0.00  0.00    +0.002 C 
ATOM     13  C   UNL     1       0.181  -0.807   2.083  0.00  0.00    +0.022 C 
ATOM     14  C   UNL     1       1.459   0.025   2.201  0.00  0.00    +0.078 C 
ATOM     15  C   UNL     1       2.347  -0.227   0.981  0.00  0.00    +0.009 C 
ATOM     16  C   UNL     1       3.625   0.605   1.099  0.00  0.00    +0.009 C 
ENDBRANCH   1  14
BRANCH   5  17
ATOM     17  C   UNL     1       2.942   0.022   8.149  0.00  0.00    +0.181 C 
BRANCH  17  18
ATOM     18  N   UNL     1       2.407   0.773   9.293  0.00  0.00    -0.291 NA
ATOM     19  C   UNL     1       2.679   2.209   9.154  0.00  0.00    +0.104 C 
ATOM     20  C   UNL     1       1.953   2.973  10.266  0.00  0.00    +0.123 C 
ATOM     21  N   UNL     1       2.336   2.390  11.561  0.00  0.00    -0.293 N 
ATOM     22  C   UNL     1       2.220   0.933  11.729  0.00  0.00    +0.123 C 
ATOM     23  C   UNL     1       2.936   0.250  10.559  0.00  0.00    +0.104 C 
ATOM     24  C   UNL     1       2.781   3.169  12.566  0.00  0.00    +0.282 C 
ATOM     25  O   UNL     1       2.989   4.353  12.373  0.00  0.00    -0.267 OA
BRANCH  24  26
ATOM     26  C   UNL     1       3.016   2.591  13.894  0.00  0.00    +0.189 A 
ATOM     27  C   UNL     1       3.596   3.225  14.954  0.00  0.00    +0.054 A 
ATOM     28  C   UNL     1       3.618   2.304  16.013  0.00  0.00    +0.042 A 
ATOM     29  C   UNL     1       3.057   1.162  15.558  0.00  0.00    +0.196 A 
ATOM     30  O   UNL     1       2.691   1.340  14.282  0.00  0.00    -0.458 OA
ENDBRANCH  24  26
ENDBRANCH  17  18
ENDBRANCH   5  17
TORSDOF 4
