REMARK  Name = ZINC14546159
REMARK  8 active torsions:
REMARK  status: ('A' for Active; 'I' for Inactive)
REMARK    1  A    between atoms: C_1  and  C_2
REMARK    2  A    between atoms: C_6  and  C_36
REMARK    3  A    between atoms: C_7  and  N_8
REMARK    4  A    between atoms: N_8  and  S_9
REMARK    5  A    between atoms: S_9  and  C_12
REMARK    6  A    between atoms: C_25  and  C_28
REMARK    7  A    between atoms: C_33  and  O_34
REMARK    8  A    between atoms: O_34  and  C_35
REMARK                            x       y       z     vdW  Elec       q    Type
REMARK                         _______ _______ _______ _____ _____    ______ ____
ROOT
ATOM      1  C   UNL     1      -3.064   3.338  -0.152  0.00  0.00    +0.109 A 
ATOM      2  C   UNL     1      -2.923   2.109  -0.771  0.00  0.00    +0.030 A 
ATOM      3  C   UNL     1      -1.678   1.698  -1.204  0.00  0.00    +0.025 A 
ATOM      4  C   UNL     1      -0.574   2.520  -1.021  0.00  0.00    +0.031 A 
ATOM      5  C   UNL     1      -0.708   3.748  -0.393  0.00  0.00    -0.018 A 
ATOM      6  C   UNL     1      -1.965   4.152   0.036  0.00  0.00    +0.034 A 
ATOM      7  C   UNL     1       0.452   4.676  -0.155  0.00  0.00    +0.049 C 
ATOM      8  C   UNL     1       0.557   4.901   1.348  0.00  0.00    -0.023 C 
ATOM      9  C   UNL     1       1.446   4.093   1.870  0.00  0.00    -0.030 C 
ATOM     10  C   UNL     1       2.066   3.219   0.794  0.00  0.00    +0.033 C 
ATOM     11  C   UNL     1       1.804   4.026  -0.500  0.00  0.00    +0.029 C 
ATOM     12  C   UNL     1       1.708   3.108  -1.704  0.00  0.00    +0.108 C 
ATOM     13  N   UNL     1       0.681   2.088  -1.464  0.00  0.00    -0.336 N 
ATOM     14  H   UNL     1       0.865   1.147  -1.610  0.00  0.00    +0.147 HD
ENDROOT
BRANCH  12  15
ATOM     15  C   UNL     1       1.338   3.916  -2.922  0.00  0.00    +0.015 A 
ATOM     16  C   UNL     1       0.046   3.880  -3.409  0.00  0.00    +0.009 A 
ATOM     17  C   UNL     1      -0.294   4.620  -4.526  0.00  0.00    +0.001 A 
ATOM     18  C   UNL     1       0.657   5.398  -5.158  0.00  0.00    +0.004 A 
ATOM     19  C   UNL     1       1.951   5.438  -4.676  0.00  0.00    +0.046 A 
ATOM     20  C   UNL     1       2.294   4.700  -3.552  0.00  0.00    +0.125 A 
BRANCH  20  21
ATOM     21  O   UNL     1       3.564   4.741  -3.071  0.00  0.00    -0.495 OA
ATOM     22  C   UNL     1       4.495   5.570  -3.770  0.00  0.00    +0.277 C 
ENDBRANCH  20  21
ENDBRANCH  12  15
BRANCH   1  23
ATOM     23  S   UNL     1      -4.652   3.866   0.398  0.00  0.00    +0.072 S 
ATOM     24  O   UNL     1      -5.389   2.690   0.702  0.00  0.00    -0.150 OA
ATOM     25  O   UNL     1      -4.429   4.894   1.354  0.00  0.00    -0.150 OA
BRANCH  23  26
ATOM     26  N   UNL     1      -5.406   4.577  -0.893  0.00  0.00    -0.216 N 
ATOM     27  H   UNL     1      -5.578   5.532  -0.889  0.00  0.00    +0.174 HD
BRANCH  26  34
ATOM     28  C   UNL     1      -3.867   4.755  -3.279  0.00  0.00    +0.046 C 
ATOM     29  C   UNL     1      -5.073   3.858  -3.173  0.00  0.00    -0.028 A 
ATOM     30  C   UNL     1      -5.458   3.086  -4.252  0.00  0.00    +0.005 A 
ATOM     31  C   UNL     1      -6.568   2.267  -4.156  0.00  0.00    +0.001 A 
ATOM     32  C   UNL     1      -7.293   2.213  -2.980  0.00  0.00    +0.005 A 
ATOM     33  C   UNL     1      -6.910   2.978  -1.896  0.00  0.00    -0.028 A 
ATOM     34  C   UNL     1      -5.796   3.802  -1.988  0.00  0.00    +0.054 A 
ATOM     35  C   UNL     1      -7.700   2.918  -0.614  0.00  0.00    +0.046 C 
ENDBRANCH  26  34
ENDBRANCH  23  26
ENDBRANCH   1  23
TORSDOF 5
