REMARK  Name = ZINC63739855
REMARK  5 active torsions:
REMARK  status: ('A' for Active; 'I' for Inactive)
REMARK    1  A    between atoms: C_1  and  N_2
REMARK    2  A    between atoms: N_2  and  C_3
REMARK    3  A    between atoms: N_2  and  C_9
REMARK    4  A    between atoms: C_3  and  C_4
REMARK    5  A    between atoms: N_12  and  C_17
REMARK                            x       y       z     vdW  Elec       q    Type
REMARK                         _______ _______ _______ _____ _____    ______ ____
ROOT
ATOM      1  C   UNL     1       0.104  -0.703  -1.116  0.00  0.00    +0.046 C 
ATOM      2  C   UNL     1       0.086  -0.019  -2.460  0.00  0.00    +0.154 C 
ATOM      3  N   UNL     1      -0.566  -0.884  -3.449  0.00  0.00    -0.229 NA
ATOM      4  N   UNL     1      -0.063  -2.150  -3.441  0.00  0.00    -0.191 N 
ATOM      5  C   UNL     1       0.240  -2.772  -2.287  0.00  0.00    +0.276 C 
ATOM      6  O   UNL     1       0.551  -3.949  -2.291  0.00  0.00    -0.268 OA
ATOM      7  C   UNL     1       0.204  -2.051  -1.067  0.00  0.00    +0.122 C 
ATOM      8 CL   UNL     1       0.279  -2.880   0.456  0.00  0.00    -0.076 Cl
ATOM      9  H   UNL     1      -1.567  -0.892  -3.318  0.00  0.00    +0.145 HD
ENDROOT
BRANCH   4  10
ATOM     10  C   UNL     1       0.151  -2.846  -4.712  0.00  0.00    +0.287 C 
ATOM     11  N   UNL     1      -0.592  -4.113  -4.723  0.00  0.00    -0.347 N 
ATOM     12  C   UNL     1       0.276  -5.073  -4.862  0.00  0.00    +0.061 A 
ATOM     13  C   UNL     1       0.144  -6.535  -4.941  0.00  0.00    +0.027 A 
ATOM     14  C   UNL     1       1.248  -7.295  -5.088  0.00  0.00    +0.002 A 
ATOM     15  C   UNL     1       2.541  -6.747  -5.171  0.00  0.00    +0.002 A 
ATOM     16  C   UNL     1       2.773  -5.420  -5.109  0.00  0.00    +0.027 A 
ATOM     17  C   UNL     1       1.644  -4.493  -4.950  0.00  0.00    +0.061 A 
ATOM     18  N   UNL     1       1.569  -3.196  -4.862  0.00  0.00    -0.347 N 
ATOM     19  H   UNL     1      -1.553  -4.216  -4.642  0.00  0.00    +0.163 HD
ATOM     20  H   UNL     1       2.313  -2.575  -4.891  0.00  0.00    +0.163 HD
ENDBRANCH   4  10
BRANCH   1  22
ATOM     21  C   UNL     1       1.098   0.965   0.385  0.00  0.00    +0.129 C 
ATOM     22  N   UNL     1       0.026   0.030   0.037  0.00  0.00    -0.329 N 
BRANCH  22  23
ATOM     23  C   UNL     1      -1.130  -0.121   0.924  0.00  0.00    +0.146 C 
BRANCH  23  24
ATOM     24  C   UNL     1      -2.148   0.944   0.609  0.00  0.00    +0.007 A 
ATOM     25  C   UNL     1      -3.152   0.923  -0.302  0.00  0.00    +0.013 A 
ATOM     26  C   UNL     1      -3.974   2.028  -0.418  0.00  0.00    +0.008 A 
ATOM     27  C   UNL     1      -3.753   3.100   0.381  0.00  0.00    +0.045 A 
ATOM     28  S   UNL     1      -2.350   2.558   1.344  0.00  0.00    -0.100 S 
ENDBRANCH  23  24
ENDBRANCH  22  23
ENDBRANCH   1  22
TORSDOF 4
