REMARK  Name = ZINC01774510
REMARK  20 active torsions:
REMARK  status: ('A' for Active; 'I' for Inactive)
REMARK    1  A    between atoms: C_1  and  C_2
REMARK    2  A    between atoms: C_2  and  C_3
REMARK    3  A    between atoms: C_2  and  C_4
REMARK    4  A    between atoms: C_2  and  C_5
REMARK    5  A    between atoms: C_7  and  C_29
REMARK    6  A    between atoms: C_8  and  N_15
REMARK    7  A    between atoms: C_9  and  C_11
REMARK    8  A    between atoms: C_11  and  C_12
REMARK    9  A    between atoms: C_11  and  C_13
REMARK   10  A    between atoms: C_11  and  C_14
REMARK   11  A    between atoms: N_15  and  P_16
REMARK   12  A    between atoms: P_16  and  C_18
REMARK   13  A    between atoms: P_16  and  O_27
REMARK   14  A    between atoms: C_21  and  N_24
REMARK   15  A    between atoms: N_24  and  C_25
REMARK   16  A    between atoms: N_24  and  C_26
REMARK   17  A    between atoms: O_27  and  C_28
REMARK   18  A    between atoms: C_29  and  C_30
REMARK   19  A    between atoms: C_29  and  C_31
REMARK   20  A    between atoms: C_29  and  C_32
REMARK                            x       y       z     vdW  Elec       q    Type
REMARK                         _______ _______ _______ _____ _____    ______ ____
ROOT
ATOM      1  C   UNL     1      -0.023  -4.468   2.758  0.00  0.00    -0.041 A 
ATOM      2  C   UNL     1      -1.395  -4.334   2.645  0.00  0.00    +0.010 A 
ATOM      3  C   UNL     1      -1.931  -3.281   1.931  0.00  0.00    -0.020 A 
ATOM      4  C   UNL     1      -1.091  -2.352   1.330  0.00  0.00    +0.040 A 
ATOM      5  C   UNL     1       0.287  -2.493   1.440  0.00  0.00    -0.020 A 
ATOM      6  C   UNL     1       0.816  -3.549   2.156  0.00  0.00    +0.010 A 
ENDROOT
BRANCH   1   8
ATOM      7  C   UNL     1       1.403  -5.077   4.693  0.00  0.00    +0.015 C 
ATOM      8  C   UNL     1       0.558  -5.619   3.538  0.00  0.00    -0.013 C 
ATOM      9  C   UNL     1      -0.576  -6.481   4.097  0.00  0.00    +0.015 C 
ATOM     10  C   UNL     1       1.437  -6.467   2.618  0.00  0.00    +0.015 C 
ENDBRANCH   1   8
BRANCH   5  11
ATOM     11  C   UNL     1       1.203  -1.492   0.784  0.00  0.00    -0.011 C 
ATOM     12  C   UNL     1       2.646  -1.762   1.216  0.00  0.00    +0.015 C 
ATOM     13  C   UNL     1       1.093  -1.619  -0.736  0.00  0.00    +0.015 C 
ATOM     14  C   UNL     1       0.800  -0.078   1.208  0.00  0.00    +0.015 C 
ENDBRANCH   5  11
BRANCH   3  15
ATOM     15  C   UNL     1      -3.426  -3.135   1.809  0.00  0.00    -0.011 C 
ATOM     16  C   UNL     1      -4.090  -4.496   2.025  0.00  0.00    +0.015 C 
ATOM     17  C   UNL     1      -3.930  -2.149   2.865  0.00  0.00    +0.015 C 
ATOM     18  C   UNL     1      -3.775  -2.612   0.415  0.00  0.00    +0.015 C 
ENDBRANCH   3  15
BRANCH   4  19
ATOM     19  N   UNL     1      -1.629  -1.282   0.611  0.00  0.00    -0.295 N 
ATOM     20  H   UNL     1      -0.970  -0.935  -0.069  0.00  0.00    +0.153 HD
BRANCH  19  21
ATOM     21  P   UNL     1      -2.132  -0.054   1.646  0.00  0.00    +0.157 P 
ATOM     22  S   UNL     1      -1.125   1.481   1.323  0.00  0.00    -0.013 S 
BRANCH  21  23
ATOM     23  C   UNL     1      -3.887   0.302   1.353  0.00  0.00    +0.024 A 
ATOM     24  C   UNL     1      -4.410   0.190   0.078  0.00  0.00    +0.014 A 
ATOM     25  C   UNL     1      -5.747   0.455  -0.147  0.00  0.00    +0.024 A 
ATOM     26  C   UNL     1      -6.563   0.846   0.907  0.00  0.00    +0.029 A 
ATOM     27  C   UNL     1      -6.032   0.963   2.186  0.00  0.00    +0.024 A 
ATOM     28  C   UNL     1      -4.696   0.691   2.405  0.00  0.00    +0.014 A 
BRANCH  26  29
ATOM     29  N   UNL     1      -7.914   1.120   0.682  0.00  0.00    -0.336 N 
ATOM     30  C   UNL     1      -8.773   1.533   1.795  0.00  0.00    +0.129 C 
ATOM     31  C   UNL     1      -8.472   0.995  -0.667  0.00  0.00    +0.129 C 
ENDBRANCH  26  29
ENDBRANCH  21  23
BRANCH  21  32
ATOM     32  O   UNL     1      -1.926  -0.520   3.173  0.00  0.00    -0.337 OA
ATOM     33  C   UNL     1      -1.623   0.392   4.231  0.00  0.00    +0.201 C 
ENDBRANCH  21  32
ENDBRANCH  19  21
ENDBRANCH   4  19
TORSDOF 8
