REMARK  Name = ZINC04097933
REMARK  9 active torsions:
REMARK  status: ('A' for Active; 'I' for Inactive)
REMARK    1  A    between atoms: C_1  and  C_2
REMARK    2  A    between atoms: C_2  and  C_4
REMARK    3  A    between atoms: C_2  and  C_5
REMARK    4  A    between atoms: C_5  and  N_29
REMARK    5  A    between atoms: C_9  and  C_22
REMARK    6  A    between atoms: C_19  and  O_21
REMARK    7  A    between atoms: C_22  and  C_23
REMARK    8  A    between atoms: C_30  and  C_32
REMARK    9  A    between atoms: C_50  and  N_84
REMARK                            x       y       z     vdW  Elec       q    Type
REMARK                         _______ _______ _______ _____ _____    ______ ____
ROOT
ATOM      1  C   UNL     1      -0.750   3.109   1.275  0.00  0.00    +0.220 C 
ATOM      2  C   UNL     1      -1.344   3.619   2.570  0.00  0.00    +0.271 C 
ATOM      3  O   UNL     1      -1.105   3.202   3.684  0.00  0.00    -0.270 OA
ATOM      4  N   UNL     1      -2.191   4.627   2.257  0.00  0.00    -0.233 N 
ATOM      5  C   UNL     1      -2.978   5.403   3.219  0.00  0.00    +0.171 C 
ATOM      6  C   UNL     1      -4.258   5.854   2.567  0.00  0.00    +0.237 C 
ATOM      7  O   UNL     1      -5.133   6.343   3.248  0.00  0.00    -0.274 OA
ATOM      8  N   UNL     1      -4.446   5.723   1.247  0.00  0.00    -0.290 N 
ATOM      9  C   UNL     1      -5.544   6.324   0.468  0.00  0.00    +0.108 C 
ATOM     10  C   UNL     1      -5.029   6.500  -0.974  0.00  0.00    +0.021 C 
ATOM     11  C   UNL     1      -3.590   5.931  -0.958  0.00  0.00    +0.031 C 
ATOM     12  C   UNL     1      -3.604   5.006   0.280  0.00  0.00    +0.156 C 
ATOM     13  C   UNL     1      -2.198   4.793   0.803  0.00  0.00    +0.269 C 
ATOM     14  O   UNL     1      -1.622   3.603   0.241  0.00  0.00    -0.298 OA
ENDROOT
BRANCH   1  15
ATOM     15  N   UNL     1       0.605   3.636   1.095  0.00  0.00    -0.279 N 
ATOM     16  C   UNL     1       1.571   3.331   1.984  0.00  0.00    +0.220 C 
ATOM     17  O   UNL     1       1.318   2.619   2.933  0.00  0.00    -0.275 OA
ATOM     18  H   UNL     1       0.807   4.205   0.336  0.00  0.00    +0.152 HD
BRANCH  16  19
ATOM     19  C   UNL     1       2.965   3.873   1.799  0.00  0.00    +0.081 C 
ATOM     20  C   UNL     1       3.872   3.359   2.922  0.00  0.00    -0.061 C 
ATOM     21  C   UNL     1       5.810   3.252   1.448  0.00  0.00    -0.033 C 
ATOM     22  C   UNL     1       7.057   4.056   1.053  0.00  0.00    +0.026 C 
ATOM     23  C   UNL     1       7.575   3.558  -0.271  0.00  0.00    -0.023 A 
ATOM     24  C   UNL     1       8.756   3.556  -0.879  0.00  0.00    +0.087 A 
ATOM     25  N   UNL     1       8.655   2.958  -2.126  0.00  0.00    -0.360 N 
ATOM     26  H   UNL     1       9.391   2.847  -2.748  0.00  0.00    +0.165 HD
ATOM     27  C   UNL     1       7.376   2.550  -2.355  0.00  0.00    +0.047 A 
ATOM     28  C   UNL     1       6.665   2.905  -1.205  0.00  0.00    +0.010 A 
ATOM     29  C   UNL     1       5.291   2.649  -0.977  0.00  0.00    -0.014 A 
ATOM     30  C   UNL     1       4.624   2.038  -2.009  0.00  0.00    +0.009 A 
ATOM     31  C   UNL     1       5.313   1.685  -3.168  0.00  0.00    +0.003 A 
ATOM     32  C   UNL     1       6.667   1.918  -3.376  0.00  0.00    +0.026 A 
ATOM     33  C   UNL     1       4.805   3.120   0.334  0.00  0.00    -0.056 C 
ATOM     34  C   UNL     1       3.523   3.399   0.484  0.00  0.00    -0.014 C 
ATOM     35  C   UNL     1       6.109   3.571   3.819  0.00  0.00    -0.095 C 
ATOM     36  N   UNL     1       5.244   3.864   2.667  0.00  0.00    +0.383 N 
ATOM     37  H   UNL     1       5.201   4.881   2.535  0.00  0.00    -0.081 HD
ENDBRANCH  16  19
ENDBRANCH   1  15
BRANCH   1  39
ATOM     38  C   UNL     1      -0.013   1.086   0.008  0.00  0.00    +0.012 C 
ATOM     39  C   UNL     1      -0.729   1.579   1.267  0.00  0.00    +0.043 C 
ATOM     40  C   UNL     1      -2.164   1.050   1.278  0.00  0.00    +0.012 C 
ENDBRANCH   1  39
BRANCH  13  41
ATOM     41  O   UNL     1      -1.381   5.910   0.447  0.00  0.00    -0.348 OA
ATOM     42  H   UNL     1      -0.460   5.830   0.729  0.00  0.00    +0.214 HD
ENDBRANCH  13  41
BRANCH   5  43
ATOM     43  C   UNL     1      -2.175   6.626   3.667  0.00  0.00    +0.067 C 
BRANCH  43  44
ATOM     44  C   UNL     1      -0.953   6.174   4.425  0.00  0.00    -0.045 A 
ATOM     45  C   UNL     1      -1.013   6.006   5.795  0.00  0.00    +0.004 A 
ATOM     46  C   UNL     1       0.107   5.588   6.490  0.00  0.00    +0.000 A 
ATOM     47  C   UNL     1       1.289   5.346   5.815  0.00  0.00    +0.000 A 
ATOM     48  C   UNL     1       1.350   5.519   4.445  0.00  0.00    +0.000 A 
ATOM     49  C   UNL     1       0.229   5.933   3.750  0.00  0.00    +0.004 A 
ENDBRANCH  43  44
ENDBRANCH   5  43
TORSDOF 6
