REMARK  Name = ZINC12285443
REMARK  12 active torsions:
REMARK  status: ('A' for Active; 'I' for Inactive)
REMARK    1  A    between atoms: C_1  and  C_2
REMARK    2  A    between atoms: C_4  and  O_9
REMARK    3  A    between atoms: O_9  and  C_10
REMARK    4  A    between atoms: C_10  and  C_11
REMARK    5  A    between atoms: C_11  and  O_12
REMARK    6  A    between atoms: O_12  and  C_13
REMARK    7  A    between atoms: C_16  and  C_21
REMARK    8  A    between atoms: C_18  and  O_19
REMARK    9  A    between atoms: O_19  and  C_20
REMARK   10  A    between atoms: C_31  and  C_33
REMARK   11  A    between atoms: C_33  and  C_34
REMARK   12  A    between atoms: C_33  and  C_35
REMARK                            x       y       z     vdW  Elec       q    Type
REMARK                         _______ _______ _______ _____ _____    ______ ____
ROOT
ATOM      1  C   UNL     1       0.708  -4.443  -5.988  0.00  0.00    +0.162 A 
ATOM      2  C   UNL     1      -0.203  -5.171  -6.743  0.00  0.00    +0.050 A 
ATOM      3  C   UNL     1       0.184  -5.742  -7.934  0.00  0.00    +0.012 A 
ATOM      4  C   UNL     1       1.503  -5.590  -8.387  0.00  0.00    -0.021 A 
ATOM      5  C   UNL     1       2.421  -4.856  -7.623  0.00  0.00    +0.057 A 
ATOM      6  C   UNL     1       2.021  -4.282  -6.434  0.00  0.00    +0.162 A 
ENDROOT
BRANCH   4   7
ATOM      7  C   UNL     1       1.919  -6.197  -9.653  0.00  0.00    +0.024 C 
ATOM      8  C   UNL     1       1.421  -7.426 -10.025  0.00  0.00    +0.081 C 
ATOM      9  C   UNL     1       1.670  -7.998 -11.379  0.00  0.00    +0.152 C 
ATOM     10  N   UNL     1       2.769  -7.791 -12.053  0.00  0.00    -0.283 NA
ATOM     11  N   UNL     1       0.602  -8.784 -11.860  0.00  0.00    -0.152 N 
ATOM     12  C   UNL     1      -0.254  -9.333 -10.929  0.00  0.00    +0.181 C 
ATOM     13  N   UNL     1      -0.257  -9.137  -9.634  0.00  0.00    -0.152 NA
ATOM     14  C   UNL     1       0.611  -8.254  -9.097  0.00  0.00    +0.273 C 
ATOM     15  O   UNL     1       0.724  -8.136  -7.888  0.00  0.00    -0.268 OA
ATOM     16  S   UNL     1      -1.321 -10.322 -11.943  0.00  0.00    -0.038 S 
ATOM     17  C   UNL     1      -0.630  -9.864 -13.526  0.00  0.00    +0.102 C 
ATOM     18  N   UNL     1       0.340  -9.066 -13.184  0.00  0.00    -0.169 NA
ATOM     19  H   UNL     1       2.881  -8.188 -12.931  0.00  0.00    +0.188 HD
BRANCH  17  20
ATOM     20  C   UNL     1      -1.060 -10.292 -14.906  0.00  0.00    +0.040 C 
ATOM     21  C   UNL     1      -2.194  -9.386 -15.390  0.00  0.00    +0.014 C 
ATOM     22  C   UNL     1       0.125 -10.183 -15.867  0.00  0.00    +0.014 C 
ENDBRANCH  17  20
ENDBRANCH   4   7
BRANCH   6  23
ATOM     23  O   UNL     1       2.907  -3.565  -5.693  0.00  0.00    -0.491 OA
ATOM     24  C   UNL     1       4.233  -3.440  -6.210  0.00  0.00    +0.277 C 
ENDBRANCH   6  23
BRANCH   1  25
ATOM     25  O   UNL     1       0.319  -3.883  -4.814  0.00  0.00    -0.485 OA
BRANCH  25  26
ATOM     26  C   UNL     1      -1.038  -4.086  -4.417  0.00  0.00    +0.270 C 
BRANCH  26  27
ATOM     27  C   UNL     1      -1.288  -3.386  -3.080  0.00  0.00    +0.270 C 
BRANCH  27  28
ATOM     28  O   UNL     1      -1.152  -1.973  -3.249  0.00  0.00    -0.489 OA
BRANCH  28  32
ATOM     29  C   UNL     1      -1.297   2.465  -1.224  0.00  0.00    +0.045 C 
ATOM     30  C   UNL     1      -1.424   0.967  -1.124  0.00  0.00    -0.029 A 
ATOM     31  C   UNL     1      -1.228   0.181  -2.243  0.00  0.00    +0.050 A 
ATOM     32  C   UNL     1      -1.345  -1.198  -2.150  0.00  0.00    +0.121 A 
ATOM     33  C   UNL     1      -1.658  -1.785  -0.932  0.00  0.00    +0.047 A 
ATOM     34  C   UNL     1      -1.854  -0.996   0.184  0.00  0.00    +0.024 A 
ATOM     35  C   UNL     1      -1.731   0.379   0.090  0.00  0.00    +0.044 A 
ATOM     36 CL   UNL     1      -1.970   1.369   1.497  0.00  0.00    -0.083 Cl
ENDBRANCH  28  32
ENDBRANCH  27  28
ENDBRANCH  26  27
ENDBRANCH  25  26
ENDBRANCH   1  25
TORSDOF 8
