REMARK  Name = ZINC20317712
REMARK  6 active torsions:
REMARK  status: ('A' for Active; 'I' for Inactive)
REMARK    1  A    between atoms: C_1  and  C_2
REMARK    2  A    between atoms: C_7  and  C_25
REMARK    3  A    between atoms: C_12  and  C_14
REMARK    4  A    between atoms: N_17  and  C_19
REMARK    5  A    between atoms: C_19  and  C_21
REMARK    6  A    between atoms: C_19  and  C_22
REMARK                            x       y       z     vdW  Elec       q    Type
REMARK                         _______ _______ _______ _____ _____    ______ ____
ROOT
ATOM      1  C   UNL     1      -1.245   2.189  -0.074  0.00  0.00    +0.067 C 
ATOM      2  C   UNL     1      -0.014   1.320  -0.038  0.00  0.00    +0.062 A 
ATOM      3  C   UNL     1       1.310   1.776  -0.045  0.00  0.00    +0.068 A 
ATOM      4  C   UNL     1       2.116   0.693  -0.011  0.00  0.00    +0.127 A 
ATOM      5  N   UNL     1       1.324  -0.417   0.018  0.00  0.00    -0.238 N 
ATOM      6  N   UNL     1      -0.003   0.009  -0.001  0.00  0.00    -0.174 NA
ATOM      7  C   UNL     1       1.844  -1.786   0.063  0.00  0.00    +0.214 C 
ATOM      8  C   UNL     1       3.297  -1.749   0.550  0.00  0.00    +0.055 C 
ATOM      9  C   UNL     1       4.092  -0.715  -0.256  0.00  0.00    +0.118 C 
ATOM     10  N   UNL     1       3.513   0.620  -0.006  0.00  0.00    -0.251 N 
ATOM     11  C   UNL     1       4.284   1.703   0.212  0.00  0.00    +0.272 C 
ATOM     12  O   UNL     1       3.771   2.798   0.343  0.00  0.00    -0.268 OA
ENDROOT
BRANCH  11  13
ATOM     13  C   UNL     1       5.752   1.561   0.292  0.00  0.00    +0.148 A 
ATOM     14  C   UNL     1       6.678   2.573   0.636  0.00  0.00    +0.054 A 
ATOM     15  C   UNL     1       7.896   1.984   0.577  0.00  0.00    +0.110 A 
ATOM     16  N   UNL     1       7.701   0.697   0.218  0.00  0.00    -0.257 N 
ATOM     17  N   UNL     1       6.447   0.465   0.061  0.00  0.00    -0.166 NA
BRANCH  16  18
ATOM     18  C   UNL     1       8.765  -0.293   0.040  0.00  0.00    +0.216 C 
ATOM     19  C   UNL     1       9.110  -0.921   1.393  0.00  0.00    +0.045 C 
BRANCH  18  20
ATOM     20  C   UNL     1       9.988   0.380  -0.527  0.00  0.00    +0.380 C 
ATOM     21  O   UNL     1       9.973   1.565  -0.759  0.00  0.00    -0.244 OA
ATOM     22  O   UNL     1      11.095  -0.338  -0.775  0.00  0.00    -0.244 OA
ENDBRANCH  18  20
ENDBRANCH  16  18
ENDBRANCH  11  13
BRANCH   7  23
ATOM     23  C   UNL     1       1.002  -2.623   1.028  0.00  0.00    +0.412 C 
ATOM     24  F   UNL     1      -0.327  -2.644   0.589  0.00  0.00    -0.168 F 
ATOM     25  F   UNL     1       1.500  -3.930   1.069  0.00  0.00    -0.168 F 
ATOM     26  F   UNL     1       1.062  -2.061   2.307  0.00  0.00    -0.168 F 
ENDBRANCH   7  23
TORSDOF 4
