REMARK  Name = ZINC38827782
REMARK  11 active torsions:
REMARK  status: ('A' for Active; 'I' for Inactive)
REMARK    1  A    between atoms: C_1  and  C_2
REMARK    2  A    between atoms: N_11  and  C_12
REMARK    3  A    between atoms: C_12  and  C_13
REMARK    4  A    between atoms: C_13  and  N_14
REMARK    5  A    between atoms: N_14  and  C_15
REMARK    6  A    between atoms: N_14  and  C_16
REMARK    7  A    between atoms: C_17  and  C_19
REMARK    8  A    between atoms: C_19  and  C_20
REMARK    9  A    between atoms: C_20  and  C_21
REMARK   10  A    between atoms: C_21  and  S_22
REMARK   11  A    between atoms: S_22  and  C_25
REMARK                            x       y       z     vdW  Elec       q    Type
REMARK                         _______ _______ _______ _____ _____    ______ ____
ROOT
ATOM      1  C   UNL     1      -0.018   1.503   0.010  0.00  0.00    +0.047 C 
ATOM      2  C   UNL     1       0.002  -0.004   0.002  0.00  0.00    -0.006 A 
ATOM      3  C   UNL     1       0.006  -0.676  -1.194  0.00  0.00    +0.046 A 
ATOM      4  C   UNL     1       0.025  -2.063  -1.246  0.00  0.00    +0.021 A 
ATOM      5  C   UNL     1       0.041  -2.785  -0.066  0.00  0.00    +0.019 A 
ATOM      6  C   UNL     1       0.037  -2.121   1.135  0.00  0.00    +0.041 A 
ATOM      7  C   UNL     1       0.023  -0.710   1.227  0.00  0.00    +0.085 A 
ATOM      8  N   UNL     1       0.028  -0.206   2.480  0.00  0.00    -0.224 NA
ATOM      9  C   UNL     1       0.048  -0.969   3.547  0.00  0.00    +0.168 A 
ATOM     10  S   UNL     1       0.052  -2.611   2.842  0.00  0.00    -0.052 S 
ATOM     11  N   UNL     1       0.054  -0.596   4.882  0.00  0.00    -0.252 N 
ATOM     12  C   UNL     1       0.039   0.709   5.217  0.00  0.00    +0.221 C 
ATOM     13  O   UNL     1       0.020   1.557   4.351  0.00  0.00    -0.275 OA
ATOM     14 CL   UNL     1      -0.015   0.229  -2.675  0.00  0.00    -0.083 Cl
ENDROOT
BRANCH  11  15
ATOM     15  C   UNL     1       0.078  -1.621   5.928  0.00  0.00    +0.097 C 
BRANCH  15  16
ATOM     16  C   UNL     1       1.528  -1.958   6.280  0.00  0.00    -0.060 C 
BRANCH  16  17
ATOM     17  N   UNL     1       1.552  -2.986   7.329  0.00  0.00    +0.377 N 
ATOM     18  C   UNL     1       2.940  -3.395   7.582  0.00  0.00    -0.097 C 
ATOM     19  C   UNL     1       0.970  -2.440   8.563  0.00  0.00    -0.097 C 
ATOM     20  H   UNL     1       1.015  -3.785   7.029  0.00  0.00    -0.083 HD
ENDBRANCH  16  17
ENDBRANCH  15  16
ENDBRANCH  11  15
BRANCH  12  21
ATOM     21  C   UNL     1       0.046   1.114   6.669  0.00  0.00    +0.098 C 
BRANCH  21  22
ATOM     22  C   UNL     1       0.026   2.640   6.772  0.00  0.00    +0.032 C 
BRANCH  22  23
ATOM     23  C   UNL     1       0.034   3.052   8.246  0.00  0.00    +0.172 C 
BRANCH  23  24
ATOM     24  S   UNL     1       0.009   4.862   8.368  0.00  0.00    -0.003 S 
ATOM     25  O   UNL     1       1.232   5.401   7.886  0.00  0.00    -0.169 OA
ATOM     26  O   UNL     1      -1.236   5.367   7.908  0.00  0.00    -0.169 OA
BRANCH  24  27
ATOM     27  C   UNL     1       0.020   5.198  10.098  0.00  0.00    +0.088 A 
ATOM     28  C   UNL     1      -1.173   5.308  10.788  0.00  0.00    +0.028 A 
ATOM     29  C   UNL     1      -1.165   5.572  12.145  0.00  0.00    +0.022 A 
ATOM     30  C   UNL     1       0.037   5.727  12.812  0.00  0.00    +0.041 A 
ATOM     31  C   UNL     1       1.231   5.617  12.121  0.00  0.00    +0.022 A 
ATOM     32  C   UNL     1       1.222   5.347  10.765  0.00  0.00    +0.028 A 
ATOM     33 CL   UNL     1       0.048   6.059  14.516  0.00  0.00    -0.084 Cl
ENDBRANCH  24  27
ENDBRANCH  23  24
ENDBRANCH  22  23
ENDBRANCH  21  22
ENDBRANCH  12  21
TORSDOF 8
