REMARK  Name = ZINC00720224
REMARK  8 active torsions:
REMARK  status: ('A' for Active; 'I' for Inactive)
REMARK    1  A    between atoms: C_1  and  C_2
REMARK    2  A    between atoms: C_2  and  C_33
REMARK    3  A    between atoms: C_6  and  C_22
REMARK    4  A    between atoms: C_8  and  C_20
REMARK    5  A    between atoms: C_9  and  N_19
REMARK    6  A    between atoms: N_10  and  C_11
REMARK    7  A    between atoms: C_26  and  O_28
REMARK    8  A    between atoms: O_28  and  C_29
REMARK                            x       y       z     vdW  Elec       q    Type
REMARK                         _______ _______ _______ _____ _____    ______ ____
ROOT
ATOM      1  C   UNL     1       2.999  -2.328  -3.532  0.00  0.00    +0.011 C 
ATOM      2  C   UNL     1       1.495  -2.569  -3.678  0.00  0.00    -0.023 C 
ATOM      3  C   UNL     1       0.765  -2.027  -2.448  0.00  0.00    +0.058 C 
ATOM      4  C   UNL     1       1.240  -2.755  -1.215  0.00  0.00    +0.025 C 
ATOM      5  C   UNL     1       1.652  -4.039  -1.281  0.00  0.00    +0.025 C 
ATOM      6  C   UNL     1       2.128  -4.764  -0.048  0.00  0.00    +0.097 C 
ATOM      7  C   UNL     1       1.678  -4.064   1.201  0.00  0.00    +0.077 C 
ATOM      8  C   UNL     1       1.268  -2.772   1.169  0.00  0.00    +0.107 C 
ATOM      9  N   UNL     1       1.240  -2.082  -0.021  0.00  0.00    -0.255 N 
ATOM     10  C   UNL     1       1.655  -4.737  -2.501  0.00  0.00    +0.162 C 
ATOM     11  O   UNL     1       2.014  -5.898  -2.523  0.00  0.00    -0.292 OA
ATOM     12  C   UNL     1       1.222  -4.074  -3.780  0.00  0.00    +0.086 C 
ATOM     13  C   UNL     1       0.982  -1.868  -4.937  0.00  0.00    +0.011 C 
ENDROOT
BRANCH   9  14
ATOM     14  C   UNL     1       1.216  -0.681  -0.013  0.00  0.00    +0.110 A 
ATOM     15  C   UNL     1       0.002  -0.004   0.002  0.00  0.00    +0.148 A 
ATOM     16  C   UNL     1      -0.017   1.379   0.010  0.00  0.00    +0.040 A 
ATOM     17  C   UNL     1       1.170   2.089   0.002  0.00  0.00    +0.006 A 
ATOM     18  C   UNL     1       2.380   1.419  -0.013  0.00  0.00    +0.040 A 
ATOM     19  C   UNL     1       2.407   0.036  -0.021  0.00  0.00    +0.148 A 
ATOM     20  F   UNL     1       3.590  -0.617  -0.035  0.00  0.00    -0.203 F 
ATOM     21  F   UNL     1      -1.158  -0.696   0.010  0.00  0.00    -0.203 F 
ENDBRANCH   9  14
BRANCH   6  22
ATOM     22  C   UNL     1       3.634  -4.829  -0.062  0.00  0.00    -0.031 A 
ATOM     23  C   UNL     1       4.375  -3.662  -0.083  0.00  0.00    +0.005 A 
ATOM     24  C   UNL     1       5.756  -3.718  -0.092  0.00  0.00    +0.004 A 
ATOM     25  C   UNL     1       6.399  -4.941  -0.091  0.00  0.00    +0.045 A 
ATOM     26  C   UNL     1       5.658  -6.113  -0.076  0.00  0.00    +0.120 A 
ATOM     27  C   UNL     1       4.272  -6.054  -0.062  0.00  0.00    +0.050 A 
BRANCH  26  28
ATOM     28  O   UNL     1       6.288  -7.317  -0.075  0.00  0.00    -0.495 OA
ATOM     29  C   UNL     1       7.717  -7.301  -0.090  0.00  0.00    +0.277 C 
ENDBRANCH  26  28
ENDBRANCH   6  22
BRANCH   8  30
ATOM     30  N   UNL     1       0.874  -2.151   2.331  0.00  0.00    -0.345 N 
ATOM     31  H   UNL     1       0.577  -1.228   2.311  0.00  0.00    +0.144 HD
ATOM     32  H   UNL     1       0.894  -2.636   3.171  0.00  0.00    +0.144 HD
ENDBRANCH   8  30
BRANCH   7  33
ATOM     33  C   UNL     1       1.687  -4.771   2.446  0.00  0.00    +0.099 C 
ATOM     34  N   UNL     1       1.695  -5.331   3.434  0.00  0.00    -0.191 NA
ENDBRANCH   7  33
TORSDOF 5
