REMARK  Name = ZINC07158007
REMARK  10 active torsions:
REMARK  status: ('A' for Active; 'I' for Inactive)
REMARK    1  A    between atoms: C_1  and  C_2
REMARK    2  A    between atoms: C_2  and  C_3
REMARK    3  A    between atoms: C_3  and  C_4
REMARK    4  A    between atoms: C_3  and  N_6
REMARK    5  A    between atoms: C_4  and  C_5
REMARK    6  A    between atoms: C_7  and  C_9
REMARK    7  A    between atoms: C_9  and  S_10
REMARK    8  A    between atoms: S_10  and  C_11
REMARK    9  A    between atoms: C_14  and  C_17
REMARK   10  A    between atoms: N_15  and  N_16
REMARK                            x       y       z     vdW  Elec       q    Type
REMARK                         _______ _______ _______ _____ _____    ______ ____
ROOT
ATOM      1  C   UNL     1      -4.750   3.400   4.127  0.00  0.00    +0.209 A 
ATOM      2  N   UNL     1      -4.769   2.571   5.147  0.00  0.00    -0.121 NA
ATOM      3  N   UNL     1      -5.387   3.105   6.139  0.00  0.00    -0.127 NA
ATOM      4  C   UNL     1      -5.800   4.308   5.813  0.00  0.00    +0.182 A 
ATOM      5  N   UNL     1      -5.400   4.535   4.517  0.00  0.00    -0.224 N 
ENDROOT
BRANCH   4   6
ATOM      6  C   UNL     1      -6.550   5.243   6.678  0.00  0.00    +0.022 A 
ATOM      7  C   UNL     1      -7.199   6.346   6.121  0.00  0.00    +0.012 A 
ATOM      8  C   UNL     1      -7.898   7.215   6.933  0.00  0.00    +0.002 A 
ATOM      9  C   UNL     1      -7.955   6.997   8.298  0.00  0.00    +0.015 A 
ATOM     10  C   UNL     1      -7.313   5.905   8.858  0.00  0.00    +0.019 A 
ATOM     11  C   UNL     1      -6.616   5.025   8.055  0.00  0.00    +0.027 A 
ATOM     12 BR   UNL     1      -7.397   5.616  10.725  0.00  0.00    -0.050 Br
ENDBRANCH   4   6
BRANCH   5  13
ATOM     13  N   UNL     1      -5.612   5.662   3.773  0.00  0.00    -0.295 N 
ATOM     14  H   UNL     1      -6.481   5.601   3.264  0.00  0.00    +0.163 HD
ATOM     15  H   UNL     1      -5.588   6.487   4.353  0.00  0.00    +0.163 HD
ENDBRANCH   5  13
BRANCH   1  16
ATOM     16  S   UNL     1      -4.014   3.104   2.554  0.00  0.00    -0.075 S 
BRANCH  16  17
ATOM     17  C   UNL     1      -3.330   1.430   2.696  0.00  0.00    +0.173 C 
BRANCH  17  19
ATOM     18  N   UNL     1      -2.082  -0.162   1.273  0.00  0.00    -0.312 N 
ATOM     19  C   UNL     1      -2.664   1.047   1.400  0.00  0.00    +0.224 C 
ATOM     20  O   UNL     1      -2.651   1.827   0.471  0.00  0.00    -0.275 OA
ATOM     21  H   UNL     1      -2.092  -0.785   2.016  0.00  0.00    +0.149 HD
BRANCH  18  22
ATOM     22  C   UNL     1      -1.433  -0.534   0.013  0.00  0.00    +0.072 C 
BRANCH  22  24
ATOM     23  C   UNL     1      -0.019   1.526   0.010  0.00  0.00    +0.006 C 
ATOM     24  C   UNL     1       0.002  -0.004   0.002  0.00  0.00    +0.019 C 
ENDBRANCH  22  24
BRANCH  22  25
ATOM     25  C   UNL     1      -1.416  -2.058  -0.121  0.00  0.00    +0.019 C 
ATOM     26  C   UNL     1      -2.850  -2.576  -0.236  0.00  0.00    +0.006 C 
ENDBRANCH  22  25
ENDBRANCH  18  22
ENDBRANCH  17  19
ENDBRANCH  16  17
ENDBRANCH   1  16
TORSDOF 8
