REMARK  Name = ZINC39670803
REMARK  5 active torsions:
REMARK  status: ('A' for Active; 'I' for Inactive)
REMARK    1  A    between atoms: C_1  and  C_2
REMARK    2  A    between atoms: C_9  and  C_11
REMARK    3  A    between atoms: C_11  and  N_12
REMARK    4  A    between atoms: C_13  and  C_15
REMARK    5  A    between atoms: C_26  and  C_28
REMARK                            x       y       z     vdW  Elec       q    Type
REMARK                         _______ _______ _______ _____ _____    ______ ____
ROOT
ATOM      1  C   UNL     1      -2.955  -1.768   7.097  0.00  0.00    +0.100 C 
ATOM      2  C   UNL     1      -3.595  -3.059   6.539  0.00  0.00    +0.121 C 
ATOM      3  N   UNL     1      -3.360  -4.078   7.589  0.00  0.00    -0.296 N 
ATOM      4  C   UNL     1      -3.570  -3.349   8.863  0.00  0.00    +0.115 C 
ATOM      5  C   UNL     1      -2.943  -1.961   8.623  0.00  0.00    -0.004 C 
ATOM      6  C   UNL     1      -1.511  -1.932   9.148  0.00  0.00    -0.010 C 
ATOM      7  C   UNL     1      -1.529  -2.069  10.673  0.00  0.00    -0.082 C 
ATOM      8  N   UNL     1      -2.308  -0.969  11.256  0.00  0.00    +0.379 N 
ATOM      9  C   UNL     1      -3.707  -1.059  10.818  0.00  0.00    -0.082 C 
ATOM     10  C   UNL     1      -3.781  -0.880   9.299  0.00  0.00    -0.010 C 
ATOM     11  C   UNL     1      -3.031  -5.374   7.423  0.00  0.00    +0.248 C 
ATOM     12  O   UNL     1      -2.798  -5.805   6.309  0.00  0.00    -0.270 OA
ATOM     13  H   UNL     1      -2.268  -1.027  12.262  0.00  0.00    -0.086 HD
ATOM     14  H   UNL     1      -1.920  -0.088  10.956  0.00  0.00    -0.086 HD
ENDROOT
BRANCH  11  15
ATOM     15  C   UNL     1      -2.953  -6.266   8.586  0.00  0.00    +0.052 A 
ATOM     16  C   UNL     1      -3.799  -6.120   9.639  0.00  0.00    +0.059 A 
ATOM     17  S   UNL     1      -3.370  -7.323  10.726  0.00  0.00    -0.096 S 
ATOM     18  C   UNL     1      -2.041  -8.088   9.839  0.00  0.00    +0.020 A 
ATOM     19  C   UNL     1      -1.964  -7.346   8.645  0.00  0.00    +0.001 A 
ATOM     20  C   UNL     1      -0.983  -7.726   7.710  0.00  0.00    +0.010 A 
ATOM     21  C   UNL     1      -0.149  -8.785   7.971  0.00  0.00    +0.001 A 
ATOM     22  C   UNL     1      -0.248  -9.504   9.153  0.00  0.00    +0.001 A 
ATOM     23  C   UNL     1      -1.195  -9.146  10.093  0.00  0.00    +0.015 A 
ENDBRANCH  11  15
BRANCH   1  25
ATOM     24  N   UNL     1      -1.030  -0.381   6.398  0.00  0.00    -0.309 N 
ATOM     25  C   UNL     1      -1.550  -1.612   6.577  0.00  0.00    +0.219 C 
ATOM     26  O   UNL     1      -0.886  -2.594   6.320  0.00  0.00    -0.275 OA
ATOM     27  H   UNL     1      -1.561   0.404   6.604  0.00  0.00    +0.149 HD
BRANCH  24  28
ATOM     28  C   UNL     1       0.337  -0.229   5.893  0.00  0.00    +0.159 C 
BRANCH  28  37
ATOM     29  C   UNL     1       2.614   4.357   8.105  0.00  0.00    +0.064 C 
ATOM     30  C   UNL     1       1.968   4.384   6.745  0.00  0.00    +0.022 A 
ATOM     31  C   UNL     1       1.940   5.535   6.040  0.00  0.00    +0.021 A 
ATOM     32  C   UNL     1       1.341   5.574   4.770  0.00  0.00    +0.005 A 
ATOM     33  C   UNL     1       0.787   4.445   4.251  0.00  0.00    +0.045 A 
ATOM     34  C   UNL     1       0.824   3.251   4.999  0.00  0.00    +0.116 A 
ATOM     35  N   UNL     1       1.420   3.243   6.234  0.00  0.00    -0.305 N 
ATOM     36  C   UNL     1       1.315   1.968   6.720  0.00  0.00    +0.115 A 
ATOM     37  C   UNL     1       0.672   1.236   5.784  0.00  0.00    +0.051 A 
ATOM     38  N   UNL     1       0.374   2.029   4.752  0.00  0.00    -0.342 N 
ATOM     39  H   UNL     1      -0.088   1.752   3.946  0.00  0.00    +0.167 HD
ENDBRANCH  28  37
ENDBRANCH  24  28
ENDBRANCH   1  25
TORSDOF 4
