REMARK  Name = ZINC32932779
REMARK  6 active torsions:
REMARK  status: ('A' for Active; 'I' for Inactive)
REMARK    1  A    between atoms: C_1  and  C_2
REMARK    2  A    between atoms: C_5  and  N_9
REMARK    3  A    between atoms: C_10  and  C_12
REMARK    4  A    between atoms: C_12  and  N_13
REMARK    5  A    between atoms: C_17  and  C_19
REMARK    6  A    between atoms: C_21  and  C_24
REMARK                            x       y       z     vdW  Elec       q    Type
REMARK                         _______ _______ _______ _____ _____    ______ ____
ROOT
ATOM      1  N   UNL     1       0.002  -0.004   0.002  0.00  0.00    -0.285 N 
ATOM      2  C   UNL     1      -0.362   0.518   1.190  0.00  0.00    +0.201 C 
ATOM      3  O   UNL     1       0.317   0.318   2.174  0.00  0.00    -0.278 OA
ATOM      4  H   UNL     1      -0.656   0.106  -0.873  0.00  0.00    +0.155 HD
ENDROOT
BRANCH   1   9
ATOM      5  C   UNL     1       4.932  -2.772  -0.488  0.00  0.00    +0.044 C 
ATOM      6  C   UNL     1       3.623  -2.037  -0.358  0.00  0.00    -0.048 A 
ATOM      7  C   UNL     1       2.470  -2.732  -0.040  0.00  0.00    +0.020 A 
ATOM      8  C   UNL     1       1.268  -2.061   0.080  0.00  0.00    +0.040 A 
ATOM      9  C   UNL     1       1.218  -0.687  -0.119  0.00  0.00    +0.062 A 
ATOM     10  C   UNL     1       2.377   0.007  -0.444  0.00  0.00    +0.040 A 
ATOM     11  C   UNL     1       3.577  -0.669  -0.556  0.00  0.00    +0.020 A 
ATOM     12 BR   UNL     1       2.314   1.876  -0.725  0.00  0.00    -0.048 Br
ATOM     13 BR   UNL     1      -0.307  -3.012   0.516  0.00  0.00    -0.048 Br
ENDBRANCH   1   9
BRANCH   2  14
ATOM     14  C   UNL     1      -1.611   1.355   1.294  0.00  0.00    +0.020 C 
BRANCH  14  15
ATOM     15  N   UNL     1      -1.787   1.802   2.682  0.00  0.00    +0.392 N 
ATOM     16  C   UNL     1      -2.129   0.667   3.565  0.00  0.00    -0.077 C 
ATOM     17  C   UNL     1      -3.076   1.268   4.633  0.00  0.00    -0.020 C 
ATOM     18  C   UNL     1      -3.894   2.282   3.792  0.00  0.00    -0.009 C 
ATOM     19  C   UNL     1      -2.857   2.812   2.780  0.00  0.00    +0.002 C 
ATOM     20  H   UNL     1      -0.831   2.245   2.997  0.00  0.00    -0.080 HD
BRANCH  19  21
ATOM     21  C   UNL     1      -3.502   3.008   1.433  0.00  0.00    +0.124 A 
ATOM     22  C   UNL     1      -3.906   4.182   0.890  0.00  0.00    +0.069 A 
ATOM     23  C   UNL     1      -4.434   3.812  -0.368  0.00  0.00    +0.081 A 
ATOM     24  N   UNL     1      -4.311   2.519  -0.453  0.00  0.00    -0.083 NA
ATOM     25  O   UNL     1      -3.796   2.055   0.537  0.00  0.00    -0.361 OA
ATOM     26  C   UNL     1      -5.028   4.732  -1.403  0.00  0.00    +0.069 C 
ENDBRANCH  19  21
ENDBRANCH  14  15
ENDBRANCH   2  14
TORSDOF 4
