REMARK  Name = ZINC33121553
REMARK  8 active torsions:
REMARK  status: ('A' for Active; 'I' for Inactive)
REMARK    1  A    between atoms: C_1  and  C_2
REMARK    2  A    between atoms: C_2  and  C_3
REMARK    3  A    between atoms: C_3  and  C_5
REMARK    4  A    between atoms: C_3  and  N_6
REMARK    5  A    between atoms: C_7  and  C_9
REMARK    6  A    between atoms: N_17  and  C_18
REMARK    7  A    between atoms: C_21  and  S_23
REMARK    8  A    between atoms: S_23  and  N_26
REMARK                            x       y       z     vdW  Elec       q    Type
REMARK                         _______ _______ _______ _____ _____    ______ ____
ROOT
ATOM      1  C   UNL     1       8.540  -0.649  -0.850  0.00  0.00    +0.078 C 
ATOM      2  C   UNL     1       8.097   0.812  -0.946  0.00  0.00    +0.032 C 
ATOM      3  C   UNL     1       7.071   1.104   0.154  0.00  0.00    +0.110 C 
ATOM      4  N   UNL     1       5.974   0.132   0.048  0.00  0.00    -0.285 N 
ATOM      5  C   UNL     1       6.298  -1.301   0.044  0.00  0.00    +0.110 C 
ATOM      6  C   UNL     1       7.333  -1.565  -1.060  0.00  0.00    +0.032 C 
ATOM      7  C   UNL     1       4.695   0.547  -0.040  0.00  0.00    +0.307 C 
ATOM      8  O   UNL     1       4.446   1.734  -0.127  0.00  0.00    -0.252 OA
ATOM      9  N   UNL     1       3.692  -0.353  -0.031  0.00  0.00    -0.264 N 
ATOM     10  H   UNL     1       3.920  -1.429  -0.035  0.00  0.00    +0.157 HD
ENDROOT
BRANCH   9  11
ATOM     11  C   UNL     1       2.363   0.081  -0.015  0.00  0.00    +0.075 A 
ATOM     12  C   UNL     1       1.220  -0.659  -0.004  0.00  0.00    +0.033 A 
ATOM     13  C   UNL     1       0.002  -0.003   0.011  0.00  0.00    +0.038 A 
ATOM     14  C   UNL     1      -0.016   1.352   0.014  0.00  0.00    +0.144 A 
ATOM     15  S   UNL     1       1.724   1.748  -0.004  0.00  0.00    -0.054 S 
BRANCH  14  16
ATOM     16  S   UNL     1      -1.401   2.441   0.025  0.00  0.00    +0.067 S 
ATOM     17  O   UNL     1      -0.953   3.672  -0.526  0.00  0.00    -0.152 OA
ATOM     18  O   UNL     1      -2.494   1.715  -0.520  0.00  0.00    -0.152 OA
BRANCH  16  19
ATOM     19  N   UNL     1      -1.775   2.741   1.611  0.00  0.00    -0.172 NA
ATOM     20  C   UNL     1      -2.731   1.890   2.337  0.00  0.00    +0.137 C 
ATOM     21  C   UNL     1      -2.080   1.459   3.661  0.00  0.00    +0.177 C 
ATOM     22  O   UNL     1      -1.611   2.619   4.352  0.00  0.00    -0.377 OA
ATOM     23  C   UNL     1      -0.595   3.345   3.655  0.00  0.00    +0.177 C 
ATOM     24  C   UNL     1      -1.166   3.869   2.333  0.00  0.00    +0.137 C 
ENDBRANCH  16  19
ENDBRANCH  14  16
ENDBRANCH   9  11
BRANCH   1  26
ATOM     25  N   UNL     1      10.113  -2.162  -2.015  0.00  0.00    -0.313 N 
ATOM     26  C   UNL     1       9.575  -0.931  -1.909  0.00  0.00    +0.216 C 
ATOM     27  O   UNL     1       9.923  -0.050  -2.666  0.00  0.00    -0.276 OA
ATOM     28  H   UNL     1       9.798  -2.961  -1.328  0.00  0.00    +0.149 HD
BRANCH  25  29
ATOM     29  C   UNL     1      11.119  -2.435  -3.044  0.00  0.00    +0.070 C 
ATOM     30  C   UNL     1      10.419  -2.788  -4.359  0.00  0.00    +0.028 C 
BRANCH  29  32
ATOM     31  C   UNL     1      12.790  -3.211  -1.356  0.00  0.00    +0.005 C 
ATOM     32  C   UNL     1      11.995  -3.609  -2.602  0.00  0.00    +0.018 C 
ENDBRANCH  29  32
ENDBRANCH  25  29
ENDBRANCH   1  26
TORSDOF 6
