REMARK  Name = ZINC40287271
REMARK  5 active torsions:
REMARK  status: ('A' for Active; 'I' for Inactive)
REMARK    1  A    between atoms: C_1  and  O_2
REMARK    2  A    between atoms: O_2  and  C_3
REMARK    3  A    between atoms: C_3  and  C_5
REMARK    4  A    between atoms: C_10  and  N_11
REMARK    5  A    between atoms: C_23  and  C_25
REMARK                            x       y       z     vdW  Elec       q    Type
REMARK                         _______ _______ _______ _____ _____    ______ ____
ROOT
ATOM      1  N   UNL     1       2.057  -2.573   3.074  0.00  0.00    -0.269 N 
ATOM      2  C   UNL     1       2.890  -3.048   4.021  0.00  0.00    +0.307 C 
ATOM      3  O   UNL     1       3.215  -4.220   4.013  0.00  0.00    -0.252 OA
ATOM      4  N   UNL     1       3.363  -2.224   4.978  0.00  0.00    -0.272 N 
ATOM      5  C   UNL     1       3.067  -0.784   4.946  0.00  0.00    +0.116 C 
ATOM      6  C   UNL     1       4.374  -0.005   4.754  0.00  0.00    +0.076 C 
ATOM      7  C   UNL     1       5.420  -0.573   5.680  0.00  0.00    +0.066 A 
ATOM      8  C   UNL     1       5.342  -1.788   6.265  0.00  0.00    +0.064 A 
ATOM      9  N   UNL     1       6.464  -1.946   7.018  0.00  0.00    -0.346 N 
ATOM     10  H   UNL     1       6.694  -2.720   7.555  0.00  0.00    +0.167 HD
ATOM     11  C   UNL     1       7.198  -0.818   6.874  0.00  0.00    +0.197 A 
ATOM     12  N   UNL     1       6.564  -0.003   6.072  0.00  0.00    -0.240 NA
ATOM     13  C   UNL     1       4.185  -2.745   6.085  0.00  0.00    +0.156 C 
ATOM     14  H   UNL     1       1.859  -1.624   3.034  0.00  0.00    +0.156 HD
ENDROOT
BRANCH   1  20
ATOM     15  C   UNL     1       1.249  -3.024   0.834  0.00  0.00    +0.083 A 
ATOM     16  C   UNL     1       0.675  -3.909  -0.083  0.00  0.00    +0.055 A 
ATOM     17  C   UNL     1       0.337  -5.186   0.315  0.00  0.00    +0.124 A 
ATOM     18  C   UNL     1       0.563  -5.596   1.621  0.00  0.00    +0.040 A 
ATOM     19  C   UNL     1       1.128  -4.732   2.536  0.00  0.00    +0.027 A 
ATOM     20  C   UNL     1       1.480  -3.445   2.153  0.00  0.00    +0.049 A 
ATOM     21  F   UNL     1      -0.218  -6.042  -0.572  0.00  0.00    -0.205 F 
BRANCH  15  22
ATOM     22  C   UNL     1       1.614  -1.658   0.417  0.00  0.00    +0.341 C 
ATOM     23  O   UNL     1       2.035  -0.865   1.236  0.00  0.00    -0.245 OA
BRANCH  22  25
ATOM     24  C   UNL     1       1.854   0.049  -1.205  0.00  0.00    +0.280 C 
ATOM     25  O   UNL     1       1.481  -1.290  -0.872  0.00  0.00    -0.464 OA
ENDBRANCH  22  25
ENDBRANCH  15  22
ENDBRANCH   1  20
BRANCH  13  26
ATOM     26  C   UNL     1       3.365  -2.808   7.348  0.00  0.00    -0.018 A 
ATOM     27  C   UNL     1       2.866  -1.646   7.907  0.00  0.00    +0.006 A 
ATOM     28  C   UNL     1       2.114  -1.703   9.065  0.00  0.00    +0.003 A 
ATOM     29  C   UNL     1       1.858  -2.921   9.665  0.00  0.00    +0.038 A 
ATOM     30  C   UNL     1       2.357  -4.086   9.106  0.00  0.00    +0.124 A 
ATOM     31  C   UNL     1       3.106  -4.028   7.942  0.00  0.00    +0.044 A 
ATOM     32  F   UNL     1       2.108  -5.277   9.692  0.00  0.00    -0.205 F 
ENDBRANCH  13  26
TORSDOF 4
