REMARK  Name = ZINC63075077
REMARK  9 active torsions:
REMARK  status: ('A' for Active; 'I' for Inactive)
REMARK    1  A    between atoms: C_1  and  C_2
REMARK    2  A    between atoms: C_2  and  O_3
REMARK    3  A    between atoms: O_3  and  C_4
REMARK    4  A    between atoms: C_11  and  N_14
REMARK    5  A    between atoms: C_15  and  C_17
REMARK    6  A    between atoms: C_17  and  S_18
REMARK    7  A    between atoms: S_18  and  C_19
REMARK    8  A    between atoms: C_25  and  O_29
REMARK    9  A    between atoms: O_29  and  C_30
REMARK                            x       y       z     vdW  Elec       q    Type
REMARK                         _______ _______ _______ _____ _____    ______ ____
ROOT
ATOM      1  N   UNL     1       0.977  -7.132  -4.027  0.00  0.00    -0.288 N 
ATOM      2  C   UNL     1       1.485  -7.724  -5.126  0.00  0.00    +0.225 C 
ATOM      3  O   UNL     1       2.666  -7.620  -5.379  0.00  0.00    -0.275 OA
ATOM      4  H   UNL     1       0.032  -7.215  -3.824  0.00  0.00    +0.151 HD
ENDROOT
BRANCH   1  12
ATOM      5  C   UNL     1       0.777  -1.811  -1.336  0.00  0.00    +0.122 A 
ATOM      6  C   UNL     1       0.247  -2.679  -0.393  0.00  0.00    +0.047 A 
ATOM      7  C   UNL     1       0.349  -4.042  -0.548  0.00  0.00    +0.027 A 
ATOM      8  C   UNL     1       0.992  -4.604  -1.665  0.00  0.00    +0.043 A 
ATOM      9  C   UNL     1       1.516  -3.705  -2.599  0.00  0.00    +0.035 A 
ATOM     10  C   UNL     1       1.413  -2.340  -2.452  0.00  0.00    +0.062 A 
ATOM     11  S   UNL     1       2.248  -4.720  -3.862  0.00  0.00    -0.082 S 
ATOM     12  C   UNL     1       1.852  -6.362  -3.139  0.00  0.00    +0.224 C 
ATOM     13  N   UNL     1       1.146  -5.970  -1.911  0.00  0.00    -0.316 N 
ATOM     14  H   UNL     1       0.801  -6.635  -1.295  0.00  0.00    +0.149 HD
BRANCH   5  15
ATOM     15  O   UNL     1       0.671  -0.465  -1.174  0.00  0.00    -0.492 OA
BRANCH  15  17
ATOM     16  C   UNL     1      -0.019   1.526   0.010  0.00  0.00    +0.048 C 
ATOM     17  C   UNL     1       0.002  -0.004   0.002  0.00  0.00    +0.225 C 
ENDBRANCH  15  17
ENDBRANCH   5  15
ENDBRANCH   1  12
BRANCH   2  18
ATOM     18  C   UNL     1       0.585  -8.516  -6.039  0.00  0.00    +0.168 C 
BRANCH  18  19
ATOM     19  S   UNL     1       1.558  -9.183  -7.417  0.00  0.00    -0.106 S 
BRANCH  19  20
ATOM     20  C   UNL     1       0.344 -10.096  -8.409  0.00  0.00    +0.236 C 
ATOM     21  N   UNL     1      -0.303 -11.128  -7.590  0.00  0.00    -0.355 N 
ATOM     22  C   UNL     1      -1.577 -10.864  -7.561  0.00  0.00    +0.061 A 
ATOM     23  C   UNL     1      -2.712 -11.535  -6.910  0.00  0.00    +0.031 A 
ATOM     24  C   UNL     1      -3.954 -11.036  -7.050  0.00  0.00    +0.048 A 
ATOM     25  C   UNL     1      -4.218  -9.837  -7.835  0.00  0.00    +0.122 A 
ATOM     26  C   UNL     1      -3.226  -9.162  -8.466  0.00  0.00    +0.073 A 
ATOM     27  C   UNL     1      -1.845  -9.639  -8.363  0.00  0.00    +0.064 A 
ATOM     28  N   UNL     1      -0.722  -9.193  -8.858  0.00  0.00    -0.355 N 
ATOM     29  H   UNL     1       0.139 -11.871  -7.149  0.00  0.00    +0.162 HD
ATOM     30  H   UNL     1      -0.612  -8.409  -9.419  0.00  0.00    +0.162 HD
BRANCH  25  31
ATOM     31  O   UNL     1      -5.493  -9.384  -7.939  0.00  0.00    -0.495 OA
ATOM     32  C   UNL     1      -6.504 -10.130  -7.258  0.00  0.00    +0.277 C 
ENDBRANCH  25  31
ENDBRANCH  19  20
ENDBRANCH  18  19
ENDBRANCH   2  18
TORSDOF 7
