REMARK  Name = ZINC65591743
REMARK  5 active torsions:
REMARK  status: ('A' for Active; 'I' for Inactive)
REMARK    1  A    between atoms: C_1  and  C_2
REMARK    2  A    between atoms: C_2  and  C_3
REMARK    3  A    between atoms: C_2  and  C_4
REMARK    4  A    between atoms: C_6  and  C_10
REMARK    5  A    between atoms: C_15  and  C_18
REMARK                            x       y       z     vdW  Elec       q    Type
REMARK                         _______ _______ _______ _____ _____    ______ ____
ROOT
ATOM      1  C   UNL     1      -4.327  -2.357  -1.202  0.00  0.00    +0.265 C 
ATOM      2  O   UNL     1      -4.108  -2.834  -2.299  0.00  0.00    -0.268 OA
ATOM      3  N   UNL     1      -5.517  -2.562  -0.603  0.00  0.00    -0.296 N 
ATOM      4  C   UNL     1      -5.839  -1.900   0.668  0.00  0.00    +0.109 C 
ATOM      5  C   UNL     1      -6.270  -2.965   1.683  0.00  0.00    +0.032 C 
ATOM      6  C   UNL     1      -7.417  -3.789   1.095  0.00  0.00    +0.078 C 
ATOM      7  C   UNL     1      -6.941  -4.497  -0.175  0.00  0.00    +0.032 C 
ATOM      8  C   UNL     1      -6.520  -3.446  -1.213  0.00  0.00    +0.109 C 
ENDROOT
BRANCH   1  11
ATOM      9  C   UNL     1      -2.087   0.098   0.310  0.00  0.00    +0.080 A 
ATOM     10  C   UNL     1      -3.254  -0.179  -0.408  0.00  0.00    +0.071 A 
ATOM     11  C   UNL     1      -3.293  -1.558  -0.527  0.00  0.00    +0.135 A 
ATOM     12  N   UNL     1      -2.177  -2.027   0.108  0.00  0.00    -0.271 N 
ATOM     13  H   UNL     1      -1.932  -2.962   0.190  0.00  0.00    +0.189 HD
ATOM     14  N   UNL     1      -1.500  -1.041   0.576  0.00  0.00    -0.177 NA
ATOM     15 BR   UNL     1      -4.512   1.066  -1.075  0.00  0.00    -0.046 Br
BRANCH   9  17
ATOM     16  C   UNL     1      -1.484   1.551   2.226  0.00  0.00    +0.014 C 
ATOM     17  C   UNL     1      -1.590   1.465   0.702  0.00  0.00    +0.034 C 
ATOM     18  C   UNL     1      -0.212   1.704   0.081  0.00  0.00    +0.014 C 
ENDBRANCH   9  17
ENDBRANCH   1  11
BRANCH   6  19
ATOM     19  C   UNL     1      -7.866  -4.815   2.103  0.00  0.00    +0.214 C 
ATOM     20  O   UNL     1      -7.322  -4.881   3.185  0.00  0.00    -0.276 OA
ATOM     21  N   UNL     1      -8.872  -5.660   1.803  0.00  0.00    -0.329 N 
ATOM     22  H   UNL     1      -9.307  -5.608   0.937  0.00  0.00    +0.145 HD
ATOM     23  H   UNL     1      -9.161  -6.321   2.452  0.00  0.00    +0.145 HD
ENDBRANCH   6  19
TORSDOF 3
