REMARK  Name = ZINC35556174
REMARK  9 active torsions:
REMARK  status: ('A' for Active; 'I' for Inactive)
REMARK    1  A    between atoms: C_1  and  C_2
REMARK    2  A    between atoms: C_2  and  C_3
REMARK    3  A    between atoms: C_6  and  N_9
REMARK    4  A    between atoms: C_10  and  C_12
REMARK    5  A    between atoms: N_17  and  S_19
REMARK    6  A    between atoms: S_19  and  C_22
REMARK    7  A    between atoms: C_24  and  C_28
REMARK    8  A    between atoms: C_26  and  C_27
REMARK    9  A    between atoms: C_30  and  C_33
REMARK                            x       y       z     vdW  Elec       q    Type
REMARK                         _______ _______ _______ _____ _____    ______ ____
ROOT
ATOM      1  C   UNL     1      -7.446  -2.518  -1.097  0.00  0.00    +0.091 C 
ATOM      2  C   UNL     1      -8.262  -1.488  -0.313  0.00  0.00    +0.015 C 
ATOM      3  C   UNL     1      -9.728  -1.924  -0.265  0.00  0.00    +0.018 C 
ATOM      4  C   UNL     1     -10.281  -1.995  -1.692  0.00  0.00    +0.109 C 
ATOM      5  N   UNL     1      -9.416  -2.873  -2.492  0.00  0.00    -0.176 NA
ATOM      6  C   UNL     1      -7.974  -2.597  -2.533  0.00  0.00    +0.122 C 
ENDROOT
BRANCH   1   8
ATOM      7  N   UNL     1      -5.320  -1.968   0.042  0.00  0.00    -0.285 N 
ATOM      8  C   UNL     1      -5.997  -2.104  -1.115  0.00  0.00    +0.222 C 
ATOM      9  O   UNL     1      -5.440  -1.894  -2.172  0.00  0.00    -0.275 OA
ATOM     10  H   UNL     1      -5.742  -2.209   0.882  0.00  0.00    +0.155 HD
BRANCH   7  14
ATOM     11  C   UNL     1      -1.419  -0.507   0.015  0.00  0.00    -0.048 A 
ATOM     12  C   UNL     1      -2.333  -0.050  -0.916  0.00  0.00    +0.005 A 
ATOM     13  C   UNL     1      -3.627  -0.533  -0.910  0.00  0.00    +0.023 A 
ATOM     14  C   UNL     1      -4.010  -1.477   0.033  0.00  0.00    +0.033 A 
ATOM     15  C   UNL     1      -3.089  -1.934   0.967  0.00  0.00    +0.023 A 
ATOM     16  C   UNL     1      -1.795  -1.452   0.952  0.00  0.00    +0.005 A 
BRANCH  11  18
ATOM     17  C   UNL     1       0.858  -0.853  -0.904  0.00  0.00    +0.009 C 
ATOM     18  C   UNL     1      -0.007   0.021   0.005  0.00  0.00    +0.032 C 
ENDBRANCH  11  18
ENDBRANCH   7  14
ENDBRANCH   1   8
BRANCH   5  19
ATOM     19  S   UNL     1     -10.055  -4.149  -3.332  0.00  0.00    +0.062 S 
ATOM     20  O   UNL     1      -9.000  -5.084  -3.514  0.00  0.00    -0.153 OA
ATOM     21  O   UNL     1     -11.273  -4.492  -2.685  0.00  0.00    -0.153 OA
BRANCH  19  22
ATOM     22  C   UNL     1     -10.484  -3.556  -4.934  0.00  0.00    +0.116 A 
ATOM     23  C   UNL     1      -9.841  -4.038  -6.051  0.00  0.00    +0.048 A 
ATOM     24  C   UNL     1     -10.202  -3.553  -7.280  0.00  0.00    +0.062 A 
ATOM     25  S   UNL     1     -11.483  -2.386  -6.853  0.00  0.00    -0.088 S 
ATOM     26  C   UNL     1     -11.459  -2.621  -5.083  0.00  0.00    +0.014 A 
ATOM     27  C   UNL     1     -12.300  -1.953  -4.027  0.00  0.00    +0.053 C 
BRANCH  24  28
ATOM     28  C   UNL     1      -9.669  -3.905  -8.613  0.00  0.00    +0.209 A 
ATOM     29  N   UNL     1     -10.073  -3.378  -9.785  0.00  0.00    -0.191 NA
ATOM     30  C   UNL     1      -9.400  -3.906 -10.766  0.00  0.00    +0.231 A 
ATOM     31  O   UNL     1      -8.535  -4.795 -10.260  0.00  0.00    -0.337 OA
ATOM     32  N   UNL     1      -8.719  -4.778  -8.853  0.00  0.00    -0.056 NA
BRANCH  30  33
ATOM     33  C   UNL     1      -9.567  -3.573 -12.226  0.00  0.00    +0.078 C 
ATOM     34  C   UNL     1      -9.425  -4.790 -13.156  0.00  0.00    +0.013 C 
ATOM     35  C   UNL     1      -8.651  -3.869 -14.114  0.00  0.00    +0.001 C 
ATOM     36  C   UNL     1      -8.290  -3.022 -12.882  0.00  0.00    +0.013 C 
ENDBRANCH  30  33
ENDBRANCH  24  28
ENDBRANCH  19  22
ENDBRANCH   5  19
TORSDOF 7
