REMARK  Name = ZINC09482695
REMARK  6 active torsions:
REMARK  status: ('A' for Active; 'I' for Inactive)
REMARK    1  A    between atoms: C_1  and  C_2
REMARK    2  A    between atoms: C_5  and  C_8
REMARK    3  A    between atoms: C_13  and  C_17
REMARK    4  A    between atoms: C_13  and  C_18
REMARK    5  A    between atoms: C_27  and  C_29
REMARK    6  A    between atoms: C_29  and  N_69
REMARK                            x       y       z     vdW  Elec       q    Type
REMARK                         _______ _______ _______ _____ _____    ______ ____
ROOT
ATOM      1  C   UNL     1       3.198   3.749  -1.285  0.00  0.00    +0.146 C 
ATOM      2  C   UNL     1       3.918   2.467  -1.628  0.00  0.00    +0.037 C 
ATOM      3  C   UNL     1       3.651   1.252  -1.119  0.00  0.00    +0.017 C 
ATOM      4  C   UNL     1       4.461   0.041  -1.551  0.00  0.00    +0.058 C 
ATOM      5  C   UNL     1       4.902   0.201  -3.005  0.00  0.00    -0.023 C 
ATOM      6  C   UNL     1       5.755   1.472  -3.096  0.00  0.00    +0.086 C 
ATOM      7  C   UNL     1       4.947   2.627  -2.586  0.00  0.00    +0.163 C 
ATOM      8  O   UNL     1       5.183   3.741  -3.011  0.00  0.00    -0.292 OA
ATOM      9  C   UNL     1       3.675   0.335  -3.908  0.00  0.00    +0.011 C 
ATOM     10  C   UNL     1       5.732  -1.012  -3.432  0.00  0.00    +0.011 C 
ATOM     11  N   UNL     1       2.687   0.992  -0.199  0.00  0.00    -0.316 N 
ATOM     12  C   UNL     1       1.381   1.461  -0.259  0.00  0.00    +0.053 A 
ATOM     13  C   UNL     1       0.293   0.612  -0.366  0.00  0.00    +0.025 A 
ATOM     14  C   UNL     1      -0.985   1.143  -0.359  0.00  0.00    +0.002 A 
ATOM     15  C   UNL     1      -1.173   2.507  -0.221  0.00  0.00    +0.002 A 
ATOM     16  C   UNL     1      -0.086   3.357  -0.119  0.00  0.00    +0.025 A 
ATOM     17  C   UNL     1       1.196   2.831  -0.158  0.00  0.00    +0.058 A 
ATOM     18  N   UNL     1       2.321   3.656  -0.137  0.00  0.00    -0.259 N 
ATOM     19  C   UNL     1       2.596   4.376   0.968  0.00  0.00    +0.204 C 
ATOM     20  O   UNL     1       3.572   5.096   0.996  0.00  0.00    -0.277 OA
ATOM     21  H   UNL     1       2.930   0.437   0.559  0.00  0.00    +0.152 HD
ENDROOT
BRANCH   1  26
ATOM     22  C   UNL     1       0.062   5.368  -5.861  0.00  0.00    +0.044 C 
ATOM     23  C   UNL     1       0.880   4.946  -4.667  0.00  0.00    -0.050 A 
ATOM     24  C   UNL     1       1.918   5.744  -4.224  0.00  0.00    +0.004 A 
ATOM     25  C   UNL     1       2.668   5.356  -3.129  0.00  0.00    +0.006 A 
ATOM     26  C   UNL     1       2.380   4.171  -2.478  0.00  0.00    -0.022 A 
ATOM     27  C   UNL     1       1.345   3.371  -2.925  0.00  0.00    +0.006 A 
ATOM     28  C   UNL     1       0.592   3.761  -4.016  0.00  0.00    +0.004 A 
ENDBRANCH   1  26
BRANCH  19  29
ATOM     29  C   UNL     1       1.690   4.288   2.170  0.00  0.00    +0.019 C 
BRANCH  29  35
ATOM     30  C   UNL     1       3.498   4.681   3.731  0.00  0.00    -0.078 C 
ATOM     31  C   UNL     1       4.068   5.689   4.731  0.00  0.00    -0.019 C 
ATOM     32  C   UNL     1       3.086   5.859   5.894  0.00  0.00    -0.004 C 
ATOM     33  C   UNL     1       1.731   6.312   5.344  0.00  0.00    -0.019 C 
ATOM     34  C   UNL     1       1.229   5.286   4.326  0.00  0.00    -0.078 C 
ATOM     35  N   UNL     1       2.206   5.188   3.222  0.00  0.00    +0.385 N 
ATOM     36  H   UNL     1       2.350   6.122   2.820  0.00  0.00    -0.081 HD
ENDBRANCH  29  35
ENDBRANCH  19  29
TORSDOF 3
