REMARK  Name = ZINC63641756
REMARK  6 active torsions:
REMARK  status: ('A' for Active; 'I' for Inactive)
REMARK    1  A    between atoms: C_1  and  C_2
REMARK    2  A    between atoms: C_5  and  N_9
REMARK    3  A    between atoms: C_6  and  C_8
REMARK    4  A    between atoms: N_9  and  C_10
REMARK    5  A    between atoms: C_10  and  C_11
REMARK    6  A    between atoms: C_23  and  C_25
REMARK                            x       y       z     vdW  Elec       q    Type
REMARK                         _______ _______ _______ _____ _____    ______ ____
ROOT
ATOM      1  N   UNL     1       0.163  -3.983   0.030  0.00  0.00    -0.266 N 
ATOM      2  C   UNL     1      -1.095  -4.461  -0.041  0.00  0.00    +0.257 C 
ATOM      3  O   UNL     1      -1.286  -5.653  -0.195  0.00  0.00    -0.269 OA
ENDROOT
BRANCH   1   8
ATOM      4  C   UNL     1       1.052   1.573   0.748  0.00  0.00    +0.044 C 
ATOM      5  C   UNL     1       0.816   0.097   0.557  0.00  0.00    -0.050 A 
ATOM      6  C   UNL     1       0.690  -0.730   1.659  0.00  0.00    +0.005 A 
ATOM      7  C   UNL     1       0.474  -2.083   1.488  0.00  0.00    +0.024 A 
ATOM      8  C   UNL     1       0.382  -2.613   0.207  0.00  0.00    +0.040 A 
ATOM      9  C   UNL     1       0.508  -1.780  -0.897  0.00  0.00    -0.029 A 
ATOM     10  C   UNL     1       0.720  -0.427  -0.719  0.00  0.00    +0.008 A 
ATOM     11  C   UNL     1       0.409  -2.351  -2.288  0.00  0.00    +0.045 C 
ENDBRANCH   1   8
BRANCH   2  12
ATOM     12  C   UNL     1      -2.234  -3.545   0.067  0.00  0.00    +0.074 A 
ATOM     13  C   UNL     1      -3.591  -3.828   0.025  0.00  0.00    +0.021 A 
ATOM     14  C   UNL     1      -4.431  -2.748   0.155  0.00  0.00    +0.008 A 
ATOM     15  C   UNL     1      -3.895  -1.512   0.311  0.00  0.00    +0.046 A 
ATOM     16  S   UNL     1      -2.236  -1.776   0.293  0.00  0.00    -0.092 S 
ENDBRANCH   2  12
BRANCH   1  17
ATOM     17  C   UNL     1       1.301  -4.899  -0.078  0.00  0.00    +0.131 C 
BRANCH  17  18
ATOM     18  C   UNL     1       1.813  -5.243   1.322  0.00  0.00    +0.116 C 
ATOM     19  C   UNL     1       3.168  -5.908   1.171  0.00  0.00    -0.003 C 
ATOM     20  C   UNL     1       3.309  -7.162   1.689  0.00  0.00    -0.007 A 
ATOM     21  C   UNL     1       4.582  -7.876   1.587  0.00  0.00    +0.009 A 
ATOM     22  C   UNL     1       4.677  -9.123   2.116  0.00  0.00    +0.001 A 
ATOM     23  C   UNL     1       3.590  -9.729   2.749  0.00  0.00    +0.002 A 
ATOM     24  C   UNL     1       2.383  -9.119   2.876  0.00  0.00    +0.024 A 
ATOM     25  C   UNL     1       2.179  -7.825   2.362  0.00  0.00    +0.040 A 
ATOM     26  N   UNL     1       0.991  -7.236   2.493  0.00  0.00    -0.284 N 
ATOM     27  C   UNL     1       0.731  -6.024   2.033  0.00  0.00    +0.226 C 
ATOM     28  O   UNL     1      -0.374  -5.539   2.182  0.00  0.00    -0.275 OA
ATOM     29  H   UNL     1       0.283  -7.720   2.947  0.00  0.00    +0.155 HD
ENDBRANCH  17  18
ENDBRANCH   1  17
TORSDOF 4
