REMARK  Name = ZINC09183587
REMARK  12 active torsions:
REMARK  status: ('A' for Active; 'I' for Inactive)
REMARK    1  A    between atoms: C_1  and  N_2
REMARK    2  A    between atoms: N_2  and  C_3
REMARK    3  A    between atoms: N_2  and  C_4
REMARK    4  A    between atoms: C_7  and  C_10
REMARK    5  A    between atoms: N_11  and  N_12
REMARK    6  A    between atoms: N_12  and  C_13
REMARK    7  A    between atoms: C_16  and  S_22
REMARK    8  A    between atoms: C_18  and  N_19
REMARK    9  A    between atoms: S_22  and  N_25
REMARK   10  A    between atoms: N_25  and  C_26
REMARK   11  A    between atoms: C_29  and  O_32
REMARK   12  A    between atoms: O_32  and  C_33
REMARK                            x       y       z     vdW  Elec       q    Type
REMARK                         _______ _______ _______ _____ _____    ______ ____
ROOT
ATOM      1  C   UNL     1       2.203  -0.743   4.045  0.00  0.00    +0.079 A 
ATOM      2  C   UNL     1       2.972  -0.567   2.901  0.00  0.00    +0.029 A 
ATOM      3  C   UNL     1       2.358  -0.348   1.684  0.00  0.00    +0.031 A 
ATOM      4  C   UNL     1       0.978  -0.293   1.605  0.00  0.00    +0.111 A 
ATOM      5  C   UNL     1       0.209  -0.468   2.740  0.00  0.00    +0.063 A 
ATOM      6  C   UNL     1       0.816  -0.692   3.960  0.00  0.00    +0.150 A 
ENDROOT
BRANCH   6   7
ATOM      7  N   UNL     1      -0.010  -0.879   5.179  0.00  0.00    +0.058 N 
ATOM      8  O   UNL     1      -1.217  -0.723   5.126  0.00  0.00    -0.126 OA
ATOM      9  O   UNL     1       0.518  -1.187   6.232  0.00  0.00    -0.126 OA
ENDBRANCH   6   7
BRANCH   4  10
ATOM     10  S   UNL     1       0.198  -0.007   0.051  0.00  0.00    +0.072 S 
ATOM     11  O   UNL     1      -1.149  -0.439   0.187  0.00  0.00    -0.150 OA
ATOM     12  O   UNL     1       1.069  -0.530  -0.943  0.00  0.00    -0.150 OA
BRANCH  10  13
ATOM     13  N   UNL     1       0.149   1.632  -0.179  0.00  0.00    -0.216 N 
ATOM     14  H   UNL     1       0.638   2.034  -0.913  0.00  0.00    +0.174 HD
BRANCH  13  15
ATOM     15  C   UNL     1      -0.594   2.438   0.691  0.00  0.00    +0.048 A 
ATOM     16  C   UNL     1      -1.883   2.068   1.052  0.00  0.00    +0.028 A 
ATOM     17  C   UNL     1      -2.613   2.861   1.915  0.00  0.00    +0.047 A 
ATOM     18  C   UNL     1      -2.063   4.034   2.412  0.00  0.00    +0.120 A 
ATOM     19  C   UNL     1      -0.778   4.407   2.049  0.00  0.00    +0.047 A 
ATOM     20  C   UNL     1      -0.044   3.612   1.190  0.00  0.00    +0.028 A 
BRANCH  18  21
ATOM     21  O   UNL     1      -2.785   4.817   3.257  0.00  0.00    -0.495 OA
ATOM     22  C   UNL     1      -4.102   4.372   3.589  0.00  0.00    +0.277 C 
ENDBRANCH  18  21
ENDBRANCH  13  15
ENDBRANCH  10  13
ENDBRANCH   4  10
BRANCH   1  23
ATOM     23  N   UNL     1       2.820  -0.969   5.275  0.00  0.00    -0.236 N 
ATOM     24  H   UNL     1       2.283  -1.166   6.059  0.00  0.00    +0.174 HD
BRANCH  23  26
ATOM     25  C   UNL     1       4.790  -1.123   6.525  0.00  0.00    +0.138 C 
ATOM     26  N   UNL     1       4.216  -0.912   5.380  0.00  0.00    -0.190 NA
BRANCH  25  30
ATOM     27  C   UNL     1       9.021  -0.950   6.841  0.00  0.00    +0.029 A 
ATOM     28  C   UNL     1       8.252  -1.232   7.965  0.00  0.00    +0.024 A 
ATOM     29  C   UNL     1       6.879  -1.289   7.867  0.00  0.00    +0.011 A 
ATOM     30  C   UNL     1       6.259  -1.062   6.635  0.00  0.00    -0.005 A 
ATOM     31  C   UNL     1       7.035  -0.784   5.506  0.00  0.00    +0.011 A 
ATOM     32  C   UNL     1       8.407  -0.725   5.613  0.00  0.00    +0.024 A 
BRANCH  27  34
ATOM     33  C   UNL     1      11.060  -1.132   8.237  0.00  0.00    +0.129 C 
ATOM     34  N   UNL     1      10.412  -0.894   6.944  0.00  0.00    -0.336 N 
ATOM     35  C   UNL     1      11.223  -0.598   5.761  0.00  0.00    +0.129 C 
ENDBRANCH  27  34
ENDBRANCH  25  30
ENDBRANCH  23  26
ENDBRANCH   1  23
TORSDOF 9
