REMARK  Name = ZINC00242267
REMARK  4 active torsions:
REMARK  status: ('A' for Active; 'I' for Inactive)
REMARK    1  A    between atoms: C_1  and  C_2
REMARK    2  A    between atoms: C_7  and  C_15
REMARK    3  A    between atoms: C_9  and  C_13
REMARK    4  A    between atoms: C_10  and  N_12
REMARK                            x       y       z     vdW  Elec       q    Type
REMARK                         _______ _______ _______ _____ _____    ______ ____
ROOT
ATOM      1  C   UNL     1      -0.051   1.095  -0.016  0.00  0.00    +0.008 C 
ATOM      2  C   UNL     1      -0.758   1.587   1.249  0.00  0.00    +0.001 C 
ATOM      3  C   UNL     1      -2.190   1.049   1.280  0.00  0.00    +0.078 C 
ATOM      4  C   UNL     1      -2.873   1.497   2.551  0.00  0.00    +0.115 C 
ATOM      5  C   UNL     1      -2.169   1.684   3.682  0.00  0.00    +0.046 C 
ATOM      6  C   UNL     1      -2.858   2.113   4.954  0.00  0.00    +0.102 C 
ATOM      7  C   UNL     1      -4.335   1.848   4.856  0.00  0.00    +0.098 C 
ATOM      8  C   UNL     1      -4.918   1.656   3.648  0.00  0.00    +0.198 C 
ATOM      9  O   UNL     1      -4.204   1.701   2.513  0.00  0.00    -0.445 OA
ATOM     10  C   UNL     1      -0.775   1.484   3.717  0.00  0.00    +0.164 C 
ATOM     11  O   UNL     1      -0.176   1.649   4.761  0.00  0.00    -0.292 OA
ATOM     12  C   UNL     1      -0.015   1.072   2.486  0.00  0.00    +0.083 C 
ENDROOT
BRANCH   6  13
ATOM     13  C   UNL     1      -2.628   3.586   5.176  0.00  0.00    -0.027 A 
ATOM     14  C   UNL     1      -2.952   4.482   4.203  0.00  0.00    +0.005 A 
ATOM     15  C   UNL     1      -2.747   5.848   4.390  0.00  0.00    +0.001 A 
ATOM     16  C   UNL     1      -2.218   6.325   5.550  0.00  0.00    +0.008 A 
ATOM     17  C   UNL     1      -1.872   5.430   6.576  0.00  0.00    -0.018 A 
ATOM     18  C   UNL     1      -2.085   4.041   6.388  0.00  0.00    -0.014 A 
ATOM     19  C   UNL     1      -1.732   3.146   7.412  0.00  0.00    +0.009 A 
ATOM     20  C   UNL     1      -1.203   3.623   8.572  0.00  0.00    +0.001 A 
ATOM     21  C   UNL     1      -0.999   4.989   8.759  0.00  0.00    +0.001 A 
ATOM     22  C   UNL     1      -1.323   5.885   7.787  0.00  0.00    +0.008 A 
ENDBRANCH   6  13
BRANCH   8  23
ATOM     23  N   UNL     1      -6.267   1.412   3.584  0.00  0.00    -0.328 N 
ATOM     24  H   UNL     1      -6.793   1.378   4.399  0.00  0.00    +0.145 HD
ATOM     25  H   UNL     1      -6.695   1.273   2.725  0.00  0.00    +0.145 HD
ENDBRANCH   8  23
BRANCH   7  26
ATOM     26  C   UNL     1      -5.130   1.798   6.046  0.00  0.00    +0.101 C 
ATOM     27  N   UNL     1      -5.760   1.758   6.990  0.00  0.00    -0.191 NA
ENDBRANCH   7  26
TORSDOF 3
