REMARK  Name = ZINC36616515
REMARK  11 active torsions:
REMARK  status: ('A' for Active; 'I' for Inactive)
REMARK    1  A    between atoms: C_1  and  C_2
REMARK    2  A    between atoms: C_4  and  C_20
REMARK    3  A    between atoms: C_6  and  C_17
REMARK    4  A    between atoms: N_9  and  C_11
REMARK    5  A    between atoms: N_22  and  C_23
REMARK    6  A    between atoms: C_23  and  C_25
REMARK    7  A    between atoms: C_23  and  C_31
REMARK    8  A    between atoms: C_25  and  N_26
REMARK    9  A    between atoms: C_31  and  C_32
REMARK   10  A    between atoms: C_31  and  C_33
REMARK   11  A    between atoms: C_31  and  C_34
REMARK                            x       y       z     vdW  Elec       q    Type
REMARK                         _______ _______ _______ _____ _____    ______ ____
ROOT
ATOM      1  C   UNL     1      -0.177   1.499   0.021  0.00  0.00    +0.068 C 
ATOM      2  C   UNL     1      -0.130  -0.007   0.011  0.00  0.00    +0.070 A 
ATOM      3  C   UNL     1      -0.154  -0.824  -1.140  0.00  0.00    +0.054 A 
ATOM      4  C   UNL     1      -0.223  -0.561  -2.526  0.00  0.00    +0.051 A 
ATOM      5  C   UNL     1      -0.226  -1.650  -3.395  0.00  0.00    +0.037 A 
ATOM      6  C   UNL     1      -0.162  -2.935  -2.875  0.00  0.00    +0.048 A 
ATOM      7  N   UNL     1      -0.099  -3.153  -1.580  0.00  0.00    -0.232 NA
ATOM      8  C   UNL     1      -0.092  -2.162  -0.701  0.00  0.00    +0.164 A 
ATOM      9  N   UNL     1      -0.033  -2.116   0.670  0.00  0.00    -0.214 N 
ATOM     10  N   UNL     1      -0.053  -0.772   1.063  0.00  0.00    -0.169 NA
ENDROOT
BRANCH   9  11
ATOM     11  C   UNL     1       0.039  -3.221   1.527  0.00  0.00    +0.068 A 
ATOM     12  C   UNL     1      -0.624  -4.398   1.203  0.00  0.00    +0.028 A 
ATOM     13  C   UNL     1      -0.550  -5.486   2.050  0.00  0.00    +0.002 A 
ATOM     14  C   UNL     1       0.182  -5.405   3.220  0.00  0.00    +0.000 A 
ATOM     15  C   UNL     1       0.843  -4.235   3.546  0.00  0.00    +0.002 A 
ATOM     16  C   UNL     1       0.778  -3.145   2.700  0.00  0.00    +0.028 A 
ENDBRANCH   9  11
BRANCH   4  17
ATOM     17  C   UNL     1      -0.290   0.824  -3.038  0.00  0.00    +0.245 C 
ATOM     18  O   UNL     1       0.354   1.703  -2.500  0.00  0.00    -0.270 OA
ATOM     19  N   UNL     1      -1.065   1.112  -4.103  0.00  0.00    -0.306 N 
ATOM     20  H   UNL     1      -1.579   0.411  -4.533  0.00  0.00    +0.149 HD
BRANCH  19  21
ATOM     21  C   UNL     1      -1.131   2.485  -4.611  0.00  0.00    +0.100 C 
BRANCH  21  22
ATOM     22  C   UNL     1       0.031   2.729  -5.575  0.00  0.00    -0.018 C 
ATOM     23  C   UNL     1      -0.063   1.747  -6.745  0.00  0.00    +0.012 C 
ATOM     24  C   UNL     1      -0.039   4.162  -6.106  0.00  0.00    +0.012 C 
ATOM     25  C   UNL     1       1.356   2.520  -4.840  0.00  0.00    +0.012 C 
ENDBRANCH  21  22
BRANCH  21  26
ATOM     26  C   UNL     1      -2.457   2.693  -5.346  0.00  0.00    +0.166 C 
BRANCH  26  27
ATOM     27  N   UNL     1      -3.566   2.577  -4.395  0.00  0.00    -0.270 N 
ATOM     28  C   UNL     1      -4.530   3.498  -4.184  0.00  0.00    +0.108 A 
ATOM     29  C   UNL     1      -5.361   3.014  -3.232  0.00  0.00    +0.041 A 
ATOM     30  C   UNL     1      -4.889   1.754  -2.849  0.00  0.00    +0.134 A 
ATOM     31  N   UNL     1      -3.816   1.489  -3.550  0.00  0.00    -0.180 NA
ENDBRANCH  26  27
ENDBRANCH  21  26
ENDBRANCH  19  21
ENDBRANCH   4  17
BRANCH   6  32
ATOM     32  C   UNL     1      -0.166  -4.110  -3.819  0.00  0.00    +0.038 C 
ATOM     33  C   UNL     1      -0.620  -3.859  -5.258  0.00  0.00    +0.010 C 
ATOM     34  C   UNL     1      -1.524  -4.630  -4.294  0.00  0.00    +0.010 C 
ENDBRANCH   6  32
TORSDOF 7
