REMARK  Name = ZINC37254504
REMARK  5 active torsions:
REMARK  status: ('A' for Active; 'I' for Inactive)
REMARK    1  A    between atoms: C_1  and  C_2
REMARK    2  A    between atoms: C_7  and  N_10
REMARK    3  A    between atoms: N_10  and  S_11
REMARK    4  A    between atoms: S_11  and  C_14
REMARK    5  A    between atoms: C_15  and  N_22
REMARK                            x       y       z     vdW  Elec       q    Type
REMARK                         _______ _______ _______ _____ _____    ______ ____
ROOT
ATOM      1  S   UNL     1       2.961  -4.510   0.086  0.00  0.00    +0.062 S 
ATOM      2  O   UNL     1       3.512  -4.992  -1.132  0.00  0.00    -0.153 OA
ATOM      3  O   UNL     1       3.715  -4.444   1.289  0.00  0.00    -0.153 OA
ENDROOT
BRANCH   1   4
ATOM      4  C   UNL     1       1.550  -5.506   0.429  0.00  0.00    +0.144 A 
ATOM      5  C   UNL     1       1.109  -5.661   1.738  0.00  0.00    +0.054 A 
ATOM      6  C   UNL     1      -0.004  -6.447   2.005  0.00  0.00    +0.044 A 
ATOM      7  C   UNL     1      -0.671  -7.073   0.969  0.00  0.00    +0.044 A 
ATOM      8  C   UNL     1      -0.231  -6.918  -0.333  0.00  0.00    +0.042 A 
ATOM      9  C   UNL     1       0.875  -6.131  -0.603  0.00  0.00    +0.070 A 
ATOM     10 CL   UNL     1       1.421  -5.933  -2.240  0.00  0.00    -0.081 Cl
ATOM     11 CL   UNL     1      -2.063  -8.056   1.302  0.00  0.00    -0.083 Cl
BRANCH   5  12
ATOM     12  N   UNL     1       1.786  -5.027   2.783  0.00  0.00    -0.356 N 
ATOM     13  H   UNL     1       2.326  -4.241   2.605  0.00  0.00    +0.142 HD
ATOM     14  H   UNL     1       1.715  -5.373   3.686  0.00  0.00    +0.142 HD
ENDBRANCH   5  12
ENDBRANCH   1   4
BRANCH   1  15
ATOM     15  N   UNL     1       2.416  -2.976  -0.216  0.00  0.00    -0.187 NA
ATOM     16  H   UNL     1       2.529  -2.586  -1.097  0.00  0.00    +0.148 HD
BRANCH  15  22
ATOM     17  C   UNL     1       2.012   1.262  -0.805  0.00  0.00    +0.007 C 
ATOM     18  C   UNL     1       1.650  -0.218  -0.660  0.00  0.00    -0.013 C 
ATOM     19  C   UNL     1       0.133  -0.386  -0.767  0.00  0.00    +0.003 C 
ATOM     20  C   UNL     1      -0.228  -1.865  -0.622  0.00  0.00    +0.002 C 
ATOM     21  C   UNL     1       0.247  -2.375   0.740  0.00  0.00    +0.020 C 
ATOM     22  C   UNL     1       1.764  -2.208   0.847  0.00  0.00    +0.077 C 
ATOM     23  C   UNL     1       2.125  -0.728   0.702  0.00  0.00    +0.023 C 
ENDBRANCH  15  22
ENDBRANCH   1  15
TORSDOF 4
