REMARK  Name = ZINC12454658
REMARK  8 active torsions:
REMARK  status: ('A' for Active; 'I' for Inactive)
REMARK    1  A    between atoms: C_1  and  N_2
REMARK    2  A    between atoms: N_2  and  C_3
REMARK    3  A    between atoms: N_2  and  C_9
REMARK    4  A    between atoms: C_12  and  C_15
REMARK    5  A    between atoms: C_15  and  N_63
REMARK    6  A    between atoms: C_22  and  C_26
REMARK    7  A    between atoms: C_26  and  C_28
REMARK    8  A    between atoms: C_26  and  O_34
REMARK                            x       y       z     vdW  Elec       q    Type
REMARK                         _______ _______ _______ _____ _____    ______ ____
ROOT
ATOM      1  C   UNL     1      -1.887   1.468   7.426  0.00  0.00    -0.036 C 
ATOM      2  C   UNL     1      -2.604   2.763   7.111  0.00  0.00    +0.210 C 
ATOM      3  O   UNL     1      -3.622   2.554   6.125  0.00  0.00    -0.494 OA
ATOM      4  C   UNL     1      -3.202   2.614   4.832  0.00  0.00    +0.122 A 
ATOM      5  C   UNL     1      -3.589   3.670   4.019  0.00  0.00    +0.046 A 
ATOM      6  C   UNL     1      -3.116   3.743   2.722  0.00  0.00    +0.010 A 
ATOM      7  C   UNL     1      -2.271   2.764   2.233  0.00  0.00    -0.014 A 
ATOM      8  C   UNL     1      -1.892   1.706   3.042  0.00  0.00    +0.011 A 
ATOM      9  C   UNL     1      -2.366   1.631   4.335  0.00  0.00    -0.022 A 
ATOM     10  C   UNL     1      -1.993   0.454   5.215  0.00  0.00    -0.039 C 
ATOM     11  N   UNL     1      -1.098   0.954   6.286  0.00  0.00    +0.387 N 
ATOM     12  H   UNL     1      -0.527   1.719   5.908  0.00  0.00    -0.081 HD
ENDROOT
BRANCH  11  13
ATOM     13  C   UNL     1      -0.207  -0.126   6.742  0.00  0.00    -0.042 C 
BRANCH  13  17
ATOM     14  C   UNL     1       2.792   1.565   9.274  0.00  0.00    +0.034 A 
ATOM     15  C   UNL     1       1.609   1.085   9.821  0.00  0.00    +0.023 A 
ATOM     16  C   UNL     1       0.642   0.540   9.000  0.00  0.00    +0.003 A 
ATOM     17  C   UNL     1       0.850   0.470   7.634  0.00  0.00    -0.064 A 
ATOM     18  C   UNL     1       2.030   0.942   7.087  0.00  0.00    +0.003 A 
ATOM     19  C   UNL     1       2.998   1.494   7.902  0.00  0.00    +0.023 A 
BRANCH  14  21
ATOM     20  C   UNL     1       3.764   3.555  10.387  0.00  0.00    +0.135 C 
ATOM     21  N   UNL     1       3.772   2.118  10.101  0.00  0.00    -0.303 N 
BRANCH  21  22
ATOM     22  C   UNL     1       4.760   1.301  10.657  0.00  0.00    +0.034 A 
ATOM     23  C   UNL     1       4.835  -0.040  10.301  0.00  0.00    +0.023 A 
ATOM     24  C   UNL     1       5.816  -0.844  10.848  0.00  0.00    +0.002 A 
ATOM     25  C   UNL     1       6.716  -0.318  11.757  0.00  0.00    +0.000 A 
ATOM     26  C   UNL     1       6.641   1.015  12.117  0.00  0.00    +0.002 A 
ATOM     27  C   UNL     1       5.666   1.826  11.569  0.00  0.00    +0.023 A 
ENDBRANCH  21  22
ENDBRANCH  14  21
ENDBRANCH  13  17
ENDBRANCH  11  13
BRANCH   7  28
ATOM     28  C   UNL     1      -1.757   2.851   0.820  0.00  0.00    +0.176 C 
BRANCH  28  29
ATOM     29  C   UNL     1      -0.534   3.731   0.783  0.00  0.00    +0.003 A 
ATOM     30  C   UNL     1       0.734   3.170   0.757  0.00  0.00    +0.009 A 
ATOM     31  C   UNL     1       1.830   4.017   0.719  0.00  0.00    +0.020 A 
ATOM     32  C   UNL     1       1.625   5.384   0.720  0.00  0.00    +0.111 A 
ATOM     33  N   UNL     1       0.404   5.883   0.751  0.00  0.00    -0.263 NA
ATOM     34  C   UNL     1      -0.661   5.107   0.781  0.00  0.00    +0.117 A 
ENDBRANCH  28  29
BRANCH  28  35
ATOM     35  O   UNL     1      -2.769   3.408  -0.022  0.00  0.00    -0.382 OA
ATOM     36  H   UNL     1      -3.050   4.297   0.236  0.00  0.00    +0.211 HD
ENDBRANCH  28  35
ENDBRANCH   7  28
TORSDOF 7
