REMARK  Name = ZINC20753314
REMARK  4 active torsions:
REMARK  status: ('A' for Active; 'I' for Inactive)
REMARK    1  A    between atoms: C_1  and  C_2
REMARK    2  A    between atoms: N_4  and  C_5
REMARK    3  A    between atoms: N_4  and  C_6
REMARK    4  A    between atoms: C_19  and  C_22
REMARK                            x       y       z     vdW  Elec       q    Type
REMARK                         _______ _______ _______ _____ _____    ______ ____
ROOT
ATOM      1  C   UNL     1      -2.992  -2.025  -1.103  0.00  0.00    +0.036 A 
ATOM      2  C   UNL     1      -4.034  -1.264  -0.590  0.00  0.00    +0.025 A 
ATOM      3  C   UNL     1      -3.764  -0.119   0.131  0.00  0.00    +0.025 A 
ATOM      4  C   UNL     1      -2.452   0.281   0.350  0.00  0.00    +0.031 A 
ATOM      5  C   UNL     1      -1.405  -0.495  -0.158  0.00  0.00    -0.018 A 
ATOM      6  C   UNL     1      -1.679  -1.635  -0.883  0.00  0.00    +0.029 A 
ATOM      7  C   UNL     1      -0.023  -0.043   0.117  0.00  0.00    +0.049 C 
ATOM      8  C   UNL     1       1.095  -0.388  -0.798  0.00  0.00    -0.023 C 
ATOM      9  C   UNL     1       1.985   0.597  -0.769  0.00  0.00    -0.030 C 
ATOM     10  C   UNL     1       1.501   1.712   0.160  0.00  0.00    +0.033 C 
ATOM     11  C   UNL     1      -0.020   1.515   0.113  0.00  0.00    +0.029 C 
ATOM     12  C   UNL     1      -0.810   1.923   1.344  0.00  0.00    +0.106 C 
ATOM     13  N   UNL     1      -2.207   1.460   1.069  0.00  0.00    -0.336 N 
ATOM     14  H   UNL     1      -3.063   2.048   1.433  0.00  0.00    +0.147 HD
ENDROOT
BRANCH  12  15
ATOM     15  C   UNL     1      -0.783   3.421   1.506  0.00  0.00    -0.012 A 
ATOM     16  C   UNL     1      -1.554   4.231   0.673  0.00  0.00    -0.012 A 
ATOM     17  C   UNL     1      -2.372   3.672  -0.333  0.00  0.00    +0.009 A 
ATOM     18  C   UNL     1      -3.110   4.489  -1.127  0.00  0.00    +0.001 A 
ATOM     19  C   UNL     1      -3.085   5.876  -0.977  0.00  0.00    +0.001 A 
ATOM     20  C   UNL     1      -2.330   6.477  -0.022  0.00  0.00    +0.008 A 
ATOM     21  C   UNL     1      -1.533   5.688   0.834  0.00  0.00    -0.017 A 
ATOM     22  C   UNL     1      -0.733   6.274   1.814  0.00  0.00    +0.017 A 
ATOM     23  C   UNL     1       0.043   5.465   2.642  0.00  0.00    -0.017 A 
ATOM     24  C   UNL     1       0.017   4.007   2.485  0.00  0.00    -0.012 A 
ATOM     25  C   UNL     1       0.815   3.218   3.342  0.00  0.00    +0.009 A 
ATOM     26  C   UNL     1       1.582   3.820   4.285  0.00  0.00    +0.001 A 
ATOM     27  C   UNL     1       1.607   5.207   4.435  0.00  0.00    +0.001 A 
ATOM     28  C   UNL     1       0.864   6.024   3.645  0.00  0.00    +0.008 A 
ENDBRANCH  12  15
BRANCH   1  32
ATOM     29  C   UNL     1      -4.811  -4.948  -2.631  0.00  0.00    +0.109 C 
ATOM     30  C   UNL     1      -4.531  -3.642  -1.933  0.00  0.00    +0.216 C 
ATOM     31  O   UNL     1      -5.443  -3.002  -1.454  0.00  0.00    -0.276 OA
ATOM     32  N   UNL     1      -3.267  -3.184  -1.841  0.00  0.00    -0.275 N 
ATOM     33  C   UNL     1      -2.179  -3.899  -2.514  0.00  0.00    +0.138 C 
ENDBRANCH   1  32
TORSDOF 2
