REMARK  Name = ZINC06407930
REMARK  12 active torsions:
REMARK  status: ('A' for Active; 'I' for Inactive)
REMARK    1  A    between atoms: C_1  and  C_2
REMARK    2  A    between atoms: C_5  and  C_7
REMARK    3  A    between atoms: C_12  and  C_17
REMARK    4  A    between atoms: C_20  and  O_25
REMARK    5  A    between atoms: C_21  and  O_23
REMARK    6  A    between atoms: O_23  and  C_24
REMARK    7  A    between atoms: O_25  and  C_26
REMARK    8  A    between atoms: C_28  and  C_40
REMARK    9  A    between atoms: C_29  and  C_30
REMARK   10  A    between atoms: C_30  and  O_32
REMARK   11  A    between atoms: O_32  and  C_33
REMARK   12  A    between atoms: C_33  and  C_34
REMARK                            x       y       z     vdW  Elec       q    Type
REMARK                         _______ _______ _______ _____ _____    ______ ____
ROOT
ATOM      1  C   UNL     1      -0.012   4.269  -0.318  0.00  0.00    +0.128 C 
ATOM      2  C   UNL     1       0.270   5.744  -0.458  0.00  0.00    +0.027 C 
ATOM      3  C   UNL     1       1.478   6.248  -0.133  0.00  0.00    +0.016 C 
ATOM      4  C   UNL     1       1.769   7.722  -0.272  0.00  0.00    +0.059 C 
ATOM      5  C   UNL     1       0.483   8.523  -0.054  0.00  0.00    +0.032 C 
ATOM      6  C   UNL     1      -0.557   8.059  -1.080  0.00  0.00    +0.088 C 
ATOM      7  C   UNL     1      -0.759   6.575  -0.934  0.00  0.00    +0.162 C 
ATOM      8  O   UNL     1      -1.831   6.087  -1.233  0.00  0.00    -0.292 OA
ATOM      9  N   UNL     1       2.472   5.428   0.330  0.00  0.00    -0.321 N 
ATOM     10  C   UNL     1       2.424   4.080   0.108  0.00  0.00    +0.016 C 
ATOM     11  C   UNL     1       1.262   3.484  -0.213  0.00  0.00    +0.068 C 
ATOM     12  C   UNL     1       3.681   3.257   0.219  0.00  0.00    +0.061 C 
ATOM     13  H   UNL     1       3.321   5.852   0.887  0.00  0.00    +0.152 HD
ENDROOT
BRANCH   1  18
ATOM     14  C   UNL     1      -1.417   4.155   4.525  0.00  0.00    +0.086 C 
ATOM     15  C   UNL     1      -1.449   3.990   3.027  0.00  0.00    +0.102 A 
ATOM     16  C   UNL     1      -2.469   3.481   2.313  0.00  0.00    +0.044 A 
ATOM     17  C   UNL     1      -2.076   3.514   0.956  0.00  0.00    +0.046 A 
ATOM     18  C   UNL     1      -0.838   4.040   0.921  0.00  0.00    +0.117 A 
ATOM     19  O   UNL     1      -0.461   4.321   2.179  0.00  0.00    -0.464 OA
ENDBRANCH   1  18
BRANCH   5  20
ATOM     20  C   UNL     1       0.762   9.991  -0.245  0.00  0.00    -0.040 A 
ATOM     21  C   UNL     1       1.238  10.451  -1.459  0.00  0.00    +0.008 A 
ATOM     22  C   UNL     1       1.496  11.797  -1.639  0.00  0.00    +0.049 A 
ATOM     23  C   UNL     1       1.277  12.689  -0.601  0.00  0.00    +0.161 A 
ATOM     24  C   UNL     1       0.797  12.226   0.620  0.00  0.00    +0.162 A 
ATOM     25  C   UNL     1       0.536  10.877   0.792  0.00  0.00    +0.053 A 
BRANCH  24  26
ATOM     26  O   UNL     1       0.581  13.098   1.642  0.00  0.00    -0.491 OA
ATOM     27  C   UNL     1       0.088  12.552   2.867  0.00  0.00    +0.277 C 
ENDBRANCH  24  26
BRANCH  23  28
ATOM     28  O   UNL     1       1.530  14.014  -0.776  0.00  0.00    -0.491 OA
ATOM     29  C   UNL     1       2.021  14.417  -2.057  0.00  0.00    +0.277 C 
ENDBRANCH  23  28
ENDBRANCH   5  20
BRANCH  11  30
ATOM     30  C   UNL     1       1.240   2.090  -0.451  0.00  0.00    +0.338 C 
ATOM     31  O   UNL     1       2.282   1.462  -0.484  0.00  0.00    -0.245 OA
BRANCH  30  32
ATOM     32  O   UNL     1       0.064   1.456  -0.640  0.00  0.00    -0.457 OA
BRANCH  32  33
ATOM     33  C   UNL     1       0.117   0.048  -0.875  0.00  0.00    +0.268 C 
BRANCH  33  34
ATOM     34  C   UNL     1      -1.282  -0.482  -1.062  0.00  0.00    -0.010 A 
ATOM     35  C   UNL     1      -2.003  -0.930   0.028  0.00  0.00    +0.007 A 
ATOM     36  C   UNL     1      -3.287  -1.412  -0.143  0.00  0.00    +0.000 A 
ATOM     37  C   UNL     1      -3.846  -1.456  -1.407  0.00  0.00    +0.000 A 
ATOM     38  C   UNL     1      -3.123  -1.013  -2.498  0.00  0.00    +0.000 A 
ATOM     39  C   UNL     1      -1.841  -0.526  -2.326  0.00  0.00    +0.007 A 
ENDBRANCH  33  34
ENDBRANCH  32  33
ENDBRANCH  30  32
ENDBRANCH  11  30
TORSDOF 8
