REMARK  Name = ZINC36541731
REMARK  10 active torsions:
REMARK  status: ('A' for Active; 'I' for Inactive)
REMARK    1  A    between atoms: C_1  and  C_2
REMARK    2  A    between atoms: C_3  and  C_4
REMARK    3  A    between atoms: C_4  and  C_6
REMARK    4  A    between atoms: C_4  and  N_15
REMARK    5  A    between atoms: N_8  and  C_9
REMARK    6  A    between atoms: N_15  and  C_16
REMARK    7  A    between atoms: C_23  and  C_25
REMARK    8  A    between atoms: C_33  and  C_35
REMARK    9  A    between atoms: C_36  and  C_37
REMARK   10  A    between atoms: C_36  and  C_38
REMARK                            x       y       z     vdW  Elec       q    Type
REMARK                         _______ _______ _______ _____ _____    ______ ____
ROOT
ATOM      1  N   UNL     1       0.110  -2.049   0.416  0.00  0.00    -0.254 N 
ATOM      2  C   UNL     1      -0.509  -3.211   0.706  0.00  0.00    +0.224 C 
ATOM      3  O   UNL     1      -0.785  -3.989  -0.182  0.00  0.00    -0.275 OA
ENDROOT
BRANCH   2   4
ATOM      4  C   UNL     1      -0.861  -3.545   2.144  0.00  0.00    +0.079 C 
ATOM      5  C   UNL     1       0.379  -4.101   2.836  0.00  0.00    +0.017 C 
ATOM      6  C   UNL     1       0.051  -5.222   3.821  0.00  0.00    -0.004 C 
ATOM      7  C   UNL     1      -0.662  -6.397   3.120  0.00  0.00    +0.008 C 
ATOM      8  C   UNL     1      -1.933  -5.528   3.300  0.00  0.00    -0.001 C 
ATOM      9  C   UNL     1      -2.026  -4.528   2.149  0.00  0.00    +0.001 C 
ATOM     10  C   UNL     1      -3.362  -3.782   2.183  0.00  0.00    +0.008 C 
ATOM     11  C   UNL     1      -1.268  -5.018   4.580  0.00  0.00    -0.029 C 
ATOM     12  C   UNL     1      -1.429  -5.982   5.773  0.00  0.00    +0.011 C 
ATOM     13  C   UNL     1      -1.571  -3.583   4.998  0.00  0.00    +0.011 C 
ENDBRANCH   2   4
BRANCH   1  14
ATOM     14  C   UNL     1       0.522  -1.199   1.449  0.00  0.00    +0.056 A 
ATOM     15  C   UNL     1       1.810  -1.297   1.959  0.00  0.00    +0.025 A 
ATOM     16  C   UNL     1       2.214  -0.457   2.978  0.00  0.00    +0.002 A 
ATOM     17  C   UNL     1       1.337   0.481   3.491  0.00  0.00    +0.002 A 
ATOM     18  C   UNL     1       0.054   0.582   2.987  0.00  0.00    +0.022 A 
ATOM     19  C   UNL     1      -0.355  -0.252   1.963  0.00  0.00    +0.062 A 
ATOM     20 CL   UNL     1      -1.964  -0.119   1.325  0.00  0.00    -0.082 Cl
ENDBRANCH   1  14
BRANCH   1  21
ATOM     21  C   UNL     1       0.350  -1.676  -0.980  0.00  0.00    +0.190 C 
BRANCH  21  22
ATOM     22  C   UNL     1      -0.958  -1.658  -1.728  0.00  0.00    +0.238 C 
ATOM     23  O   UNL     1      -1.968  -2.061  -1.192  0.00  0.00    -0.273 OA
ATOM     24  N   UNL     1      -1.005  -1.194  -2.993  0.00  0.00    -0.311 N 
ATOM     25  H   UNL     1      -0.197  -0.872  -3.421  0.00  0.00    +0.149 HD
BRANCH  24  26
ATOM     26  C   UNL     1      -2.276  -1.177  -3.720  0.00  0.00    +0.073 C 
ATOM     27  C   UNL     1      -2.512  -2.543  -4.367  0.00  0.00    +0.022 C 
ATOM     28  C   UNL     1      -3.840  -2.525  -5.127  0.00  0.00    +0.002 C 
ATOM     29  C   UNL     1      -3.793  -1.447  -6.212  0.00  0.00    +0.000 C 
ATOM     30  C   UNL     1      -3.557  -0.081  -5.564  0.00  0.00    +0.002 C 
ATOM     31  C   UNL     1      -2.229  -0.099  -4.805  0.00  0.00    +0.022 C 
ENDBRANCH  24  26
ENDBRANCH  21  22
BRANCH  21  34
ATOM     32  C   UNL     1       2.631  -4.710  -1.551  0.00  0.00    +0.035 C 
ATOM     33  C   UNL     1       1.791  -3.645  -0.894  0.00  0.00    -0.032 C 
ATOM     34  C   UNL     1       1.279  -2.679  -1.615  0.00  0.00    +0.000 C 
ENDBRANCH  21  34
ENDBRANCH   1  21
TORSDOF 6
