REMARK  Name = ZINC02801501
REMARK  6 active torsions:
REMARK  status: ('A' for Active; 'I' for Inactive)
REMARK    1  A    between atoms: C_1  and  C_2
REMARK    2  A    between atoms: C_3  and  C_29
REMARK    3  A    between atoms: C_4  and  C_21
REMARK    4  A    between atoms: C_10  and  C_15
REMARK    5  A    between atoms: C_29  and  O_31
REMARK    6  A    between atoms: O_31  and  C_32
REMARK                            x       y       z     vdW  Elec       q    Type
REMARK                         _______ _______ _______ _____ _____    ______ ____
ROOT
ATOM      1  C   UNL     1       5.468   7.483   3.897  0.00  0.00    +0.061 C 
ATOM      2  C   UNL     1       5.231   6.919   2.519  0.00  0.00    +0.016 C 
ATOM      3  C   UNL     1       5.868   7.451   1.462  0.00  0.00    +0.065 C 
ATOM      4  C   UNL     1       5.663   6.912   0.077  0.00  0.00    +0.094 C 
ATOM      5  C   UNL     1       4.410   6.075   0.002  0.00  0.00    +0.024 C 
ATOM      6  C   UNL     1       3.831   5.598   1.124  0.00  0.00    +0.016 C 
ATOM      7  N   UNL     1       4.369   5.872   2.353  0.00  0.00    -0.321 N 
ATOM      8  C   UNL     1       2.580   4.758   1.057  0.00  0.00    +0.059 C 
ATOM      9  C   UNL     1       2.564   3.964  -0.252  0.00  0.00    +0.032 C 
ATOM     10  C   UNL     1       2.636   4.953  -1.420  0.00  0.00    +0.088 C 
ATOM     11  C   UNL     1       3.867   5.804  -1.266  0.00  0.00    +0.162 C 
ATOM     12  O   UNL     1       4.401   6.265  -2.255  0.00  0.00    -0.292 OA
ATOM     13  H   UNL     1       4.101   5.238   3.212  0.00  0.00    +0.152 HD
ENDROOT
BRANCH   4  14
ATOM     14  C   UNL     1       6.848   6.062  -0.304  0.00  0.00    -0.017 A 
ATOM     15  C   UNL     1       7.152   4.931   0.430  0.00  0.00    +0.007 A 
ATOM     16  C   UNL     1       8.238   4.152   0.081  0.00  0.00    +0.020 A 
ATOM     17  C   UNL     1       9.023   4.503  -1.004  0.00  0.00    +0.042 A 
ATOM     18  C   UNL     1       8.719   5.635  -1.738  0.00  0.00    +0.040 A 
ATOM     19  C   UNL     1       7.628   6.412  -1.391  0.00  0.00    +0.046 A 
ATOM     20 CL   UNL     1       7.243   7.830  -2.317  0.00  0.00    -0.083 Cl
ATOM     21 CL   UNL     1      10.388   3.524  -1.441  0.00  0.00    -0.083 Cl
ENDBRANCH   4  14
BRANCH   9  22
ATOM     22  C   UNL     1       1.291   3.164  -0.343  0.00  0.00    -0.044 A 
ATOM     23  C   UNL     1       1.346   1.786  -0.439  0.00  0.00    +0.004 A 
ATOM     24  C   UNL     1       0.178   1.051  -0.522  0.00  0.00    +0.000 A 
ATOM     25  C   UNL     1      -1.045   1.695  -0.514  0.00  0.00    +0.000 A 
ATOM     26  C   UNL     1      -1.101   3.072  -0.414  0.00  0.00    +0.000 A 
ATOM     27  C   UNL     1       0.068   3.807  -0.331  0.00  0.00    +0.004 A 
ENDBRANCH   9  22
BRANCH   3  28
ATOM     28  C   UNL     1       6.749   8.540   1.659  0.00  0.00    +0.338 C 
ATOM     29  O   UNL     1       6.845   9.054   2.757  0.00  0.00    -0.245 OA
BRANCH  28  30
ATOM     30  O   UNL     1       7.484   9.008   0.628  0.00  0.00    -0.458 OA
BRANCH  30  31
ATOM     31  C   UNL     1       8.353  10.110   0.899  0.00  0.00    +0.177 C 
ATOM     32  C   UNL     1       7.604  11.422   0.658  0.00  0.00    +0.044 C 
ATOM     33  C   UNL     1       8.534  12.601   0.947  0.00  0.00    +0.004 C 
ATOM     34  C   UNL     1       9.750  12.531   0.021  0.00  0.00    +0.000 C 
ATOM     35  C   UNL     1      10.499  11.219   0.262  0.00  0.00    +0.004 C 
ATOM     36  C   UNL     1       9.569  10.039  -0.027  0.00  0.00    +0.044 C 
ENDBRANCH  30  31
ENDBRANCH  28  30
ENDBRANCH   3  28
TORSDOF 5
