REMARK  Name = ZINC63240777
REMARK  11 active torsions:
REMARK  status: ('A' for Active; 'I' for Inactive)
REMARK    1  A    between atoms: C_1  and  C_2
REMARK    2  A    between atoms: C_2  and  C_3
REMARK    3  A    between atoms: C_3  and  C_4
REMARK    4  A    between atoms: C_4  and  C_5
REMARK    5  A    between atoms: C_5  and  C_6
REMARK    6  A    between atoms: C_6  and  N_7
REMARK    7  A    between atoms: C_8  and  C_23
REMARK    8  A    between atoms: C_11  and  S_12
REMARK    9  A    between atoms: S_12  and  C_13
REMARK   10  A    between atoms: C_13  and  C_14
REMARK   11  A    between atoms: C_14  and  C_16
REMARK                            x       y       z     vdW  Elec       q    Type
REMARK                         _______ _______ _______ _____ _____    ______ ____
ROOT
ATOM      1  N   UNL     1      -4.202  -4.630   0.017  0.00  0.00    -0.302 N 
ATOM      2  C   UNL     1      -4.976  -4.920   1.126  0.00  0.00    +0.163 A 
ATOM      3  N   UNL     1      -6.147  -5.349   0.678  0.00  0.00    -0.129 NA
ATOM      4  N   UNL     1      -6.148  -5.345  -0.607  0.00  0.00    -0.122 NA
ATOM      5  C   UNL     1      -4.983  -4.908  -1.062  0.00  0.00    +0.192 A 
ENDROOT
BRANCH   2   6
ATOM      6  C   UNL     1      -4.595  -4.785   2.471  0.00  0.00    +0.025 C 
ATOM      7  C   UNL     1      -5.362  -5.078   3.598  0.00  0.00    +0.006 A 
ATOM      8  C   UNL     1      -6.675  -5.569   3.756  0.00  0.00    +0.010 A 
ATOM      9  C   UNL     1      -7.176  -5.764   5.003  0.00  0.00    +0.001 A 
ATOM     10  C   UNL     1      -6.421  -5.489   6.146  0.00  0.00    +0.002 A 
ATOM     11  C   UNL     1      -5.153  -5.015   6.069  0.00  0.00    +0.026 A 
ATOM     12  C   UNL     1      -4.561  -4.787   4.799  0.00  0.00    +0.043 A 
ATOM     13  N   UNL     1      -3.368  -4.340   4.461  0.00  0.00    -0.380 N 
ATOM     14  C   UNL     1      -3.264  -4.298   2.999  0.00  0.00    +0.152 C 
ATOM     15  H   UNL     1      -2.668  -4.082   5.081  0.00  0.00    +0.160 HD
ENDBRANCH   2   6
BRANCH   1  16
ATOM     16  C   UNL     1      -2.827  -4.123   0.007  0.00  0.00    +0.126 C 
BRANCH  16  17
ATOM     17  C   UNL     1      -2.848  -2.593   0.015  0.00  0.00    +0.022 C 
BRANCH  17  18
ATOM     18  C   UNL     1      -1.413  -2.063   0.004  0.00  0.00    +0.002 C 
BRANCH  18  19
ATOM     19  C   UNL     1      -1.433  -0.534   0.013  0.00  0.00    -0.000 C 
BRANCH  19  21
ATOM     20  C   UNL     1      -0.019   1.526   0.010  0.00  0.00    +0.004 C 
ATOM     21  C   UNL     1       0.002  -0.004   0.002  0.00  0.00    -0.003 C 
ENDBRANCH  19  21
ENDBRANCH  18  19
ENDBRANCH  17  18
ENDBRANCH  16  17
ENDBRANCH   1  16
BRANCH   5  22
ATOM     22  S   UNL     1      -4.527  -4.724  -2.754  0.00  0.00    -0.078 S 
BRANCH  22  23
ATOM     23  C   UNL     1      -6.001  -5.259  -3.666  0.00  0.00    +0.152 C 
BRANCH  23  24
ATOM     24  C   UNL     1      -5.742  -5.151  -5.147  0.00  0.00    +0.157 C 
ATOM     25  O   UNL     1      -4.674  -4.753  -5.546  0.00  0.00    -0.295 OA
BRANCH  24  26
ATOM     26  C   UNL     1      -6.817  -5.538  -6.130  0.00  0.00    +0.123 C 
ATOM     27  C   UNL     1      -6.875  -7.075  -6.333  0.00  0.00    +0.051 C 
ATOM     28  C   UNL     1      -7.879  -7.692  -5.413  0.00  0.00    +0.001 C 
ATOM     29  C   UNL     1      -8.806  -6.938  -4.851  0.00  0.00    +0.071 C 
ATOM     30  S   UNL     1      -8.500  -5.277  -5.428  0.00  0.00    -0.102 S 
ATOM     31 CL   UNL     1     -10.064  -7.456  -3.773  0.00  0.00    -0.076 Cl
ENDBRANCH  24  26
ENDBRANCH  23  24
ENDBRANCH  22  23
ENDBRANCH   5  22
TORSDOF 10
