REMARK  Name = ZINC24141440
REMARK  10 active torsions:
REMARK  status: ('A' for Active; 'I' for Inactive)
REMARK    1  A    between atoms: C_1  and  C_2
REMARK    2  A    between atoms: C_2  and  C_3
REMARK    3  A    between atoms: C_4  and  C_35
REMARK    4  A    between atoms: C_9  and  S_21
REMARK    5  A    between atoms: N_10  and  C_13
REMARK    6  A    between atoms: C_13  and  C_14
REMARK    7  A    between atoms: C_17  and  C_20
REMARK    8  A    between atoms: S_21  and  C_22
REMARK    9  A    between atoms: C_22  and  C_23
REMARK   10  A    between atoms: C_29  and  C_32
REMARK                            x       y       z     vdW  Elec       q    Type
REMARK                         _______ _______ _______ _____ _____    ______ ____
ROOT
ATOM      1  C   UNL     1       3.666  -1.447  -5.051  0.00  0.00    -0.005 A 
ATOM      2  C   UNL     1       2.651  -0.750  -5.582  0.00  0.00    -0.026 A 
ATOM      3  C   UNL     1       1.700  -0.097  -4.698  0.00  0.00    +0.075 A 
ATOM      4  C   UNL     1       1.953  -0.268  -3.324  0.00  0.00    +0.117 A 
ATOM      5  S   UNL     1       3.415  -1.273  -3.294  0.00  0.00    -0.073 S 
ATOM      6  N   UNL     1       1.173   0.268  -2.392  0.00  0.00    -0.216 NA
ATOM      7  C   UNL     1       0.122   0.990  -2.724  0.00  0.00    +0.173 A 
ATOM      8  N   UNL     1      -0.198   1.202  -4.033  0.00  0.00    -0.283 N 
ATOM      9  C   UNL     1       0.553   0.692  -5.027  0.00  0.00    +0.264 A 
ATOM     10  O   UNL     1       0.256   0.894  -6.191  0.00  0.00    -0.267 OA
ATOM     11  C   UNL     1       2.497  -0.647  -7.077  0.00  0.00    +0.045 C 
ENDROOT
BRANCH   1  13
ATOM     12  C   UNL     1       5.945  -1.264  -6.012  0.00  0.00    +0.009 C 
ATOM     13  C   UNL     1       4.758  -2.199  -5.768  0.00  0.00    +0.039 C 
ENDBRANCH   1  13
BRANCH   8  14
ATOM     14  C   UNL     1      -1.378   2.004  -4.364  0.00  0.00    +0.162 C 
BRANCH  14  15
ATOM     15  C   UNL     1      -0.983   3.453  -4.483  0.00  0.00    -0.028 A 
ATOM     16  C   UNL     1      -1.028   4.276  -3.373  0.00  0.00    +0.005 A 
ATOM     17  C   UNL     1      -0.661   5.604  -3.481  0.00  0.00    +0.004 A 
ATOM     18  C   UNL     1      -0.259   6.112  -4.702  0.00  0.00    -0.050 A 
ATOM     19  C   UNL     1      -0.218   5.291  -5.814  0.00  0.00    +0.004 A 
ATOM     20  C   UNL     1      -0.581   3.962  -5.704  0.00  0.00    +0.005 A 
ATOM     21  C   UNL     1       0.137   7.562  -4.821  0.00  0.00    +0.044 C 
ENDBRANCH  14  15
ENDBRANCH   8  14
BRANCH   7  22
ATOM     22  S   UNL     1      -0.888   1.685  -1.458  0.00  0.00    -0.078 S 
BRANCH  22  23
ATOM     23  C   UNL     1      -0.013   1.086   0.008  0.00  0.00    +0.173 C 
BRANCH  23  24
ATOM     24  C   UNL     1      -0.718   1.572   1.248  0.00  0.00    +0.226 C 
ATOM     25  O   UNL     1      -1.714   2.256   1.150  0.00  0.00    -0.275 OA
ATOM     26  N   UNL     1      -0.242   1.246   2.466  0.00  0.00    -0.300 N 
ATOM     27  C   UNL     1       0.964   0.418   2.601  0.00  0.00    +0.108 C 
ATOM     28  C   UNL     1       1.966   1.148   3.501  0.00  0.00    +0.020 C 
ATOM     29  C   UNL     1       1.291   1.497   4.830  0.00  0.00    +0.016 C 
ATOM     30  C   UNL     1       0.104   2.428   4.572  0.00  0.00    +0.092 C 
ATOM     31  C   UNL     1      -0.915   1.717   3.684  0.00  0.00    +0.120 C 
BRANCH  30  32
ATOM     32  C   UNL     1      -0.540   2.797   5.884  0.00  0.00    +0.215 C 
ATOM     33  O   UNL     1      -0.094   2.358   6.923  0.00  0.00    -0.276 OA
ATOM     34  N   UNL     1      -1.611   3.615   5.902  0.00  0.00    -0.329 N 
ATOM     35  H   UNL     1      -2.081   3.884   6.859  0.00  0.00    +0.145 HD
ATOM     36  H   UNL     1      -2.015   4.013   4.960  0.00  0.00    +0.145 HD
ENDBRANCH  30  32
ENDBRANCH  23  24
ENDBRANCH  22  23
ENDBRANCH   7  22
TORSDOF 7
