REMARK  Name = ZINC10907759
REMARK  10 active torsions:
REMARK  status: ('A' for Active; 'I' for Inactive)
REMARK    1  A    between atoms: C_1  and  C_2
REMARK    2  A    between atoms: C_4  and  C_28
REMARK    3  A    between atoms: C_6  and  N_13
REMARK    4  A    between atoms: C_14  and  C_16
REMARK    5  A    between atoms: C_16  and  N_50
REMARK    6  A    between atoms: C_17  and  C_19
REMARK    7  A    between atoms: C_17  and  C_25
REMARK    8  A    between atoms: C_17  and  N_50
REMARK    9  A    between atoms: C_25  and  C_26
REMARK   10  A    between atoms: C_25  and  C_27
REMARK                            x       y       z     vdW  Elec       q    Type
REMARK                         _______ _______ _______ _____ _____    ______ ____
ROOT
ATOM      1  N   UNL     1      -0.003   0.952  -0.055  0.00  0.00    -0.257 N 
ATOM      2  C   UNL     1       1.154   1.642  -0.014  0.00  0.00    +0.202 C 
ATOM      3  O   UNL     1       1.135   2.853   0.046  0.00  0.00    -0.277 OA
ATOM      4  H   UNL     1       0.012  -0.017  -0.103  0.00  0.00    +0.158 HD
ENDROOT
BRANCH   1  10
ATOM      5  C   UNL     1      -5.878   2.950  -0.019  0.00  0.00    +0.068 C 
ATOM      6  C   UNL     1      -4.851   1.849  -0.062  0.00  0.00    +0.070 A 
ATOM      7  C   UNL     1      -3.422   2.173  -0.031  0.00  0.00    +0.053 A 
ATOM      8  C   UNL     1      -2.674   3.294   0.033  0.00  0.00    +0.114 A 
ATOM      9  O   UNL     1      -1.371   2.956   0.036  0.00  0.00    -0.445 OA
ATOM     10  C   UNL     1      -1.212   1.625  -0.034  0.00  0.00    +0.206 A 
ATOM     11  C   UNL     1      -2.457   1.046  -0.076  0.00  0.00    +0.110 A 
ATOM     12  C   UNL     1      -3.001  -0.306  -0.150  0.00  0.00    +0.277 A 
ATOM     13  O   UNL     1      -2.260  -1.272  -0.189  0.00  0.00    -0.266 OA
ATOM     14  N   UNL     1      -4.341  -0.465  -0.171  0.00  0.00    -0.242 N 
ATOM     15  H   UNL     1      -4.702  -1.364  -0.220  0.00  0.00    +0.192 HD
ATOM     16  N   UNL     1      -5.227   0.609  -0.128  0.00  0.00    -0.175 NA
ATOM     17  C   UNL     1      -3.211   4.701   0.097  0.00  0.00    +0.087 C 
ENDBRANCH   1  10
BRANCH   2  18
ATOM     18  C   UNL     1       2.471   0.910  -0.043  0.00  0.00    +0.016 C 
BRANCH  18  19
ATOM     19  N   UNL     1       3.571   1.890   0.012  0.00  0.00    +0.389 N 
ATOM     20  H   UNL     1       3.459   2.479   0.846  0.00  0.00    -0.084 HD
ATOM     21  H   UNL     1       3.542   2.479  -0.829  0.00  0.00    -0.084 HD
BRANCH  19  22
ATOM     22  C   UNL     1       4.872   1.198   0.076  0.00  0.00    -0.038 C 
BRANCH  22  23
ATOM     23  C   UNL     1       5.158   0.794   1.499  0.00  0.00    -0.061 A 
ATOM     24  C   UNL     1       4.843   1.651   2.537  0.00  0.00    +0.002 A 
ATOM     25  C   UNL     1       5.102   1.278   3.843  0.00  0.00    +0.000 A 
ATOM     26  C   UNL     1       5.683   0.053   4.110  0.00  0.00    +0.000 A 
ATOM     27  C   UNL     1       6.002  -0.802   3.072  0.00  0.00    +0.000 A 
ATOM     28  C   UNL     1       5.739  -0.431   1.766  0.00  0.00    +0.002 A 
ENDBRANCH  22  23
BRANCH  22  29
ATOM     29  C   UNL     1       5.969   2.144  -0.416  0.00  0.00    -0.027 C 
ATOM     30  C   UNL     1       7.311   1.409  -0.423  0.00  0.00    +0.006 C 
ATOM     31  C   UNL     1       5.638   2.615  -1.834  0.00  0.00    +0.006 C 
ENDBRANCH  22  29
ENDBRANCH  19  22
ENDBRANCH  18  19
ENDBRANCH   2  18
TORSDOF 6
