REMARK  Name = ZINC21081877
REMARK  11 active torsions:
REMARK  status: ('A' for Active; 'I' for Inactive)
REMARK    1  A    between atoms: C_1  and  C_2
REMARK    2  A    between atoms: C_2  and  O_3
REMARK    3  A    between atoms: O_3  and  C_4
REMARK    4  A    between atoms: C_9  and  N_10
REMARK    5  A    between atoms: C_11  and  C_13
REMARK    6  A    between atoms: C_13  and  C_14
REMARK    7  A    between atoms: C_14  and  S_15
REMARK    8  A    between atoms: S_15  and  C_16
REMARK    9  A    between atoms: N_21  and  N_22
REMARK   10  A    between atoms: C_23  and  C_24
REMARK   11  A    between atoms: C_23  and  C_25
REMARK                            x       y       z     vdW  Elec       q    Type
REMARK                         _______ _______ _______ _____ _____    ______ ____
ROOT
ATOM      1  C   UNL     1      -0.018   1.361   0.044  0.00  0.00    +0.210 A 
ATOM      2  N   UNL     1       0.000  -0.005   0.046  0.00  0.00    -0.186 NA
ATOM      3  C   UNL     1       1.306  -0.410   0.029  0.00  0.00    +0.232 A 
ATOM      4  N   UNL     1       2.062   0.661   0.017  0.00  0.00    -0.245 N 
ATOM      5  N   UNL     1       1.224   1.783   0.026  0.00  0.00    -0.144 NA
ATOM      6  N   UNL     1       1.752  -1.724   0.024  0.00  0.00    -0.205 N 
ATOM      7  H   UNL     1       1.027  -2.551   0.035  0.00  0.00    +0.177 HD
ATOM      8  H   UNL     1       3.158   0.560   0.002  0.00  0.00    +0.192 HD
ENDROOT
BRANCH   6   9
ATOM      9  N   UNL     1       3.126  -1.997   0.006  0.00  0.00    -0.184 NA
ATOM     10  C   UNL     1       3.544  -3.227   0.002  0.00  0.00    +0.063 C 
ATOM     11  C   UNL     1       2.550  -4.360   0.016  0.00  0.00    +0.068 C 
BRANCH  10  12
ATOM     12  C   UNL     1       4.990  -3.514  -0.018  0.00  0.00    -0.002 A 
ATOM     13  C   UNL     1       5.442  -4.836  -0.017  0.00  0.00    +0.011 A 
ATOM     14  C   UNL     1       6.796  -5.098  -0.041  0.00  0.00    +0.016 A 
ATOM     15  C   UNL     1       7.706  -4.054  -0.054  0.00  0.00    +0.018 A 
ATOM     16  C   UNL     1       7.264  -2.742  -0.049  0.00  0.00    +0.016 A 
ATOM     17  C   UNL     1       5.913  -2.466  -0.031  0.00  0.00    +0.011 A 
ATOM     18 BR   UNL     1       9.561  -4.423  -0.079  0.00  0.00    -0.050 Br
ENDBRANCH  10  12
ENDBRANCH   6   9
BRANCH   1  19
ATOM     19  S   UNL     1      -1.457   2.378   0.055  0.00  0.00    -0.084 S 
BRANCH  19  20
ATOM     20  C   UNL     1      -0.800   4.068   0.046  0.00  0.00    +0.086 C 
BRANCH  20  21
ATOM     21  C   UNL     1      -1.960   5.066   0.055  0.00  0.00    +0.107 C 
BRANCH  21  23
ATOM     22  N   UNL     1      -2.258   7.522   0.054  0.00  0.00    -0.283 N 
ATOM     23  C   UNL     1      -1.414   6.471   0.048  0.00  0.00    +0.218 C 
ATOM     24  O   UNL     1      -0.215   6.656   0.037  0.00  0.00    -0.275 OA
ATOM     25  H   UNL     1      -3.342   7.357  -0.028  0.00  0.00    +0.155 HD
BRANCH  22  31
ATOM     26  C   UNL     1      -2.490   9.902  -0.323  0.00  0.00    +0.142 A 
ATOM     27  C   UNL     1      -1.986  11.188  -0.211  0.00  0.00    +0.047 A 
ATOM     28  C   UNL     1      -0.757  11.400   0.383  0.00  0.00    +0.004 A 
ATOM     29  C   UNL     1      -0.026  10.331   0.868  0.00  0.00    +0.002 A 
ATOM     30  C   UNL     1      -0.523   9.045   0.765  0.00  0.00    +0.027 A 
ATOM     31  C   UNL     1      -1.754   8.825   0.164  0.00  0.00    +0.076 A 
BRANCH  26  32
ATOM     32  O   UNL     1      -3.700   9.692  -0.907  0.00  0.00    -0.490 OA
BRANCH  32  34
ATOM     33  C   UNL     1      -5.729  10.412  -2.005  0.00  0.00    +0.048 C 
ATOM     34  C   UNL     1      -4.398  10.844  -1.384  0.00  0.00    +0.226 C 
ENDBRANCH  32  34
ENDBRANCH  26  32
ENDBRANCH  22  31
ENDBRANCH  21  23
ENDBRANCH  20  21
ENDBRANCH  19  20
ENDBRANCH   1  19
TORSDOF 9
