REMARK  Name = ZINC61700467
REMARK  6 active torsions:
REMARK  status: ('A' for Active; 'I' for Inactive)
REMARK    1  A    between atoms: C_1  and  C_2
REMARK    2  A    between atoms: C_2  and  C_4
REMARK    3  A    between atoms: C_2  and  N_21
REMARK    4  A    between atoms: C_7  and  S_11
REMARK    5  A    between atoms: S_11  and  C_12
REMARK    6  A    between atoms: N_21  and  C_22
REMARK                            x       y       z     vdW  Elec       q    Type
REMARK                         _______ _______ _______ _____ _____    ______ ____
ROOT
ATOM      1  C   UNL     1       0.700  -0.494  -1.240  0.00  0.00    -0.060 A 
ATOM      2  C   UNL     1       2.077  -0.398  -1.330  0.00  0.00    +0.003 A 
ATOM      3  C   UNL     1       2.729  -0.842  -2.464  0.00  0.00    +0.017 A 
ATOM      4  C   UNL     1       2.001  -1.385  -3.515  0.00  0.00    +0.034 A 
ATOM      5  C   UNL     1       0.617  -1.480  -3.422  0.00  0.00    +0.055 A 
ATOM      6  C   UNL     1      -0.028  -1.039  -2.282  0.00  0.00    +0.023 A 
ATOM      7 CL   UNL     1      -0.298  -2.158  -4.732  0.00  0.00    -0.082 Cl
ENDROOT
BRANCH   1   9
ATOM      8  C   UNL     1      -0.161   1.511  -0.064  0.00  0.00    -0.009 C 
ATOM      9  C   UNL     1      -0.008  -0.010  -0.002  0.00  0.00    -0.044 C 
BRANCH   9  10
ATOM     10  N   UNL     1       0.777  -0.374   1.185  0.00  0.00    +0.382 N 
ATOM     11  C   UNL     1       0.031  -0.009   2.397  0.00  0.00    -0.100 C 
ATOM     12  H   UNL     1       0.949  -1.369   1.183  0.00  0.00    -0.085 HD
ATOM     13  H   UNL     1       1.657   0.118   1.171  0.00  0.00    -0.085 HD
ENDBRANCH   9  10
ENDBRANCH   1   9
BRANCH   4  14
ATOM     14  S   UNL     1       2.830  -1.951  -4.963  0.00  0.00    -0.048 S 
BRANCH  14  15
ATOM     15  C   UNL     1       2.515  -0.692  -6.155  0.00  0.00    +0.201 A 
ATOM     16  N   UNL     1       1.902   0.450  -5.937  0.00  0.00    -0.121 NA
ATOM     17  N   UNL     1       1.841   1.137  -7.023  0.00  0.00    -0.129 NA
ATOM     18  C   UNL     1       2.417   0.469  -8.006  0.00  0.00    +0.162 A 
ATOM     19  N   UNL     1       2.869  -0.718  -7.472  0.00  0.00    -0.277 N 
ATOM     20  C   UNL     1       3.521  -1.627  -8.258  0.00  0.00    +0.095 A 
ATOM     21  C   UNL     1       3.733  -1.372  -9.565  0.00  0.00    +0.018 A 
ATOM     22  C   UNL     1       3.286  -0.167 -10.138  0.00  0.00    +0.005 A 
ATOM     23  C   UNL     1       2.628   0.744  -9.372  0.00  0.00    +0.049 A 
ENDBRANCH  14  15
ENDBRANCH   4  14
TORSDOF 4
