REMARK  Name = ZINC59292927
REMARK  7 active torsions:
REMARK  status: ('A' for Active; 'I' for Inactive)
REMARK    1  A    between atoms: C_1  and  C_2
REMARK    2  A    between atoms: C_2  and  C_3
REMARK    3  A    between atoms: C_2  and  C_4
REMARK    4  A    between atoms: C_2  and  O_5
REMARK    5  A    between atoms: O_5  and  C_6
REMARK    6  A    between atoms: C_6  and  C_8
REMARK    7  A    between atoms: C_9  and  N_33
REMARK                            x       y       z     vdW  Elec       q    Type
REMARK                         _______ _______ _______ _____ _____    ______ ____
ROOT
ATOM      1  C   UNL     1       2.671  -0.496  -2.472  0.00  0.00    +0.117 C 
ATOM      2  C   UNL     1       3.933  -0.035  -2.675  0.00  0.00    +0.196 C 
ATOM      3  O   UNL     1       4.654  -0.411  -3.745  0.00  0.00    -0.440 OA
ATOM      4  C   UNL     1       4.319  -1.520  -4.431  0.00  0.00    +0.152 A 
ATOM      5  C   UNL     1       5.301  -2.170  -5.313  0.00  0.00    +0.060 A 
ATOM      6  C   UNL     1       6.590  -1.654  -5.462  0.00  0.00    +0.015 A 
ATOM      7  C   UNL     1       7.485  -2.288  -6.295  0.00  0.00    +0.001 A 
ATOM      8  C   UNL     1       7.111  -3.433  -6.983  0.00  0.00    +0.004 A 
ATOM      9  C   UNL     1       5.840  -3.952  -6.847  0.00  0.00    +0.047 A 
ATOM     10  C   UNL     1       4.923  -3.328  -6.012  0.00  0.00    +0.143 A 
ATOM     11  O   UNL     1       3.673  -3.820  -5.867  0.00  0.00    -0.422 OA
ATOM     12  C   UNL     1       2.771  -3.231  -5.068  0.00  0.00    +0.346 A 
ATOM     13  O   UNL     1       1.655  -3.712  -4.978  0.00  0.00    -0.245 OA
ATOM     14  C   UNL     1       3.076  -2.073  -4.332  0.00  0.00    +0.104 A 
ATOM     15  C   UNL     1       2.039  -1.456  -3.438  0.00  0.00    +0.145 C 
ATOM     16  C   UNL     1       0.978  -0.778  -4.247  0.00  0.00    -0.001 A 
ATOM     17  C   UNL     1       1.040   0.274  -5.136  0.00  0.00    +0.022 A 
ATOM     18  C   UNL     1      -0.155   0.671  -5.728  0.00  0.00    +0.018 A 
ATOM     19  C   UNL     1      -1.347   0.037  -5.437  0.00  0.00    +0.017 A 
ATOM     20  C   UNL     1      -1.416  -1.022  -4.545  0.00  0.00    +0.025 A 
ATOM     21  C   UNL     1      -0.224  -1.430  -3.945  0.00  0.00    +0.038 A 
ATOM     22  N   UNL     1      -0.003  -2.446  -3.032  0.00  0.00    -0.284 N 
ATOM     23  C   UNL     1       1.296  -2.537  -2.681  0.00  0.00    +0.237 C 
ATOM     24  O   UNL     1       1.779  -3.335  -1.905  0.00  0.00    -0.274 OA
ATOM     25 BR   UNL     1      -0.146   2.108  -6.958  0.00  0.00    -0.050 Br
ATOM     26  H   UNL     1      -0.700  -3.025  -2.685  0.00  0.00    +0.155 HD
ENDROOT
BRANCH   2  27
ATOM     27  N   UNL     1       4.482   0.834  -1.771  0.00  0.00    -0.329 N 
ATOM     28  H   UNL     1       4.002   1.055  -0.957  0.00  0.00    +0.145 HD
ATOM     29  H   UNL     1       5.350   1.230  -1.943  0.00  0.00    +0.145 HD
ENDBRANCH   2  27
BRANCH   1  30
ATOM     30  C   UNL     1       1.953  -0.076  -1.342  0.00  0.00    +0.342 C 
ATOM     31  O   UNL     1       1.104   0.791  -1.448  0.00  0.00    -0.245 OA
BRANCH  30  32
ATOM     32  O   UNL     1       2.202  -0.634  -0.137  0.00  0.00    -0.455 OA
BRANCH  32  34
ATOM     33  C   UNL     1      -0.053  -0.404   0.701  0.00  0.00    +0.055 C 
ATOM     34  C   UNL     1       1.433  -0.158   0.969  0.00  0.00    +0.106 C 
ATOM     35  C   UNL     1       1.676   1.342   1.152  0.00  0.00    +0.055 C 
ATOM     36  C   UNL     1       1.852  -0.901   2.239  0.00  0.00    +0.055 C 
ENDBRANCH  32  34
ENDBRANCH  30  32
ENDBRANCH   1  30
TORSDOF 4
