REMARK  Name = ZINC45444977
REMARK  4 active torsions:
REMARK  status: ('A' for Active; 'I' for Inactive)
REMARK    1  A    between atoms: C_1  and  C_2
REMARK    2  A    between atoms: C_6  and  C_10
REMARK    3  A    between atoms: C_11  and  C_13
REMARK    4  A    between atoms: C_13  and  N_14
REMARK                            x       y       z     vdW  Elec       q    Type
REMARK                         _______ _______ _______ _____ _____    ______ ____
ROOT
ATOM      1  N   UNL     1      -0.778  -3.049  -4.281  0.00  0.00    -0.217 N 
ATOM      2  C   UNL     1      -1.954  -3.694  -4.143  0.00  0.00    +0.276 A 
ATOM      3  O   UNL     1      -2.704  -3.425  -3.221  0.00  0.00    -0.266 OA
ATOM      4  C   UNL     1      -2.316  -4.727  -5.122  0.00  0.00    +0.053 A 
ATOM      5  C   UNL     1      -3.516  -5.432  -5.041  0.00  0.00    +0.014 A 
ATOM      6  C   UNL     1      -3.806  -6.390  -5.987  0.00  0.00    +0.001 A 
ATOM      7  C   UNL     1      -2.916  -6.659  -7.019  0.00  0.00    +0.001 A 
ATOM      8  C   UNL     1      -1.726  -5.974  -7.119  0.00  0.00    +0.014 A 
ATOM      9  C   UNL     1      -1.411  -4.999  -6.172  0.00  0.00    +0.055 A 
ATOM     10  C   UNL     1      -0.157  -4.240  -6.231  0.00  0.00    +0.295 A 
ATOM     11  O   UNL     1       0.734  -4.478  -7.227  0.00  0.00    -0.264 OA
ATOM     12  N   UNL     1       0.097  -3.333  -5.330  0.00  0.00    -0.125 NA
ENDROOT
BRANCH   1  13
ATOM     13  C   UNL     1      -0.411  -2.018  -3.307  0.00  0.00    +0.243 C 
BRANCH  13  22
ATOM     14  C   UNL     1       0.024   1.554   0.218  0.00  0.00    +0.039 C 
ATOM     15  C   UNL     1       0.012   0.026   0.137  0.00  0.00    +0.133 C 
ATOM     16  C   UNL     1       0.651  -0.423  -1.182  0.00  0.00    +0.139 C 
ATOM     17  N   UNL     1       0.797  -1.887  -1.153  0.00  0.00    -0.293 N 
ATOM     18  C   UNL     1       1.441  -2.494   0.023  0.00  0.00    +0.099 C 
ATOM     19  C   UNL     1       0.763  -1.945   1.283  0.00  0.00    +0.182 C 
ATOM     20  O   UNL     1       0.756  -0.516   1.230  0.00  0.00    -0.373 OA
ATOM     21  C   UNL     1       1.279  -4.015  -0.029  0.00  0.00    +0.030 C 
ATOM     22  C   UNL     1       0.355  -2.649  -2.173  0.00  0.00    +0.238 C 
ATOM     23  O   UNL     1       0.573  -3.842  -2.177  0.00  0.00    -0.274 OA
ENDBRANCH  13  22
ENDBRANCH   1  13
TORSDOF 2
