REMARK  Name = ZINC01229827
REMARK  5 active torsions:
REMARK  status: ('A' for Active; 'I' for Inactive)
REMARK    1  A    between atoms: C_3  and  C_8
REMARK    2  A    between atoms: N_10  and  N_11
REMARK    3  A    between atoms: C_12  and  C_13
REMARK    4  A    between atoms: C_16  and  O_21
REMARK    5  A    between atoms: C_18  and  O_19
REMARK                            x       y       z     vdW  Elec       q    Type
REMARK                         _______ _______ _______ _____ _____    ______ ____
ROOT
ATOM      1  N   UNL     1      -0.015   1.294   0.009  0.00  0.00    -0.187 NA
ATOM      2  C   UNL     1       0.002  -0.004   0.002  0.00  0.00    +0.142 C 
ENDROOT
BRANCH   2   3
ATOM      3  C   UNL     1      -1.263  -0.758   0.010  0.00  0.00    +0.038 A 
ATOM      4  C   UNL     1      -1.248  -2.155   0.002  0.00  0.00    +0.032 A 
ATOM      5  C   UNL     1      -2.434  -2.857   0.010  0.00  0.00    +0.061 A 
ATOM      6  C   UNL     1      -3.648  -2.179   0.026  0.00  0.00    +0.148 A 
ATOM      7  C   UNL     1      -3.674  -0.792   0.033  0.00  0.00    +0.102 A 
ATOM      8  C   UNL     1      -2.488  -0.076   0.031  0.00  0.00    +0.143 A 
ATOM      9 BR   UNL     1      -5.329   0.122   0.055  0.00  0.00    -0.043 Br
ATOM     10 BR   UNL     1      -2.410  -4.748  -0.001  0.00  0.00    -0.046 Br
BRANCH   8  11
ATOM     11  O   UNL     1      -2.512   1.282   0.044  0.00  0.00    -0.505 OA
ATOM     12  H   UNL     1      -2.530   1.683  -0.835  0.00  0.00    +0.292 HD
ENDBRANCH   8  11
BRANCH   6  13
ATOM     13  O   UNL     1      -4.813  -2.878   0.034  0.00  0.00    -0.504 OA
ATOM     14  H   UNL     1      -5.141  -3.084   0.919  0.00  0.00    +0.292 HD
ENDBRANCH   6  13
ENDBRANCH   2   3
BRANCH   1  17
ATOM     15  C   UNL     1       1.170   3.359   0.009  0.00  0.00    +0.263 C 
ATOM     16  O   UNL     1       0.109   3.953   0.022  0.00  0.00    -0.268 OA
ATOM     17  N   UNL     1       1.188   2.011   0.002  0.00  0.00    -0.203 N 
ATOM     18  H   UNL     1       2.035   1.538  -0.009  0.00  0.00    +0.178 HD
BRANCH  15  21
ATOM     19  C   UNL     1       4.842   4.148  -0.020  0.00  0.00    +0.004 A 
ATOM     20  C   UNL     1       3.659   3.437  -0.009  0.00  0.00    +0.013 A 
ATOM     21  C   UNL     1       2.440   4.115   0.001  0.00  0.00    +0.041 A 
ATOM     22  C   UNL     1       2.424   5.511   0.009  0.00  0.00    +0.051 A 
ATOM     23  C   UNL     1       3.615   6.212   0.001  0.00  0.00    +0.124 A 
ATOM     24  C   UNL     1       4.822   5.530  -0.013  0.00  0.00    +0.038 A 
ATOM     25  F   UNL     1       3.603   7.563   0.009  0.00  0.00    -0.205 F 
ENDBRANCH  15  21
ENDBRANCH   1  17
TORSDOF 5
