REMARK  Name = ZINC08952607
REMARK  5 active torsions:
REMARK  status: ('A' for Active; 'I' for Inactive)
REMARK    1  A    between atoms: C_1  and  C_2
REMARK    2  A    between atoms: C_12  and  N_68
REMARK    3  A    between atoms: C_17  and  C_18
REMARK    4  A    between atoms: C_17  and  N_68
REMARK    5  A    between atoms: C_25  and  C_38
REMARK                            x       y       z     vdW  Elec       q    Type
REMARK                         _______ _______ _______ _____ _____    ______ ____
ROOT
ATOM      1  C   UNL     1       1.391   0.791   6.241  0.00  0.00    -0.067 C 
ENDROOT
BRANCH   1   2
ATOM      2  C   UNL     1       1.167   1.446   4.877  0.00  0.00    +0.087 C 
ATOM      3  C   UNL     1       2.007   0.754   3.773  0.00  0.00    +0.042 C 
ATOM      4  C   UNL     1       1.203   0.855   2.475  0.00  0.00    +0.014 C 
ATOM      5  C   UNL     1       2.115   0.580   1.275  0.00  0.00    +0.030 C 
ATOM      6  C   UNL     1       3.155   1.708   1.230  0.00  0.00    -0.023 C 
ATOM      7  C   UNL     1       4.007   1.563  -0.031  0.00  0.00    +0.007 C 
ATOM      8  C   UNL     1       3.128   1.719  -1.273  0.00  0.00    +0.003 C 
ATOM      9  C   UNL     1       2.088   0.594  -1.308  0.00  0.00    +0.037 C 
ATOM     10  C   UNL     1       1.283   0.623  -0.007  0.00  0.00    +0.096 C 
ATOM     11  C   UNL     1      -0.017   1.425   0.010  0.00  0.00    +0.196 C 
ATOM     12  O   UNL     1       0.002  -0.004   0.002  0.00  0.00    -0.368 OA
ATOM     13  C   UNL     1       4.040   1.582   2.470  0.00  0.00    +0.052 C 
ATOM     14  C   UNL     1       3.231   1.690   3.739  0.00  0.00    +0.181 C 
ATOM     15  O   UNL     1       2.637   3.005   3.933  0.00  0.00    -0.461 OA
ATOM     16  C   UNL     1       1.683   2.873   4.882  0.00  0.00    +0.309 C 
ATOM     17  O   UNL     1       1.301   3.752   5.618  0.00  0.00    -0.251 OA
ATOM     18  C   UNL     1       2.461   3.072   1.228  0.00  0.00    +0.011 C 
ENDBRANCH   1   2
BRANCH   1  19
ATOM     19  N   UNL     1       0.548   1.466   7.246  0.00  0.00    +0.385 N 
ATOM     20  H   UNL     1       0.804   2.460   7.290  0.00  0.00    -0.085 HD
ATOM     21  H   UNL     1      -0.438   1.378   6.974  0.00  0.00    -0.085 HD
BRANCH  19  33
ATOM     22  C   UNL     1      -1.647   4.752  14.476  0.00  0.00    +0.044 C 
ATOM     23  C   UNL     1      -0.985   4.379  13.174  0.00  0.00    -0.050 A 
ATOM     24  C   UNL     1      -0.302   5.354  12.466  0.00  0.00    +0.005 A 
ATOM     25  C   UNL     1       0.331   5.087  11.264  0.00  0.00    +0.026 A 
ATOM     26  C   UNL     1       0.253   3.780  10.787  0.00  0.00    +0.047 A 
ATOM     27  C   UNL     1      -0.458   2.781  11.515  0.00  0.00    +0.003 A 
ATOM     28  C   UNL     1      -1.079   3.084  12.728  0.00  0.00    +0.013 A 
ATOM     29  C   UNL     1      -0.335   1.562  10.743  0.00  0.00    -0.021 A 
ATOM     30  C   UNL     1       0.396   1.861   9.644  0.00  0.00    +0.006 A 
ATOM     31  N   UNL     1       0.750   3.185   9.664  0.00  0.00    -0.359 N 
ATOM     32  H   UNL     1       1.276   3.632   8.981  0.00  0.00    +0.166 HD
ATOM     33  C   UNL     1       0.744   0.854   8.573  0.00  0.00    -0.024 C 
ATOM     34  C   UNL     1      -0.179  -0.361   8.722  0.00  0.00    -0.009 C 
ATOM     35  C   UNL     1      -0.166  -0.836  10.177  0.00  0.00    +0.003 C 
ATOM     36  C   UNL     1      -0.889   0.195  11.053  0.00  0.00    +0.037 C 
ENDBRANCH  19  33
ENDBRANCH   1  19
TORSDOF 3
