REMARK  Name = ZINC65474461
REMARK  8 active torsions:
REMARK  status: ('A' for Active; 'I' for Inactive)
REMARK    1  A    between atoms: C_1  and  C_2
REMARK    2  A    between atoms: C_3  and  C_11
REMARK    3  A    between atoms: C_4  and  N_8
REMARK    4  A    between atoms: N_5  and  C_7
REMARK    5  A    between atoms: N_8  and  C_9
REMARK    6  A    between atoms: N_8  and  C_10
REMARK    7  A    between atoms: C_11  and  N_12
REMARK    8  A    between atoms: N_12  and  C_13
REMARK                            x       y       z     vdW  Elec       q    Type
REMARK                         _______ _______ _______ _____ _____    ______ ____
ROOT
ATOM      1  N   UNL     1       1.561  -0.075  -2.902  0.00  0.00    +0.384 N 
ATOM      2  H   UNL     1       1.931   0.635  -2.288  0.00  0.00    -0.085 HD
ATOM      3  H   UNL     1       2.100  -0.922  -2.799  0.00  0.00    -0.085 HD
ENDROOT
BRANCH   1   4
ATOM      4  C   UNL     1       1.640   0.390  -4.293  0.00  0.00    -0.068 C 
ATOM      5  C   UNL     1       1.194  -0.733  -5.232  0.00  0.00    +0.003 C 
ATOM      6  C   UNL     1       1.244  -0.232  -6.679  0.00  0.00    +0.106 C 
ATOM      7  N   UNL     1       2.591   0.285  -6.954  0.00  0.00    -0.300 N 
ATOM      8  C   UNL     1       3.154   1.304  -6.057  0.00  0.00    +0.106 C 
ATOM      9  C   UNL     1       3.082   0.786  -4.617  0.00  0.00    +0.003 C 
ATOM     10  C   UNL     1       3.317  -0.179  -8.037  0.00  0.00    +0.218 A 
ATOM     11  N   UNL     1       2.781  -1.094  -8.831  0.00  0.00    -0.223 NA
ATOM     12  C   UNL     1       3.448  -1.558  -9.875  0.00  0.00    +0.116 A 
ATOM     13  C   UNL     1       4.721  -1.075 -10.133  0.00  0.00    +0.039 A 
ATOM     14  C   UNL     1       5.252  -0.118  -9.283  0.00  0.00    +0.116 A 
ATOM     15  N   UNL     1       4.530   0.307  -8.259  0.00  0.00    -0.223 NA
ENDBRANCH   1   4
BRANCH   1  16
ATOM     16  C   UNL     1       0.159  -0.342  -2.553  0.00  0.00    -0.041 C 
BRANCH  16  19
ATOM     17  C   UNL     1       0.032   1.498   0.023  0.00  0.00    +0.068 C 
ATOM     18  C   UNL     1       0.022  -0.009   0.012  0.00  0.00    +0.063 A 
ATOM     19  C   UNL     1       0.079  -0.820  -1.126  0.00  0.00    -0.002 A 
ATOM     20  C   UNL     1       0.048  -2.118  -0.715  0.00  0.00    +0.120 A 
ATOM     21  N   UNL     1      -0.026  -2.116   0.636  0.00  0.00    -0.253 N 
ATOM     22  N   UNL     1      -0.034  -0.783   1.065  0.00  0.00    -0.175 NA
ATOM     23  C   UNL     1      -0.081  -3.300   1.497  0.00  0.00    +0.174 C 
BRANCH  20  24
ATOM     24  N   UNL     1       0.084  -3.241  -1.536  0.00  0.00    -0.321 N 
ATOM     25  C   UNL     1       1.367  -3.869  -1.863  0.00  0.00    +0.130 C 
ATOM     26  C   UNL     1      -1.161  -3.797  -2.073  0.00  0.00    +0.130 C 
ENDBRANCH  20  24
ENDBRANCH  16  19
ENDBRANCH   1  16
TORSDOF 4
