REMARK  Name = ZINC13752256
REMARK  11 active torsions:
REMARK  status: ('A' for Active; 'I' for Inactive)
REMARK    1  A    between atoms: C_1  and  C_2
REMARK    2  A    between atoms: C_2  and  C_3
REMARK    3  A    between atoms: C_3  and  C_4
REMARK    4  A    between atoms: C_4  and  C_5
REMARK    5  A    between atoms: C_5  and  N_6
REMARK    6  A    between atoms: C_10  and  C_11
REMARK    7  A    between atoms: C_12  and  N_22
REMARK    8  A    between atoms: N_22  and  C_23
REMARK    9  A    between atoms: C_23  and  C_24
REMARK   10  A    between atoms: C_24  and  C_26
REMARK   11  A    between atoms: C_24  and  O_32
REMARK                            x       y       z     vdW  Elec       q    Type
REMARK                         _______ _______ _______ _____ _____    ______ ____
ROOT
ATOM      1  C   UNL     1      -0.173  -2.745  -0.155  0.00  0.00    +0.081 A 
ATOM      2  C   UNL     1      -1.461  -2.192  -0.349  0.00  0.00    +0.134 A 
ATOM      3  N   UNL     1      -1.596  -0.880  -0.473  0.00  0.00    -0.214 NA
ATOM      4  C   UNL     1      -0.546  -0.060  -0.418  0.00  0.00    +0.142 A 
ATOM      5  C   UNL     1      -0.751   1.325  -0.555  0.00  0.00    +0.047 A 
ATOM      6  C   UNL     1       0.317   2.171  -0.500  0.00  0.00    +0.005 A 
ATOM      7  C   UNL     1       1.603   1.649  -0.310  0.00  0.00    +0.018 A 
ATOM      8  C   UNL     1       1.782   0.316  -0.180  0.00  0.00    +0.096 A 
ATOM      9  N   UNL     1       0.721  -0.539  -0.232  0.00  0.00    -0.268 N 
ATOM     10  C   UNL     1       0.934  -1.866  -0.099  0.00  0.00    +0.267 A 
ATOM     11  O   UNL     1       2.062  -2.299   0.067  0.00  0.00    -0.267 OA
ENDROOT
BRANCH   1  16
ATOM     12  N   UNL     1      -1.467  -6.649   2.210  0.00  0.00    -0.255 N 
ATOM     13  C   UNL     1      -0.737  -6.226   1.193  0.00  0.00    +0.258 C 
ATOM     14  O   UNL     1      -0.137  -7.014   0.482  0.00  0.00    -0.269 OA
ATOM     15  C   UNL     1      -0.671  -4.825   0.951  0.00  0.00    +0.077 C 
ATOM     16  C   UNL     1       0.003  -4.142  -0.020  0.00  0.00    +0.037 C 
ATOM     17  S   UNL     1      -1.703  -4.202   2.270  0.00  0.00    -0.061 S 
ATOM     18  C   UNL     1      -2.131  -5.776   2.999  0.00  0.00    +0.121 C 
ATOM     19  S   UNL     1      -3.126  -6.096   4.355  0.00  0.00    -0.027 S 
BRANCH  12  20
ATOM     20  C   UNL     1      -1.557  -8.085   2.487  0.00  0.00    +0.115 C 
BRANCH  20  21
ATOM     21  C   UNL     1      -0.438  -8.491   3.448  0.00  0.00    +0.019 C 
BRANCH  21  22
ATOM     22  C   UNL     1      -0.532  -9.990   3.737  0.00  0.00    +0.001 C 
BRANCH  22  24
ATOM     23  C   UNL     1       0.493 -11.895   4.987  0.00  0.00    +0.004 C 
ATOM     24  C   UNL     1       0.587 -10.396   4.698  0.00  0.00    -0.003 C 
ENDBRANCH  22  24
ENDBRANCH  21  22
ENDBRANCH  20  21
ENDBRANCH  12  20
ENDBRANCH   1  16
BRANCH   2  25
ATOM     25  N   UNL     1      -2.566  -3.012  -0.409  0.00  0.00    -0.326 N 
ATOM     26  H   UNL     1      -2.463  -3.972  -0.318  0.00  0.00    +0.148 HD
BRANCH  25  27
ATOM     27  C   UNL     1      -3.897  -2.434  -0.610  0.00  0.00    +0.139 C 
BRANCH  27  28
ATOM     28  C   UNL     1      -4.940  -3.553  -0.638  0.00  0.00    +0.161 C 
BRANCH  28  29
ATOM     29  C   UNL     1      -6.309  -2.958  -0.845  0.00  0.00    -0.018 A 
ATOM     30  C   UNL     1      -6.757  -2.681  -2.123  0.00  0.00    +0.006 A 
ATOM     31  C   UNL     1      -8.015  -2.140  -2.313  0.00  0.00    +0.000 A 
ATOM     32  C   UNL     1      -8.821  -1.866  -1.224  0.00  0.00    +0.000 A 
ATOM     33  C   UNL     1      -8.371  -2.137   0.054  0.00  0.00    +0.000 A 
ATOM     34  C   UNL     1      -7.115  -2.683   0.244  0.00  0.00    +0.006 A 
ENDBRANCH  28  29
BRANCH  28  35
ATOM     35  O   UNL     1      -4.645  -4.452  -1.709  0.00  0.00    -0.386 OA
ATOM     36  H   UNL     1      -4.647  -4.038  -2.582  0.00  0.00    +0.210 HD
ENDBRANCH  28  35
ENDBRANCH  27  28
ENDBRANCH  25  27
ENDBRANCH   2  25
TORSDOF 10
