REMARK  Name = ZINC40476240
REMARK  7 active torsions:
REMARK  status: ('A' for Active; 'I' for Inactive)
REMARK    1  A    between atoms: C_1  and  C_2
REMARK    2  A    between atoms: C_5  and  C_8
REMARK    3  A    between atoms: C_15  and  S_28
REMARK    4  A    between atoms: C_24  and  C_26
REMARK    5  A    between atoms: C_24  and  C_27
REMARK    6  A    between atoms: S_28  and  C_29
REMARK    7  A    between atoms: C_29  and  C_30
REMARK                            x       y       z     vdW  Elec       q    Type
REMARK                         _______ _______ _______ _____ _____    ______ ____
ROOT
ATOM      1  C   UNL     1       0.059  -4.275  -0.021  0.00  0.00    +0.092 C 
ATOM      2  C   UNL     1      -1.169  -4.786   0.671  0.00  0.00    +0.069 A 
ATOM      3  C   UNL     1      -2.407  -4.771   0.019  0.00  0.00    +0.258 A 
ATOM      4  O   UNL     1      -2.504  -4.346  -1.121  0.00  0.00    -0.267 OA
ATOM      5  N   UNL     1      -3.492  -5.235   0.675  0.00  0.00    -0.302 N 
ATOM      6  H   UNL     1      -4.358  -5.233   0.238  0.00  0.00    +0.171 HD
ATOM      7  C   UNL     1      -3.372  -5.705   1.947  0.00  0.00    +0.171 A 
ATOM      8  N   UNL     1      -2.209  -5.722   2.566  0.00  0.00    -0.208 NA
ATOM      9  C   UNL     1      -1.101  -5.277   1.964  0.00  0.00    +0.135 A 
ATOM     10  N   UNL     1       0.113  -5.307   2.621  0.00  0.00    -0.302 N 
ATOM     11  C   UNL     1       1.287  -5.239   1.920  0.00  0.00    +0.017 C 
ATOM     12  C   UNL     1       1.315  -4.756   0.662  0.00  0.00    +0.024 C 
ATOM     13  C   UNL     1       2.522  -4.683  -0.057  0.00  0.00    +0.162 C 
ATOM     14  O   UNL     1       2.512  -4.260  -1.196  0.00  0.00    -0.292 OA
ATOM     15  C   UNL     1       3.824  -5.117   0.557  0.00  0.00    +0.086 C 
ATOM     16  C   UNL     1       3.745  -4.931   2.076  0.00  0.00    -0.023 C 
ATOM     17  C   UNL     1       2.547  -5.723   2.595  0.00  0.00    +0.058 C 
ATOM     18  C   UNL     1       3.565  -3.448   2.405  0.00  0.00    +0.011 C 
ATOM     19  C   UNL     1       5.028  -5.452   2.726  0.00  0.00    +0.011 C 
ATOM     20  H   UNL     1       0.135  -5.378   3.588  0.00  0.00    +0.153 HD
ENDROOT
BRANCH   1  25
ATOM     21  C   UNL     1      -0.018   1.503   0.010  0.00  0.00    +0.044 C 
ATOM     22  C   UNL     1       0.002  -0.004   0.002  0.00  0.00    -0.050 A 
ATOM     23  C   UNL     1       0.006  -0.689  -1.199  0.00  0.00    +0.003 A 
ATOM     24  C   UNL     1       0.025  -2.071  -1.206  0.00  0.00    +0.005 A 
ATOM     25  C   UNL     1       0.040  -2.768  -0.013  0.00  0.00    -0.035 A 
ATOM     26  C   UNL     1       0.037  -2.084   1.188  0.00  0.00    +0.005 A 
ATOM     27  C   UNL     1       0.023  -0.702   1.195  0.00  0.00    +0.003 A 
ENDBRANCH   1  25
BRANCH   7  28
ATOM     28  S   UNL     1      -4.803  -6.303   2.784  0.00  0.00    -0.083 S 
BRANCH  28  29
ATOM     29  C   UNL     1      -4.179  -6.814   4.409  0.00  0.00    +0.112 C 
BRANCH  29  30
ATOM     30  C   UNL     1      -5.317  -7.353   5.237  0.00  0.00    -0.037 A 
ATOM     31  C   UNL     1      -6.053  -6.499   6.039  0.00  0.00    +0.007 A 
ATOM     32  C   UNL     1      -7.097  -6.992   6.798  0.00  0.00    +0.038 A 
ATOM     33  C   UNL     1      -7.406  -8.341   6.757  0.00  0.00    +0.123 A 
ATOM     34  C   UNL     1      -6.669  -9.194   5.954  0.00  0.00    +0.038 A 
ATOM     35  C   UNL     1      -5.629  -8.699   5.191  0.00  0.00    +0.007 A 
ATOM     36  F   UNL     1      -8.426  -8.823   7.499  0.00  0.00    -0.205 F 
ENDBRANCH  29  30
ENDBRANCH  28  29
ENDBRANCH   7  28
TORSDOF 4
