REMARK  Name = ZINC39468948
REMARK  2 active torsions:
REMARK  status: ('A' for Active; 'I' for Inactive)
REMARK    1  A    between atoms: C_1  and  S_2
REMARK    2  A    between atoms: S_2  and  C_3
REMARK                            x       y       z     vdW  Elec       q    Type
REMARK                         _______ _______ _______ _____ _____    ______ ____
ROOT
ATOM      1  C   UNL     1      -1.702  -0.454   0.016  0.00  0.00    +0.017 C 
ATOM      2  C   UNL     1      -2.651   0.492   0.024  0.00  0.00    -0.007 C 
ATOM      3  C   UNL     1      -4.099   0.083   0.048  0.00  0.00    +0.017 C 
ATOM      4  C   UNL     1      -4.963   1.203   0.612  0.00  0.00    -0.003 C 
ATOM      5  C   UNL     1      -4.621   1.466   2.084  0.00  0.00    -0.020 C 
ATOM      6  C   UNL     1      -5.555   2.582   2.571  0.00  0.00    +0.159 C 
ATOM      7  O   UNL     1      -5.246   2.906   3.938  0.00  0.00    -0.297 OA
ATOM      8  P   UNL     1      -5.149   1.678   5.002  0.00  0.00    +0.421 P 
ATOM      9  O   UNL     1      -6.563   1.252   5.458  0.00  0.00    -0.239 OA
ATOM     10  N   UNL     1      -4.419   0.448   4.178  0.00  0.00    -0.267 NA
ATOM     11  N   UNL     1      -4.796   0.242   2.868  0.00  0.00    +0.399 N 
ATOM     12  C   UNL     1      -3.918  -0.823   2.358  0.00  0.00    -0.046 C 
ATOM     13  C   UNL     1      -4.265  -1.161   0.926  0.00  0.00    +0.005 C 
ATOM     14  C   UNL     1      -3.305  -2.225   0.450  0.00  0.00    -0.009 C 
ATOM     15  C   UNL     1      -2.098  -1.877   0.012  0.00  0.00    +0.023 C 
ATOM     16  I   UNL     1      -0.762  -3.338  -0.673  0.00  0.00    -0.043 I 
ATOM     17  O   UNL     1      -4.296   2.091   6.222  0.00  0.00    -0.128 OA
ATOM     18  H   UNL     1      -3.749  -0.110   4.602  0.00  0.00    +0.113 HD
ATOM     19  H   UNL     1      -5.762  -0.050   2.831  0.00  0.00    -0.055 HD
ENDROOT
BRANCH   1  21
ATOM     20  C   UNL     1      -0.022   1.810   0.012  0.00  0.00    +0.090 C 
ATOM     21  S   UNL     1       0.002  -0.004   0.002  0.00  0.00    -0.128 S 
ENDBRANCH   1  21
TORSDOF 1
