REMARK  Name = ZINC12917290
REMARK  10 active torsions:
REMARK  status: ('A' for Active; 'I' for Inactive)
REMARK    1  A    between atoms: C_1  and  C_2
REMARK    2  A    between atoms: C_5  and  C_27
REMARK    3  A    between atoms: C_6  and  O_9
REMARK    4  A    between atoms: C_7  and  C_8
REMARK    5  A    between atoms: O_9  and  C_10
REMARK    6  A    between atoms: C_10  and  C_11
REMARK    7  A    between atoms: C_11  and  C_13
REMARK    8  A    between atoms: C_11  and  O_26
REMARK    9  A    between atoms: C_13  and  N_14
REMARK   10  A    between atoms: C_22  and  N_56
REMARK                            x       y       z     vdW  Elec       q    Type
REMARK                         _______ _______ _______ _____ _____    ______ ____
ROOT
ATOM      1  C   UNL     1      -4.556  -1.240  -1.679  0.00  0.00    +0.152 C 
ENDROOT
BRANCH   1   2
ATOM      2  N   UNL     1      -5.177  -1.323  -3.003  0.00  0.00    -0.222 N 
ATOM      3  C   UNL     1      -4.506  -1.607  -4.139  0.00  0.00    +0.246 C 
ATOM      4  O   UNL     1      -3.321  -1.835  -4.254  0.00  0.00    -0.273 OA
ATOM      5  C   UNL     1      -5.544  -1.583  -5.237  0.00  0.00    +0.109 C 
ATOM      6  C   UNL     1      -5.644  -2.949  -5.908  0.00  0.00    +0.017 C 
ATOM      7  C   UNL     1      -6.682  -2.886  -7.033  0.00  0.00    -0.077 C 
ATOM      8  C   UNL     1      -6.262  -0.522  -7.377  0.00  0.00    -0.077 C 
ATOM      9  C   UNL     1      -5.209  -0.506  -6.264  0.00  0.00    +0.017 C 
ATOM     10  C   UNL     1      -7.182  -1.863  -9.169  0.00  0.00    -0.096 C 
ATOM     11  N   UNL     1      -6.795  -1.258  -4.540  0.00  0.00    -0.285 N 
ATOM     12  C   UNL     1      -6.481  -1.130  -3.236  0.00  0.00    +0.309 C 
ATOM     13  O   UNL     1      -7.291  -0.867  -2.369  0.00  0.00    -0.252 OA
ATOM     14  H   UNL     1      -7.674  -1.160  -4.938  0.00  0.00    +0.151 HD
ATOM     15  N   UNL     1      -6.265  -1.858  -8.011  0.00  0.00    +0.378 N 
ATOM     16  H   UNL     1      -5.316  -2.075  -8.337  0.00  0.00    -0.082 HD
ENDBRANCH   1   2
BRANCH   1  17
ATOM     17  C   UNL     1      -4.090   0.194  -1.423  0.00  0.00    +0.170 C 
BRANCH  17  18
ATOM     18  O   UNL     1      -5.224   1.060  -1.363  0.00  0.00    -0.387 OA
ATOM     19  H   UNL     1      -5.854   0.836  -0.664  0.00  0.00    +0.210 HD
ENDBRANCH  17  18
BRANCH  17  20
ATOM     20  C   UNL     1      -3.331   0.254  -0.095  0.00  0.00    +0.262 C 
BRANCH  20  21
ATOM     21  O   UNL     1      -2.796   1.566   0.088  0.00  0.00    -0.489 OA
BRANCH  21  27
ATOM     22  C   UNL     1       1.488   1.574   2.427  0.00  0.00    +0.044 C 
ATOM     23  C   UNL     1      -0.000   1.806   2.405  0.00  0.00    -0.044 A 
ATOM     24  C   UNL     1      -0.647   2.252   3.543  0.00  0.00    +0.004 A 
ATOM     25  C   UNL     1      -2.013   2.465   3.526  0.00  0.00    +0.007 A 
ATOM     26  C   UNL     1      -2.735   2.232   2.371  0.00  0.00    -0.009 A 
ATOM     27  C   UNL     1      -2.088   1.790   1.227  0.00  0.00    +0.127 A 
ATOM     28  C   UNL     1      -0.718   1.572   1.248  0.00  0.00    -0.006 A 
ATOM     29  C   UNL     1      -0.013   1.086   0.008  0.00  0.00    +0.048 C 
ATOM     30  C   UNL     1      -4.224   2.465   2.353  0.00  0.00    +0.047 C 
ENDBRANCH  21  27
ENDBRANCH  20  21
ENDBRANCH  17  20
ENDBRANCH   1  17
TORSDOF 6
