REMARK  Name = ZINC09100359
REMARK  8 active torsions:
REMARK  status: ('A' for Active; 'I' for Inactive)
REMARK    1  A    between atoms: C_1  and  C_2
REMARK    2  A    between atoms: C_2  and  C_4
REMARK    3  A    between atoms: C_2  and  N_60
REMARK    4  A    between atoms: C_7  and  S_16
REMARK    5  A    between atoms: N_8  and  C_9
REMARK    6  A    between atoms: S_16  and  C_17
REMARK    7  A    between atoms: C_17  and  C_18
REMARK    8  A    between atoms: C_18  and  N_19
REMARK                            x       y       z     vdW  Elec       q    Type
REMARK                         _______ _______ _______ _____ _____    ______ ____
ROOT
ATOM      1  C   UNL     1      -0.731   2.002  -1.204  0.00  0.00    +0.125 A 
ATOM      2  N   UNL     1      -1.904   1.636  -1.636  0.00  0.00    -0.135 NA
ATOM      3  N   UNL     1      -2.212   2.296  -2.695  0.00  0.00    -0.122 NA
ATOM      4  C   UNL     1      -1.243   3.127  -3.001  0.00  0.00    +0.196 A 
ATOM      5  N   UNL     1      -0.267   2.970  -2.056  0.00  0.00    -0.275 N 
ENDROOT
BRANCH   5   6
ATOM      6  C   UNL     1       0.955   3.655  -1.976  0.00  0.00    +0.050 A 
ATOM      7  C   UNL     1       1.208   4.502  -0.906  0.00  0.00    +0.028 A 
ATOM      8  C   UNL     1       2.413   5.172  -0.828  0.00  0.00    +0.022 A 
ATOM      9  C   UNL     1       3.364   5.006  -1.819  0.00  0.00    +0.041 A 
ATOM     10  C   UNL     1       3.112   4.166  -2.889  0.00  0.00    +0.022 A 
ATOM     11  C   UNL     1       1.910   3.490  -2.970  0.00  0.00    +0.028 A 
ATOM     12 CL   UNL     1       4.876   5.854  -1.721  0.00  0.00    -0.084 Cl
ENDBRANCH   5   6
BRANCH   1  14
ATOM     13  C   UNL     1      -0.691   2.001   1.275  0.00  0.00    -0.005 C 
ATOM     14  C   UNL     1      -0.018   1.465   0.010  0.00  0.00    -0.002 C 
BRANCH  14  20
ATOM     15  C   UNL     1       0.630  -0.564   1.161  0.00  0.00    -0.078 C 
ATOM     16  C   UNL     1       0.420  -2.079   1.205  0.00  0.00    -0.019 C 
ATOM     17  C   UNL     1       0.946  -2.700  -0.092  0.00  0.00    -0.004 C 
ATOM     18  C   UNL     1       0.223  -2.064  -1.283  0.00  0.00    -0.019 C 
ATOM     19  C   UNL     1       0.438  -0.549  -1.254  0.00  0.00    -0.078 C 
ATOM     20  N   UNL     1      -0.111  -0.010   0.008  0.00  0.00    +0.386 N 
ATOM     21  H   UNL     1      -1.098  -0.282   0.085  0.00  0.00    -0.081 HD
ENDBRANCH  14  20
ENDBRANCH   1  14
BRANCH   4  22
ATOM     22  S   UNL     1      -1.209   4.240  -4.367  0.00  0.00    -0.084 S 
BRANCH  22  23
ATOM     23  C   UNL     1      -2.814   3.866  -5.116  0.00  0.00    +0.097 C 
BRANCH  23  24
ATOM     24  C   UNL     1      -3.012   4.739  -6.358  0.00  0.00    +0.128 C 
BRANCH  24  25
ATOM     25  N   UNL     1      -4.311   4.437  -6.964  0.00  0.00    -0.233 N 
ATOM     26  C   UNL     1      -4.511   3.501  -7.909  0.00  0.00    +0.254 C 
ATOM     27  O   UNL     1      -3.656   2.783  -8.388  0.00  0.00    -0.270 OA
ATOM     28  C   UNL     1      -5.945   3.490  -8.266  0.00  0.00    +0.049 A 
ATOM     29  C   UNL     1      -6.716   2.756  -9.153  0.00  0.00    +0.014 A 
ATOM     30  C   UNL     1      -8.076   3.006  -9.252  0.00  0.00    +0.001 A 
ATOM     31  C   UNL     1      -8.668   3.982  -8.471  0.00  0.00    +0.001 A 
ATOM     32  C   UNL     1      -7.909   4.724  -7.579  0.00  0.00    +0.014 A 
ATOM     33  C   UNL     1      -6.548   4.485  -7.470  0.00  0.00    +0.049 A 
ATOM     34  C   UNL     1      -5.461   5.063  -6.653  0.00  0.00    +0.254 C 
ATOM     35  O   UNL     1      -5.584   5.954  -5.837  0.00  0.00    -0.270 OA
ENDBRANCH  24  25
ENDBRANCH  23  24
ENDBRANCH  22  23
ENDBRANCH   4  22
TORSDOF 7
