REMARK  Name = ZINC32856719
REMARK  5 active torsions:
REMARK  status: ('A' for Active; 'I' for Inactive)
REMARK    1  A    between atoms: C_3  and  C_6
REMARK    2  A    between atoms: C_9  and  C_23
REMARK    3  A    between atoms: C_12  and  C_14
REMARK    4  A    between atoms: C_14  and  O_15
REMARK    5  A    between atoms: O_15  and  C_16
REMARK                            x       y       z     vdW  Elec       q    Type
REMARK                         _______ _______ _______ _____ _____    ______ ____
ROOT
ATOM      1  C   UNL     1      -0.830   1.652   3.752  0.00  0.00    +0.173 C 
ATOM      2  C   UNL     1       0.104   1.012   4.797  0.00  0.00    +0.093 C 
ATOM      3  C   UNL     1       1.145   0.296   3.966  0.00  0.00    +0.104 C 
ATOM      4  N   UNL     1       0.885   0.465   2.712  0.00  0.00    -0.178 NA
ATOM      5  N   UNL     1      -0.242   1.246   2.466  0.00  0.00    -0.179 N 
ATOM      6  C   UNL     1      -0.718   1.572   1.248  0.00  0.00    +0.273 C 
ATOM      7  O   UNL     1      -1.715   2.256   1.150  0.00  0.00    -0.270 OA
ENDROOT
BRANCH   1  10
ATOM      8  C   UNL     1      -4.386   0.892   4.354  0.00  0.00    +0.041 A 
ATOM      9  C   UNL     1      -3.274   1.762   4.435  0.00  0.00    +0.046 A 
ATOM     10  C   UNL     1      -2.231   1.113   3.887  0.00  0.00    +0.128 A 
ATOM     11  O   UNL     1      -2.651  -0.095   3.475  0.00  0.00    -0.466 OA
ATOM     12  C   UNL     1      -3.956  -0.236   3.761  0.00  0.00    +0.195 A 
ENDBRANCH   1  10
BRANCH   3  13
ATOM     13  C   UNL     1       2.270  -0.477   4.501  0.00  0.00    +0.150 A 
ATOM     14  C   UNL     1       3.217  -1.129   3.765  0.00  0.00    +0.051 A 
ATOM     15  C   UNL     1       4.096  -1.733   4.683  0.00  0.00    +0.042 A 
ATOM     16  C   UNL     1       3.652  -1.427   5.919  0.00  0.00    +0.196 A 
ATOM     17  O   UNL     1       2.553  -0.664   5.806  0.00  0.00    -0.462 OA
ENDBRANCH   3  13
BRANCH   6  18
ATOM     18  C   UNL     1      -0.013   1.086   0.008  0.00  0.00    +0.326 C 
BRANCH  18  19
ATOM     19  O   UNL     1      -0.704   1.559  -1.150  0.00  0.00    -0.483 OA
BRANCH  19  20
ATOM     20  C   UNL     1      -0.194   1.208  -2.360  0.00  0.00    +0.121 A 
ATOM     21  C   UNL     1       0.951   0.428  -2.431  0.00  0.00    +0.047 A 
ATOM     22  C   UNL     1       1.464   0.066  -3.661  0.00  0.00    +0.019 A 
ATOM     23  C   UNL     1       0.844   0.491  -4.822  0.00  0.00    +0.018 A 
ATOM     24  C   UNL     1      -0.295   1.274  -4.754  0.00  0.00    +0.019 A 
ATOM     25  C   UNL     1      -0.815   1.633  -3.525  0.00  0.00    +0.047 A 
ATOM     26 BR   UNL     1       1.552   0.001  -6.505  0.00  0.00    -0.050 Br
ENDBRANCH  19  20
ENDBRANCH  18  19
ENDBRANCH   6  18
TORSDOF 5
