REMARK  Name = ZINC39665452
REMARK  11 active torsions:
REMARK  status: ('A' for Active; 'I' for Inactive)
REMARK    1  A    between atoms: C_1  and  C_2
REMARK    2  A    between atoms: C_8  and  N_10
REMARK    3  A    between atoms: C_14  and  C_16
REMARK    4  A    between atoms: C_16  and  S_17
REMARK    5  A    between atoms: S_17  and  C_18
REMARK    6  A    between atoms: C_21  and  C_31
REMARK    7  A    between atoms: N_22  and  C_23
REMARK    8  A    between atoms: C_23  and  C_25
REMARK    9  A    between atoms: C_23  and  C_28
REMARK   10  A    between atoms: C_25  and  C_26
REMARK   11  A    between atoms: C_25  and  C_27
REMARK                            x       y       z     vdW  Elec       q    Type
REMARK                         _______ _______ _______ _____ _____    ______ ____
ROOT
ATOM      1  S   UNL     1       6.787   1.308   5.223  0.00  0.00    -0.077 S 
ENDROOT
BRANCH   1   2
ATOM      2  C   UNL     1       8.426   1.929   5.043  0.00  0.00    +0.193 A 
ATOM      3  N   UNL     1       9.012   2.267   3.917  0.00  0.00    -0.122 NA
ATOM      4  N   UNL     1      10.206   2.681   4.146  0.00  0.00    -0.128 NA
ATOM      5  C   UNL     1      10.458   2.634   5.436  0.00  0.00    +0.172 A 
ATOM      6  N   UNL     1       9.322   2.156   6.051  0.00  0.00    -0.287 N 
BRANCH   5   7
ATOM      7  C   UNL     1      11.713   3.024   6.098  0.00  0.00    +0.056 A 
ATOM      8  C   UNL     1      12.758   3.763   5.603  0.00  0.00    +0.019 A 
ATOM      9  C   UNL     1      13.841   4.003   6.418  0.00  0.00    +0.008 A 
ATOM     10  C   UNL     1      13.844   3.505   7.682  0.00  0.00    +0.046 A 
ATOM     11  S   UNL     1      12.270   2.665   7.756  0.00  0.00    -0.094 S 
ENDBRANCH   5   7
BRANCH   6  12
ATOM     12  C   UNL     1       9.117   1.935   7.485  0.00  0.00    +0.206 C 
BRANCH  12  13
ATOM     13  C   UNL     1       7.946   2.792   7.971  0.00  0.00    +0.017 C 
ATOM     14  C   UNL     1       7.732   2.561   9.468  0.00  0.00    +0.010 C 
ATOM     15  C   UNL     1       8.258   4.269   7.722  0.00  0.00    +0.010 C 
ENDBRANCH  12  13
BRANCH  12  16
ATOM     16  C   UNL     1       8.810   0.480   7.730  0.00  0.00    +0.379 C 
ATOM     17  O   UNL     1       9.619  -0.375   7.412  0.00  0.00    -0.244 OA
ATOM     18  O   UNL     1       7.753   0.159   8.245  0.00  0.00    -0.244 OA
ENDBRANCH  12  16
ENDBRANCH   6  12
ENDBRANCH   1   2
BRANCH   1  19
ATOM     19  C   UNL     1       6.152   1.247   3.525  0.00  0.00    +0.173 C 
BRANCH  19  24
ATOM     20  N   UNL     1       2.116  -0.004   1.231  0.00  0.00    -0.296 N 
ATOM     21  C   UNL     1       2.795   0.128   2.388  0.00  0.00    +0.306 C 
ATOM     22  O   UNL     1       2.267  -0.174   3.440  0.00  0.00    -0.252 OA
ATOM     23  N   UNL     1       4.059   0.594   2.379  0.00  0.00    -0.239 N 
ATOM     24  C   UNL     1       4.738   0.726   3.536  0.00  0.00    +0.231 C 
ATOM     25  O   UNL     1       4.211   0.424   4.585  0.00  0.00    -0.274 OA
ATOM     26  H   UNL     1       2.538   0.237   0.392  0.00  0.00    +0.151 HD
ATOM     27  H   UNL     1       4.481   0.835   1.539  0.00  0.00    +0.159 HD
BRANCH  20  34
ATOM     28  C   UNL     1      -0.019   1.526   0.010  0.00  0.00    +0.009 C 
ATOM     29  C   UNL     1       0.002  -0.004   0.002  0.00  0.00    +0.006 C 
ATOM     30  C   UNL     1      -1.433  -0.534   0.013  0.00  0.00    +0.005 C 
ATOM     31  C   UNL     1      -1.413  -2.063   0.004  0.00  0.00    +0.000 C 
ATOM     32  C   UNL     1      -0.673  -2.570   1.244  0.00  0.00    +0.002 C 
ATOM     33  C   UNL     1       0.763  -2.041   1.233  0.00  0.00    +0.022 C 
ATOM     34  C   UNL     1       0.742  -0.511   1.242  0.00  0.00    +0.077 C 
ENDBRANCH  20  34
ENDBRANCH  19  24
ENDBRANCH   1  19
TORSDOF 8
