REMARK  Name = ZINC40010576
REMARK  7 active torsions:
REMARK  status: ('A' for Active; 'I' for Inactive)
REMARK    1  A    between atoms: C_1  and  C_2
REMARK    2  A    between atoms: C_7  and  C_14
REMARK    3  A    between atoms: C_18  and  O_32
REMARK    4  A    between atoms: C_19  and  O_30
REMARK    5  A    between atoms: C_25  and  C_27
REMARK    6  A    between atoms: O_30  and  C_31
REMARK    7  A    between atoms: O_32  and  C_33
REMARK                            x       y       z     vdW  Elec       q    Type
REMARK                         _______ _______ _______ _____ _____    ______ ____
ROOT
ATOM      1  C   UNL     1       1.325  -5.759   1.300  0.00  0.00    +0.122 C 
ATOM      2  C   UNL     1       2.554  -4.898   1.151  0.00  0.00    -0.019 A 
ATOM      3  C   UNL     1       2.803  -4.338  -0.095  0.00  0.00    +0.055 A 
ATOM      4  C   UNL     1       3.908  -3.531  -0.295  0.00  0.00    +0.162 A 
ATOM      5  C   UNL     1       4.775  -3.279   0.765  0.00  0.00    +0.162 A 
ATOM      6  C   UNL     1       4.525  -3.842   2.002  0.00  0.00    +0.053 A 
ATOM      7  C   UNL     1       3.416  -4.658   2.197  0.00  0.00    -0.037 A 
ATOM      8  C   UNL     1       3.226  -5.258   3.566  0.00  0.00    +0.054 C 
ATOM      9  C   UNL     1       1.780  -5.705   3.768  0.00  0.00    +0.113 C 
ATOM     10  N   UNL     1       1.374  -6.473   2.580  0.00  0.00    -0.293 N 
ATOM     11  C   UNL     1       1.060  -7.781   2.666  0.00  0.00    +0.219 C 
ATOM     12  O   UNL     1       0.728  -8.392   1.672  0.00  0.00    -0.275 OA
ENDROOT
BRANCH   1  19
ATOM     13  C   UNL     1      -3.837  -3.593   6.287  0.00  0.00    +0.044 C 
ATOM     14  C   UNL     1      -2.765  -3.665   5.229  0.00  0.00    -0.049 A 
ATOM     15  C   UNL     1      -1.700  -2.767   5.293  0.00  0.00    +0.004 A 
ATOM     16  C   UNL     1      -0.705  -2.783   4.369  0.00  0.00    +0.010 A 
ATOM     17  C   UNL     1      -0.761  -3.768   3.289  0.00  0.00    -0.007 A 
ATOM     18  C   UNL     1       0.216  -3.822   2.340  0.00  0.00    -0.003 C 
ATOM     19  C   UNL     1       0.076  -4.876   1.258  0.00  0.00    +0.123 C 
ATOM     20  C   UNL     1      -1.134  -5.780   1.320  0.00  0.00    +0.226 C 
ATOM     21  O   UNL     1      -1.295  -6.643   0.478  0.00  0.00    -0.275 OA
ATOM     22  N   UNL     1      -2.016  -5.630   2.294  0.00  0.00    -0.284 N 
ATOM     23  C   UNL     1      -1.897  -4.705   3.247  0.00  0.00    +0.041 A 
ATOM     24  C   UNL     1      -2.873  -4.607   4.256  0.00  0.00    +0.027 A 
ATOM     25  H   UNL     1      -2.785  -6.220   2.316  0.00  0.00    +0.155 HD
ENDBRANCH   1  19
BRANCH  11  26
ATOM     26  C   UNL     1       1.122  -8.485   3.997  0.00  0.00    +0.075 C 
ATOM     27  C   UNL     1       2.213  -9.540   4.189  0.00  0.00    +0.013 C 
ATOM     28  C   UNL     1       0.753  -9.970   4.029  0.00  0.00    +0.013 C 
ENDBRANCH  11  26
BRANCH   5  29
ATOM     29  O   UNL     1       5.862  -2.483   0.584  0.00  0.00    -0.491 OA
ATOM     30  C   UNL     1       6.706  -2.270   1.717  0.00  0.00    +0.277 C 
ENDBRANCH   5  29
BRANCH   4  31
ATOM     31  O   UNL     1       4.146  -2.987  -1.518  0.00  0.00    -0.491 OA
ATOM     32  C   UNL     1       3.212  -3.291  -2.556  0.00  0.00    +0.277 C 
ENDBRANCH   4  31
TORSDOF 4
