REMARK  Name = ZINC36642446
REMARK  7 active torsions:
REMARK  status: ('A' for Active; 'I' for Inactive)
REMARK    1  A    between atoms: C_1  and  C_2
REMARK    2  A    between atoms: C_3  and  C_7
REMARK    3  A    between atoms: N_9  and  C_10
REMARK    4  A    between atoms: C_10  and  C_11
REMARK    5  A    between atoms: C_11  and  N_12
REMARK    6  A    between atoms: N_12  and  C_13
REMARK    7  A    between atoms: N_12  and  C_14
REMARK                            x       y       z     vdW  Elec       q    Type
REMARK                         _______ _______ _______ _____ _____    ______ ____
ROOT
ATOM      1  C   UNL     1      -0.218  -0.318  -2.610  0.00  0.00    +0.262 C 
ATOM      2  O   UNL     1      -0.329   0.860  -2.889  0.00  0.00    -0.269 OA
ATOM      3  N   UNL     1       0.102  -1.211  -3.567  0.00  0.00    -0.248 N 
ATOM      4  C   UNL     1       0.411  -0.775  -4.844  0.00  0.00    +0.168 A 
ATOM      5  N   UNL     1       0.737  -1.484  -5.900  0.00  0.00    -0.224 NA
ATOM      6  C   UNL     1       1.015  -0.921  -7.096  0.00  0.00    +0.080 A 
ATOM      7  C   UNL     1       1.377  -1.565  -8.301  0.00  0.00    +0.030 A 
ATOM      8  C   UNL     1       1.628  -0.838  -9.436  0.00  0.00    +0.017 A 
ATOM      9  C   UNL     1       1.537   0.547  -9.445  0.00  0.00    +0.019 A 
ATOM     10  C   UNL     1       1.184   1.210  -8.283  0.00  0.00    +0.032 A 
ATOM     11  C   UNL     1       0.931   0.490  -7.142  0.00  0.00    +0.042 A 
ATOM     12  S   UNL     1       0.457   0.895  -5.478  0.00  0.00    -0.052 S 
ATOM     13 BR   UNL     1       1.891   1.518 -11.028  0.00  0.00    -0.050 Br
ENDROOT
BRANCH   1  16
ATOM     14  C   UNL     1      -0.694   1.477  -0.060  0.00  0.00    +0.069 C 
ATOM     15  C   UNL     1      -0.648  -0.029  -0.069  0.00  0.00    +0.081 A 
ATOM     16  C   UNL     1      -0.433  -0.769  -1.226  0.00  0.00    +0.117 A 
ATOM     17  S   UNL     1      -0.496  -2.422  -0.555  0.00  0.00    +0.041 S 
ATOM     18  N   UNL     1      -0.765  -2.035   0.996  0.00  0.00    -0.110 NA
ATOM     19  N   UNL     1      -0.800  -0.750   1.015  0.00  0.00    -0.146 NA
ENDBRANCH   1  16
BRANCH   3  20
ATOM     20  C   UNL     1       0.124  -2.642  -3.256  0.00  0.00    +0.097 C 
BRANCH  20  21
ATOM     21  C   UNL     1      -1.289  -3.214  -3.385  0.00  0.00    -0.060 C 
BRANCH  21  22
ATOM     22  N   UNL     1      -1.267  -4.649  -3.074  0.00  0.00    +0.377 N 
ATOM     23  C   UNL     1      -0.898  -4.839  -1.664  0.00  0.00    -0.097 C 
ATOM     24  C   UNL     1      -2.598  -5.223  -3.313  0.00  0.00    -0.097 C 
ATOM     25  H   UNL     1      -0.591  -5.111  -3.663  0.00  0.00    -0.083 HD
ENDBRANCH  21  22
ENDBRANCH  20  21
ENDBRANCH   3  20
TORSDOF 4
