REMARK  Name = ZINC45795654
REMARK  10 active torsions:
REMARK  status: ('A' for Active; 'I' for Inactive)
REMARK    1  A    between atoms: C_1  and  C_2
REMARK    2  A    between atoms: C_5  and  C_9
REMARK    3  A    between atoms: C_11  and  C_14
REMARK    4  A    between atoms: C_14  and  C_15
REMARK    5  A    between atoms: C_15  and  C_16
REMARK    6  A    between atoms: C_16  and  S_17
REMARK    7  A    between atoms: S_17  and  C_18
REMARK    8  A    between atoms: C_21  and  C_26
REMARK    9  A    between atoms: N_22  and  C_23
REMARK   10  A    between atoms: C_26  and  C_27
REMARK                            x       y       z     vdW  Elec       q    Type
REMARK                         _______ _______ _______ _____ _____    ______ ____
ROOT
ATOM      1  C   UNL     1      -1.338  -8.664   3.617  0.00  0.00    +0.078 C 
ENDROOT
BRANCH   1   2
ATOM      2  C   UNL     1      -1.365  -7.280   2.964  0.00  0.00    +0.020 C 
BRANCH   2   3
ATOM      3  C   UNL     1       0.067  -6.766   2.799  0.00  0.00    +0.099 C 
BRANCH   3   6
ATOM      4  C   UNL     1      -0.029  -3.251   1.903  0.00  0.00    +0.202 A 
ATOM      5  N   UNL     1      -0.024  -4.266   2.785  0.00  0.00    -0.191 NA
ATOM      6  C   UNL     1       0.040  -5.404   2.155  0.00  0.00    +0.228 A 
ATOM      7  O   UNL     1       0.080  -5.159   0.839  0.00  0.00    -0.338 OA
ATOM      8  N   UNL     1       0.028  -3.748   0.692  0.00  0.00    -0.056 NA
BRANCH   4  13
ATOM      9  C   UNL     1      -0.281   2.352   3.222  0.00  0.00    +0.047 C 
ATOM     10  C   UNL     1      -0.215   0.886   2.878  0.00  0.00    -0.015 A 
ATOM     11  C   UNL     1      -0.158   0.491   1.554  0.00  0.00    +0.007 A 
ATOM     12  C   UNL     1      -0.097  -0.850   1.232  0.00  0.00    +0.012 A 
ATOM     13  C   UNL     1      -0.093  -1.808   2.244  0.00  0.00    +0.025 A 
ATOM     14  C   UNL     1      -0.151  -1.407   3.577  0.00  0.00    +0.050 A 
ATOM     15  C   UNL     1      -0.207  -0.061   3.889  0.00  0.00    +0.127 A 
ATOM     16  F   UNL     1      -0.258   0.331   5.181  0.00  0.00    -0.205 F 
ENDBRANCH   4  13
ENDBRANCH   3   6
ENDBRANCH   2   3
ENDBRANCH   1   2
BRANCH   1  17
ATOM     17  S   UNL     1      -3.035  -9.273   3.814  0.00  0.00    -0.086 S 
BRANCH  17  18
ATOM     18  C   UNL     1      -2.837 -10.852   4.568  0.00  0.00    +0.192 A 
ATOM     19  N   UNL     1      -1.701 -11.421   4.903  0.00  0.00    -0.122 NA
ATOM     20  N   UNL     1      -1.927 -12.570   5.431  0.00  0.00    -0.133 NA
ATOM     21  C   UNL     1      -3.209 -12.803   5.464  0.00  0.00    +0.139 A 
ATOM     22  N   UNL     1      -3.835 -11.715   4.921  0.00  0.00    -0.303 N 
BRANCH  22  23
ATOM     23  C   UNL     1      -5.276 -11.517   4.751  0.00  0.00    +0.091 C 
ATOM     24  C   UNL     1      -5.729 -10.426   3.779  0.00  0.00    +0.027 C 
ATOM     25  C   UNL     1      -5.879 -10.217   5.287  0.00  0.00    +0.027 C 
ENDBRANCH  22  23
BRANCH  21  26
ATOM     26  C   UNL     1      -3.878 -14.040   6.006  0.00  0.00    +0.118 C 
BRANCH  26  27
ATOM     27  C   UNL     1      -4.178 -13.848   7.470  0.00  0.00    -0.003 A 
ATOM     28  C   UNL     1      -5.292 -13.342   8.054  0.00  0.00    +0.011 A 
ATOM     29  C   UNL     1      -5.347 -13.261   9.433  0.00  0.00    +0.008 A 
ATOM     30  C   UNL     1      -4.286 -13.688  10.160  0.00  0.00    +0.045 A 
ATOM     31  S   UNL     1      -3.162 -14.235   8.886  0.00  0.00    -0.101 S 
ENDBRANCH  26  27
ENDBRANCH  21  26
ENDBRANCH  17  18
ENDBRANCH   1  17
TORSDOF 9
