REMARK  Name = ZINC13065011
REMARK  15 active torsions:
REMARK  status: ('A' for Active; 'I' for Inactive)
REMARK    1  A    between atoms: C_1  and  C_2
REMARK    2  A    between atoms: C_2  and  C_3
REMARK    3  A    between atoms: C_3  and  C_5
REMARK    4  A    between atoms: C_3  and  N_70
REMARK    5  A    between atoms: N_9  and  C_10
REMARK    6  A    between atoms: C_10  and  C_11
REMARK    7  A    between atoms: C_10  and  C_12
REMARK    8  A    between atoms: C_10  and  C_13
REMARK    9  A    between atoms: C_13  and  C_14
REMARK   10  A    between atoms: C_15  and  C_16
REMARK   11  A    between atoms: C_15  and  N_70
REMARK   12  A    between atoms: C_22  and  C_23
REMARK   13  A    between atoms: C_22  and  N_70
REMARK   14  A    between atoms: C_28  and  C_36
REMARK   15  A    between atoms: C_29  and  C_35
REMARK                            x       y       z     vdW  Elec       q    Type
REMARK                         _______ _______ _______ _____ _____    ______ ____
ROOT
ATOM      1  N   UNL     1       0.904  -2.621  -1.334  0.00  0.00    +0.392 N 
ATOM      2  H   UNL     1       1.746  -2.165  -1.704  0.00  0.00    -0.080 HD
ENDROOT
BRANCH   1   3
ATOM      3  C   UNL     1      -0.272  -2.153  -2.098  0.00  0.00    +0.003 C 
BRANCH   3   4
ATOM      4  C   UNL     1       0.035  -0.788  -2.660  0.00  0.00    +0.139 A 
ATOM      5  N   UNL     1       0.556   0.225  -2.013  0.00  0.00    -0.115 NA
ATOM      6  N   UNL     1       0.663   1.210  -2.836  0.00  0.00    -0.023 NA
ATOM      7  N   UNL     1       0.224   0.852  -3.992  0.00  0.00    -0.043 NA
ATOM      8  N   UNL     1      -0.167  -0.376  -3.925  0.00  0.00    -0.225 N 
BRANCH   8   9
ATOM      9  C   UNL     1      -0.730  -1.171  -5.020  0.00  0.00    +0.061 C 
ATOM     10  C   UNL     1       0.197  -2.350  -5.322  0.00  0.00    +0.036 C 
ATOM     11  C   UNL     1      -2.108  -1.696  -4.613  0.00  0.00    +0.036 C 
BRANCH   9  12
ATOM     12  C   UNL     1      -0.865  -0.296  -6.268  0.00  0.00    +0.026 C 
ATOM     13  C   UNL     1      -1.452  -1.126  -7.411  0.00  0.00    +0.006 C 
ENDBRANCH   9  12
ENDBRANCH   8   9
ENDBRANCH   3   4
BRANCH   3  15
ATOM     14  C   UNL     1      -1.905  -3.472  -0.743  0.00  0.00    +0.002 C 
ATOM     15  C   UNL     1      -1.498  -2.065  -1.187  0.00  0.00    -0.011 C 
ENDBRANCH   3  15
ENDBRANCH   1   3
BRANCH   1  16
ATOM     16  C   UNL     1       0.753  -2.266   0.093  0.00  0.00    -0.040 C 
BRANCH  16  17
ATOM     17  C   UNL     1       0.926  -0.777   0.242  0.00  0.00    -0.046 A 
ATOM     18  C   UNL     1       2.149  -0.181  -0.029  0.00  0.00    +0.005 A 
ATOM     19  C   UNL     1       2.262   1.192   0.122  0.00  0.00    +0.020 A 
ATOM     20  C   UNL     1       1.160   1.917   0.535  0.00  0.00    +0.111 A 
ATOM     21  N   UNL     1       0.012   1.317   0.784  0.00  0.00    -0.263 NA
ATOM     22  C   UNL     1      -0.132   0.013   0.651  0.00  0.00    +0.112 A 
ENDBRANCH  16  17
ENDBRANCH   1  16
BRANCH   1  23
ATOM     23  C   UNL     1       1.049  -4.085  -1.478  0.00  0.00    -0.036 C 
BRANCH  23  24
ATOM     24  C   UNL     1       2.435  -4.479  -1.038  0.00  0.00    +0.001 A 
ATOM     25  C   UNL     1       2.645  -4.910   0.230  0.00  0.00    +0.017 A 
ATOM     26  C   UNL     1       4.003  -5.289   0.625  0.00  0.00    -0.001 A 
ATOM     27  C   UNL     1       4.280  -5.746   1.917  0.00  0.00    +0.010 A 
ATOM     28  C   UNL     1       5.559  -6.087   2.255  0.00  0.00    +0.004 A 
ATOM     29  C   UNL     1       6.586  -5.985   1.327  0.00  0.00    -0.046 A 
ATOM     30  C   UNL     1       6.336  -5.538   0.048  0.00  0.00    -0.024 A 
ATOM     31  C   UNL     1       5.042  -5.185  -0.319  0.00  0.00    +0.052 A 
ATOM     32  N   UNL     1       4.763  -4.735  -1.592  0.00  0.00    -0.322 N 
ATOM     33  H   UNL     1       5.480  -4.663  -2.242  0.00  0.00    +0.169 HD
ATOM     34  C   UNL     1       3.512  -4.393  -1.947  0.00  0.00    +0.251 A 
ATOM     35  O   UNL     1       3.302  -3.999  -3.081  0.00  0.00    -0.268 OA
ATOM     36  C   UNL     1       7.461  -5.434  -0.950  0.00  0.00    +0.046 C 
ATOM     37  C   UNL     1       7.989  -6.368   1.722  0.00  0.00    +0.044 C 
ENDBRANCH  23  24
ENDBRANCH   1  23
TORSDOF 9
