REMARK  Name = ZINC12079135
REMARK  7 active torsions:
REMARK  status: ('A' for Active; 'I' for Inactive)
REMARK    1  A    between atoms: C_3  and  C_6
REMARK    2  A    between atoms: C_6  and  N_52
REMARK    3  A    between atoms: C_7  and  C_8
REMARK    4  A    between atoms: C_7  and  N_52
REMARK    5  A    between atoms: C_16  and  N_17
REMARK    6  A    between atoms: C_21  and  C_24
REMARK    7  A    between atoms: C_24  and  O_25
REMARK                            x       y       z     vdW  Elec       q    Type
REMARK                         _______ _______ _______ _____ _____    ______ ____
ROOT
ATOM      1  C   UNL     1       0.036   1.451  -0.229  0.00  0.00    -0.026 A 
ATOM      2  C   UNL     1       1.242   2.084  -0.173  0.00  0.00    +0.015 A 
ATOM      3  C   UNL     1       2.395   1.306   0.050  0.00  0.00    +0.002 A 
ATOM      4  C   UNL     1       3.668   1.895   0.118  0.00  0.00    +0.059 A 
ATOM      5  C   UNL     1       4.766   1.114   0.336  0.00  0.00    +0.167 A 
ATOM      6  C   UNL     1       4.636  -0.276   0.492  0.00  0.00    +0.168 A 
ATOM      7  C   UNL     1       3.409  -0.873   0.430  0.00  0.00    +0.075 A 
ATOM      8  C   UNL     1       2.261  -0.096   0.207  0.00  0.00    +0.051 A 
ATOM      9  C   UNL     1      -0.032   0.061  -0.066  0.00  0.00    +0.101 A 
ATOM     10  O   UNL     1       5.879  -0.805   0.694  0.00  0.00    -0.453 OA
ATOM     11  C   UNL     1       6.713   0.305   1.073  0.00  0.00    +0.466 C 
ATOM     12  O   UNL     1       6.089   1.438   0.444  0.00  0.00    -0.453 OA
ATOM     13  N   UNL     1       1.043  -0.738   0.151  0.00  0.00    -0.343 N 
ATOM     14  H   UNL     1       0.955  -1.754   0.265  0.00  0.00    +0.167 HD
ENDROOT
BRANCH   9  15
ATOM     15  N   UNL     1      -1.267  -0.569  -0.125  0.00  0.00    -0.316 N 
ATOM     16  C   UNL     1      -1.346  -1.464  -1.286  0.00  0.00    +0.106 C 
ATOM     17  C   UNL     1      -2.764  -2.027  -1.402  0.00  0.00    +0.019 C 
ATOM     18  C   UNL     1      -3.111  -2.791  -0.121  0.00  0.00    +0.009 C 
ATOM     19  C   UNL     1      -2.974  -1.849   1.079  0.00  0.00    +0.032 C 
ATOM     20  C   UNL     1      -1.549  -1.291   1.123  0.00  0.00    +0.112 C 
BRANCH  19  21
ATOM     21  C   UNL     1      -3.260  -2.620   2.369  0.00  0.00    +0.160 C 
BRANCH  21  22
ATOM     22  O   UNL     1      -4.624  -3.045   2.377  0.00  0.00    -0.395 OA
ATOM     23  H   UNL     1      -4.877  -3.541   3.168  0.00  0.00    +0.209 HD
ENDBRANCH  21  22
ENDBRANCH  19  21
ENDBRANCH   9  15
BRANCH   1  24
ATOM     24  C   UNL     1      -1.222   2.245  -0.472  0.00  0.00    -0.043 C 
BRANCH  24  25
ATOM     25  N   UNL     1      -1.934   2.425   0.808  0.00  0.00    +0.385 N 
ATOM     26  H   UNL     1      -2.172   1.505   1.195  0.00  0.00    -0.085 HD
ATOM     27  H   UNL     1      -1.327   2.927   1.466  0.00  0.00    -0.085 HD
BRANCH  25  28
ATOM     28  C   UNL     1      -3.172   3.200   0.600  0.00  0.00    -0.039 C 
BRANCH  28  31
ATOM     29  C   UNL     1      -4.503   4.304   3.994  0.00  0.00    +0.008 A 
ATOM     30  C   UNL     1      -3.741   4.354   2.842  0.00  0.00    +0.009 A 
ATOM     31  C   UNL     1      -3.877   3.368   1.921  0.00  0.00    -0.027 A 
ATOM     32  S   UNL     1      -5.102   2.317   2.683  0.00  0.00    -0.104 S 
ATOM     33  C   UNL     1      -5.356   3.265   4.174  0.00  0.00    +0.045 A 
ENDBRANCH  28  31
ENDBRANCH  25  28
ENDBRANCH  24  25
ENDBRANCH   1  24
TORSDOF 7
