REMARK  Name = ZINC37137865
REMARK  7 active torsions:
REMARK  status: ('A' for Active; 'I' for Inactive)
REMARK    1  A    between atoms: C_1  and  C_2
REMARK    2  A    between atoms: C_2  and  C_3
REMARK    3  A    between atoms: C_3  and  C_5
REMARK    4  A    between atoms: C_3  and  N_10
REMARK    5  A    between atoms: N_10  and  C_11
REMARK    6  A    between atoms: C_14  and  S_18
REMARK    7  A    between atoms: S_18  and  N_21
REMARK                            x       y       z     vdW  Elec       q    Type
REMARK                         _______ _______ _______ _____ _____    ______ ____
ROOT
ATOM      1  C   UNL     1      -2.685   1.091   1.405  0.00  0.00    +0.042 A 
ATOM      2  C   UNL     1      -2.677   1.984   0.340  0.00  0.00    +0.026 A 
ATOM      3  C   UNL     1      -3.275   3.221   0.474  0.00  0.00    +0.030 A 
ATOM      4  C   UNL     1      -3.881   3.573   1.665  0.00  0.00    +0.106 A 
ATOM      5  C   UNL     1      -3.892   2.688   2.728  0.00  0.00    +0.045 A 
ATOM      6  C   UNL     1      -3.300   1.446   2.599  0.00  0.00    +0.041 A 
ATOM      7 BR   UNL     1      -3.322   0.233   4.050  0.00  0.00    -0.048 Br
ENDROOT
BRANCH   4   8
ATOM      8  S   UNL     1      -4.643   5.154   1.831  0.00  0.00    +0.056 S 
ATOM      9  O   UNL     1      -4.663   5.451   3.220  0.00  0.00    -0.153 OA
ATOM     10  O   UNL     1      -4.021   6.006   0.879  0.00  0.00    -0.153 OA
BRANCH   8  11
ATOM     11  N   UNL     1      -6.221   4.989   1.359  0.00  0.00    -0.204 NA
ATOM     12  H   UNL     1      -6.552   4.126   1.064  0.00  0.00    +0.144 HD
ATOM     13  H   UNL     1      -6.816   5.755   1.378  0.00  0.00    +0.144 HD
ENDBRANCH   8  11
ENDBRANCH   4   8
BRANCH   1  14
ATOM     14  N   UNL     1      -2.082  -0.162   1.273  0.00  0.00    -0.336 N 
ATOM     15  H   UNL     1      -2.092  -0.785   2.016  0.00  0.00    +0.147 HD
BRANCH  14  16
ATOM     16  C   UNL     1      -1.433  -0.534   0.013  0.00  0.00    +0.107 C 
BRANCH  16  17
ATOM     17  C   UNL     1      -1.416  -2.035  -0.119  0.00  0.00    +0.010 A 
ATOM     18  C   UNL     1      -1.625  -2.797  -1.220  0.00  0.00    +0.013 A 
ATOM     19  C   UNL     1      -1.558  -4.173  -1.105  0.00  0.00    +0.008 A 
ATOM     20  C   UNL     1      -1.286  -4.719   0.105  0.00  0.00    +0.045 A 
ATOM     21  S   UNL     1      -1.108  -3.270   1.132  0.00  0.00    -0.100 S 
ENDBRANCH  16  17
BRANCH  16  23
ATOM     22  C   UNL     1      -0.019   1.526   0.010  0.00  0.00    +0.006 C 
ATOM     23  C   UNL     1       0.002  -0.004   0.002  0.00  0.00    +0.024 C 
ENDBRANCH  16  23
ENDBRANCH  14  16
ENDBRANCH   1  14
TORSDOF 6
