REMARK  Name = ZINC12587054
REMARK  6 active torsions:
REMARK  status: ('A' for Active; 'I' for Inactive)
REMARK    1  A    between atoms: C_1  and  O_2
REMARK    2  A    between atoms: O_2  and  C_3
REMARK    3  A    between atoms: C_3  and  C_4
REMARK    4  A    between atoms: C_7  and  C_9
REMARK    5  A    between atoms: C_20  and  C_21
REMARK    6  A    between atoms: C_20  and  N_61
REMARK                            x       y       z     vdW  Elec       q    Type
REMARK                         _______ _______ _______ _____ _____    ______ ____
ROOT
ATOM      1  C   UNL     1      -4.678   4.257  -1.501  0.00  0.00    +0.282 C 
ATOM      2  O   UNL     1      -3.846   5.066  -1.867  0.00  0.00    -0.267 OA
ATOM      3  N   UNL     1      -4.337   3.284  -0.632  0.00  0.00    -0.295 N 
ATOM      4  C   UNL     1      -5.203   2.218  -0.077  0.00  0.00    +0.109 C 
ATOM      5  C   UNL     1      -4.304   0.961  -0.048  0.00  0.00    +0.025 C 
ATOM      6  C   UNL     1      -2.867   1.506  -0.008  0.00  0.00    -0.027 C 
ATOM      7  C   UNL     1      -3.010   3.039  -0.018  0.00  0.00    +0.113 C 
ATOM      8  C   UNL     1      -2.167   1.054   1.270  0.00  0.00    +0.005 C 
ATOM      9  C   UNL     1      -0.728   1.579   1.268  0.00  0.00    -0.018 C 
ATOM     10  C   UNL     1      -0.013   1.086   0.008  0.00  0.00    -0.079 C 
ATOM     11  C   UNL     1      -2.092   1.043  -1.236  0.00  0.00    -0.070 C 
ATOM     12  N   UNL     1      -0.723   1.601  -1.181  0.00  0.00    +0.380 N 
ATOM     13  H   UNL     1      -0.783   2.624  -1.116  0.00  0.00    -0.082 HD
ENDROOT
BRANCH   1  17
ATOM     14  C   UNL     1      -8.176   3.892  -2.331  0.00  0.00    +0.131 A 
ATOM     15  C   UNL     1      -7.888   4.975  -3.086  0.00  0.00    +0.048 A 
ATOM     16  C   UNL     1      -6.532   5.274  -2.879  0.00  0.00    +0.055 A 
ATOM     17  C   UNL     1      -6.053   4.340  -2.005  0.00  0.00    +0.190 A 
ATOM     18  O   UNL     1      -7.068   3.512  -1.681  0.00  0.00    -0.453 OA
BRANCH  14  19
ATOM     19  C   UNL     1      -9.522   3.221  -2.236  0.00  0.00    +0.233 C 
BRANCH  19  21
ATOM     20  C   UNL     1     -10.865   1.504  -3.231  0.00  0.00    +0.194 C 
ATOM     21  O   UNL     1      -9.620   2.205  -3.235  0.00  0.00    -0.375 OA
ENDBRANCH  19  21
ENDBRANCH  14  19
ENDBRANCH   1  17
BRANCH  12  22
ATOM     22  C   UNL     1       0.019   1.241  -2.408  0.00  0.00    -0.075 C 
BRANCH  22  23
ATOM     23  C   UNL     1       1.339   2.013  -2.430  0.00  0.00    -0.028 C 
ATOM     24  C   UNL     1       1.051   3.513  -2.523  0.00  0.00    +0.002 C 
ATOM     25  C   UNL     1       2.372   4.285  -2.546  0.00  0.00    +0.000 C 
ATOM     26  C   UNL     1       3.198   3.848  -3.757  0.00  0.00    +0.000 C 
ATOM     27  C   UNL     1       3.486   2.349  -3.663  0.00  0.00    +0.000 C 
ATOM     28  C   UNL     1       2.166   1.576  -3.641  0.00  0.00    +0.002 C 
ENDBRANCH  22  23
ENDBRANCH  12  22
TORSDOF 5
