REMARK  Name = ZINC65074653
REMARK  8 active torsions:
REMARK  status: ('A' for Active; 'I' for Inactive)
REMARK    1  A    between atoms: C_1  and  C_2
REMARK    2  A    between atoms: C_5  and  C_8
REMARK    3  A    between atoms: C_8  and  N_9
REMARK    4  A    between atoms: N_18  and  S_21
REMARK    5  A    between atoms: S_21  and  C_24
REMARK    6  A    between atoms: C_25  and  C_32
REMARK    7  A    between atoms: C_27  and  C_31
REMARK    8  A    between atoms: C_29  and  C_30
REMARK                            x       y       z     vdW  Elec       q    Type
REMARK                         _______ _______ _______ _____ _____    ______ ____
ROOT
ATOM      1  N   UNL     1       1.579  -5.486  -1.779  0.00  0.00    -0.329 N 
ATOM      2  C   UNL     1       1.989  -6.779  -1.590  0.00  0.00    +0.089 C 
ATOM      3  N   UNL     1       1.143  -7.718  -1.789  0.00  0.00    -0.374 N 
ATOM      4  C   UNL     1       1.447  -9.134  -1.614  0.00  0.00    +0.129 C 
ATOM      5  C   UNL     1       2.962  -9.347  -1.585  0.00  0.00    +0.102 C 
ATOM      6  N   UNL     1       3.551  -8.385  -0.638  0.00  0.00    -0.303 NA
ATOM      7  C   UNL     1       3.411  -7.019  -1.166  0.00  0.00    +0.075 C 
ATOM      8  C   UNL     1       4.341  -6.840  -2.369  0.00  0.00    +0.047 C 
ATOM      9  C   UNL     1       5.784  -7.123  -1.941  0.00  0.00    +0.111 C 
ATOM     10  N   UNL     1       6.113  -6.266  -0.794  0.00  0.00    -0.176 NA
ATOM     11  C   UNL     1       5.232  -6.290   0.381  0.00  0.00    +0.111 C 
ATOM     12  C   UNL     1       3.795  -6.017  -0.073  0.00  0.00    +0.047 C 
ATOM     13  H   UNL     1       2.200  -4.755  -1.639  0.00  0.00    +0.147 HD
ATOM     14  H   UNL     1       3.127  -8.470   0.274  0.00  0.00    +0.123 HD
ATOM     15  H   UNL     1       0.248  -7.474  -2.072  0.00  0.00    +0.161 HD
ENDROOT
BRANCH  10  16
ATOM     16  S   UNL     1       7.452  -5.292  -0.825  0.00  0.00    +0.061 S 
ATOM     17  O   UNL     1       7.885  -5.154   0.521  0.00  0.00    -0.153 OA
ATOM     18  O   UNL     1       8.298  -5.798  -1.849  0.00  0.00    -0.153 OA
BRANCH  16  19
ATOM     19  C   UNL     1       6.924  -3.696  -1.351  0.00  0.00    +0.111 A 
ATOM     20  C   UNL     1       6.662  -2.712  -0.416  0.00  0.00    -0.024 A 
ATOM     21  C   UNL     1       6.247  -1.459  -0.829  0.00  0.00    +0.008 A 
ATOM     22  C   UNL     1       6.094  -1.191  -2.176  0.00  0.00    -0.050 A 
ATOM     23  C   UNL     1       6.357  -2.175  -3.111  0.00  0.00    +0.008 A 
ATOM     24  C   UNL     1       6.776  -3.426  -2.699  0.00  0.00    -0.024 A 
ATOM     25  C   UNL     1       7.066  -4.497  -3.718  0.00  0.00    +0.046 C 
ATOM     26  C   UNL     1       5.641   0.174  -2.626  0.00  0.00    +0.044 C 
ATOM     27  C   UNL     1       6.829  -3.004   1.052  0.00  0.00    +0.046 C 
ENDBRANCH  16  19
ENDBRANCH  10  16
BRANCH   1  28
ATOM     28  C   UNL     1       0.201  -5.208  -2.192  0.00  0.00    +0.138 C 
BRANCH  28  33
ATOM     29  C   UNL     1      -0.542   0.498  -2.717  0.00  0.00    +0.044 C 
ATOM     30  C   UNL     1      -0.348  -0.990  -2.580  0.00  0.00    -0.050 A 
ATOM     31  C   UNL     1       0.074  -1.734  -3.665  0.00  0.00    +0.003 A 
ATOM     32  C   UNL     1       0.252  -3.100  -3.540  0.00  0.00    +0.005 A 
ATOM     33  C   UNL     1       0.008  -3.720  -2.329  0.00  0.00    -0.030 A 
ATOM     34  C   UNL     1      -0.413  -2.975  -1.243  0.00  0.00    +0.005 A 
ATOM     35  C   UNL     1      -0.587  -1.609  -1.367  0.00  0.00    +0.003 A 
ENDBRANCH  28  33
ENDBRANCH   1  28
TORSDOF 4
