REMARK  Name = ZINC40005192
REMARK  6 active torsions:
REMARK  status: ('A' for Active; 'I' for Inactive)
REMARK    1  A    between atoms: C_1  and  C_2
REMARK    2  A    between atoms: C_5  and  C_16
REMARK    3  A    between atoms: C_6  and  C_15
REMARK    4  A    between atoms: N_7  and  C_8
REMARK    5  A    between atoms: N_17  and  N_18
REMARK    6  A    between atoms: N_18  and  C_19
REMARK                            x       y       z     vdW  Elec       q    Type
REMARK                         _______ _______ _______ _____ _____    ______ ____
ROOT
ATOM      1  C   UNL     1      -0.186   1.698   0.543  0.00  0.00    +0.029 C 
ATOM      2  C   UNL     1      -0.054   0.215   0.193  0.00  0.00    +0.080 C 
ATOM      3  C   UNL     1      -1.442  -0.451   0.138  0.00  0.00    +0.060 C 
ATOM      4  C   UNL     1      -1.380  -1.513   1.214  0.00  0.00    -0.009 C 
ATOM      5  C   UNL     1      -0.176  -1.470   1.788  0.00  0.00    +0.013 C 
ATOM      6  N   UNL     1       0.653  -0.505   1.260  0.00  0.00    -0.300 N 
ATOM      7  C   UNL     1       0.238  -2.392   2.906  0.00  0.00    +0.061 C 
ENDROOT
BRANCH   6   8
ATOM      8  C   UNL     1       1.963  -0.249   1.674  0.00  0.00    +0.034 A 
ATOM      9  C   UNL     1       3.027  -0.519   0.823  0.00  0.00    +0.024 A 
ATOM     10  C   UNL     1       4.321  -0.265   1.236  0.00  0.00    +0.016 A 
ATOM     11  C   UNL     1       4.557   0.258   2.494  0.00  0.00    +0.013 A 
ATOM     12  C   UNL     1       3.499   0.527   3.345  0.00  0.00    +0.016 A 
ATOM     13  C   UNL     1       2.203   0.281   2.936  0.00  0.00    +0.024 A 
ATOM     14  I   UNL     1       6.520   0.642   3.115  0.00  0.00    -0.044 I 
ENDBRANCH   6   8
BRANCH   4  15
ATOM     15  C   UNL     1      -2.462  -2.434   1.567  0.00  0.00    +0.135 C 
ATOM     16  N   UNL     1      -2.255  -3.374   2.441  0.00  0.00    -0.193 NA
BRANCH  16  17
ATOM     17  N   UNL     1      -3.290  -4.256   2.780  0.00  0.00    -0.236 N 
ATOM     18  H   UNL     1      -4.161  -4.164   2.362  0.00  0.00    +0.171 HD
BRANCH  17  19
ATOM     19  C   UNL     1      -3.058  -5.316   3.764  0.00  0.00    +0.312 C 
ATOM     20  C   UNL     1      -3.894  -6.519   3.366  0.00  0.00    +0.266 C 
ATOM     21  O   UNL     1      -3.768  -7.054   2.286  0.00  0.00    -0.271 OA
ATOM     22  N   UNL     1      -4.788  -6.961   4.282  0.00  0.00    -0.234 N 
ATOM     23  C   UNL     1      -4.895  -6.339   5.467  0.00  0.00    +0.347 C 
ATOM     24  O   UNL     1      -5.707  -6.764   6.263  0.00  0.00    -0.249 OA
ATOM     25  N   UNL     1      -4.163  -5.279   5.824  0.00  0.00    -0.065 NA
ATOM     26  N   UNL     1      -3.307  -4.757   5.103  0.00  0.00    -0.160 NA
ATOM     27  H   UNL     1      -5.349  -7.727   4.083  0.00  0.00    +0.159 HD
ENDBRANCH  17  19
ENDBRANCH  16  17
ENDBRANCH   4  15
TORSDOF 4
