REMARK  Name = ZINC59171013
REMARK  10 active torsions:
REMARK  status: ('A' for Active; 'I' for Inactive)
REMARK    1  A    between atoms: C_1  and  C_2
REMARK    2  A    between atoms: C_2  and  C_3
REMARK    3  A    between atoms: C_8  and  N_9
REMARK    4  A    between atoms: C_11  and  C_25
REMARK    5  A    between atoms: C_15  and  C_21
REMARK    6  A    between atoms: C_17  and  O_20
REMARK    7  A    between atoms: C_21  and  C_22
REMARK    8  A    between atoms: C_21  and  C_23
REMARK    9  A    between atoms: C_21  and  C_24
REMARK   10  A    between atoms: C_25  and  N_27
REMARK                            x       y       z     vdW  Elec       q    Type
REMARK                         _______ _______ _______ _____ _____    ______ ____
ROOT
ATOM      1  N   UNL     1      -1.208  -0.677  -2.419  0.00  0.00    -0.325 N 
ATOM      2  C   UNL     1      -1.986  -0.727  -3.478  0.00  0.00    +0.209 A 
ATOM      3  C   UNL     1      -1.496  -0.297  -4.804  0.00  0.00    +0.064 A 
ATOM      4  C   UNL     1      -2.096  -0.872  -5.917  0.00  0.00    +0.027 A 
ATOM      5  C   UNL     1      -3.160  -1.850  -5.678  0.00  0.00    +0.022 A 
ATOM      6  C   UNL     1      -3.631  -2.665  -6.715  0.00  0.00    +0.016 A 
ATOM      7  C   UNL     1      -4.620  -3.575  -6.469  0.00  0.00    -0.038 A 
ATOM      8  C   UNL     1      -5.165  -3.700  -5.200  0.00  0.00    +0.053 A 
ATOM      9  C   UNL     1      -4.717  -2.904  -4.160  0.00  0.00    +0.160 A 
ATOM     10  C   UNL     1      -3.712  -1.969  -4.389  0.00  0.00    +0.179 A 
ATOM     11  O   UNL     1      -3.263  -1.179  -3.388  0.00  0.00    -0.435 OA
ATOM     12  H   UNL     1      -0.272  -0.442  -2.515  0.00  0.00    +0.169 HD
ENDROOT
BRANCH   1  18
ATOM     13  C   UNL     1      -1.088  -1.891  -0.356  0.00  0.00    -0.024 A 
ATOM     14  C   UNL     1      -1.606  -2.163   0.893  0.00  0.00    +0.005 A 
ATOM     15  C   UNL     1      -2.750  -1.518   1.327  0.00  0.00    +0.000 A 
ATOM     16  C   UNL     1      -3.383  -0.595   0.513  0.00  0.00    +0.002 A 
ATOM     17  C   UNL     1      -2.877  -0.313  -0.739  0.00  0.00    +0.026 A 
ATOM     18  C   UNL     1      -1.719  -0.956  -1.181  0.00  0.00    +0.045 A 
BRANCH  13  20
ATOM     19  C   UNL     1       1.380  -1.724  -0.527  0.00  0.00    +0.009 C 
ATOM     20  C   UNL     1       0.159  -2.595  -0.828  0.00  0.00    +0.034 C 
ENDBRANCH  13  20
ENDBRANCH   1  18
BRANCH   7  21
ATOM     21  C   UNL     1      -5.123  -4.451  -7.587  0.00  0.00    -0.013 C 
ATOM     22  C   UNL     1      -3.968  -5.293  -8.135  0.00  0.00    +0.015 C 
ATOM     23  C   UNL     1      -6.220  -5.376  -7.056  0.00  0.00    +0.015 C 
ATOM     24  C   UNL     1      -5.691  -3.575  -8.706  0.00  0.00    +0.015 C 
ENDBRANCH   7  21
BRANCH   9  25
ATOM     25  O   UNL     1      -5.258  -3.033  -2.919  0.00  0.00    -0.503 OA
ATOM     26  H   UNL     1      -4.806  -3.677  -2.358  0.00  0.00    +0.292 HD
ENDBRANCH   9  25
BRANCH   3  27
ATOM     27  C   UNL     1      -0.419   0.695  -4.939  0.00  0.00    +0.082 C 
ATOM     28  S   UNL     1       0.184   1.499  -3.553  0.00  0.00    -0.035 S 
BRANCH  27  29
ATOM     29  N   UNL     1       0.094   0.972  -6.155  0.00  0.00    -0.352 N 
ATOM     30  H   UNL     1      -0.247   0.516  -6.940  0.00  0.00    +0.143 HD
ATOM     31  H   UNL     1       0.804   1.626  -6.244  0.00  0.00    +0.143 HD
ENDBRANCH  27  29
ENDBRANCH   3  27
TORSDOF 6
