REMARK  Name = ZINC64778009
REMARK  2 active torsions:
REMARK  status: ('A' for Active; 'I' for Inactive)
REMARK    1  A    between atoms: C_13  and  C_15
REMARK    2  A    between atoms: C_21  and  C_23
REMARK                            x       y       z     vdW  Elec       q    Type
REMARK                         _______ _______ _______ _____ _____    ______ ____
ROOT
ATOM      1  C   UNL     1      -0.017   1.379   0.010  0.00  0.00    +0.021 A 
ATOM      2  C   UNL     1       1.184   2.072   0.002  0.00  0.00    +0.018 A 
ATOM      3  C   UNL     1       2.369   1.378   0.005  0.00  0.00    +0.032 A 
ATOM      4  C   UNL     1       2.416  -0.022   0.075  0.00  0.00    +0.053 A 
ATOM      5  C   UNL     1       1.192  -0.699   0.030  0.00  0.00    +0.044 A 
ATOM      6  C   UNL     1       0.002  -0.004   0.002  0.00  0.00    +0.043 A 
ATOM      7 CL   UNL     1      -1.497  -0.878  -0.043  0.00  0.00    -0.083 Cl
ATOM      8  N   UNL     1       3.687  -0.598   0.291  0.00  0.00    -0.246 N 
ATOM      9  C   UNL     1       4.239  -1.649   0.942  0.00  0.00    +0.221 C 
ATOM     10  O   UNL     1       3.623  -2.611   1.350  0.00  0.00    -0.275 OA
ATOM     11  C   UNL     1       5.731  -1.455   1.089  0.00  0.00    +0.100 C 
ATOM     12  C   UNL     1       5.980  -0.004   0.611  0.00  0.00    +0.056 C 
ATOM     13  C   UNL     1       4.780   0.196  -0.332  0.00  0.00    +0.169 C 
ATOM     14  S   UNL     1       4.075   1.879  -0.109  0.00  0.00    -0.088 S 
ENDROOT
BRANCH  13  15
ATOM     15  C   UNL     1       5.071  -0.176  -1.763  0.00  0.00    +0.253 C 
ATOM     16  O   UNL     1       4.375  -0.990  -2.332  0.00  0.00    -0.272 OA
ATOM     17  N   UNL     1       6.105   0.396  -2.411  0.00  0.00    -0.261 N 
ATOM     18  C   UNL     1       6.373   0.053  -3.732  0.00  0.00    +0.188 A 
ATOM     19  N   UNL     1       5.738  -0.795  -4.516  0.00  0.00    -0.126 NA
ATOM     20  N   UNL     1       6.103  -1.005  -5.708  0.00  0.00    -0.144 NA
ATOM     21  C   UNL     1       7.149  -0.358  -6.181  0.00  0.00    +0.107 A 
ATOM     22  S   UNL     1       7.592   0.618  -4.751  0.00  0.00    -0.035 S 
ATOM     23  H   UNL     1       6.662   1.047  -1.957  0.00  0.00    +0.157 HD
BRANCH  21  24
ATOM     24  C   UNL     1       7.787  -0.419  -7.545  0.00  0.00    +0.047 C 
ATOM     25  C   UNL     1       7.051  -1.201  -8.635  0.00  0.00    +0.011 C 
ATOM     26  C   UNL     1       8.327  -1.772  -8.012  0.00  0.00    +0.011 C 
ENDBRANCH  21  24
ENDBRANCH  13  15
TORSDOF 2
