REMARK  Name = ZINC39356985
REMARK  9 active torsions:
REMARK  status: ('A' for Active; 'I' for Inactive)
REMARK    1  A    between atoms: C_1  and  C_2
REMARK    2  A    between atoms: C_2  and  C_3
REMARK    3  A    between atoms: C_3  and  C_5
REMARK    4  A    between atoms: C_3  and  N_6
REMARK    5  A    between atoms: C_8  and  C_28
REMARK    6  A    between atoms: C_12  and  C_14
REMARK    7  A    between atoms: N_16  and  C_17
REMARK    8  A    between atoms: C_17  and  C_18
REMARK    9  A    between atoms: C_18  and  C_19
REMARK                            x       y       z     vdW  Elec       q    Type
REMARK                         _______ _______ _______ _____ _____    ______ ____
ROOT
ATOM      1  N   UNL     1       2.138  -0.831  -1.310  0.00  0.00    -0.375 N 
ATOM      2  C   UNL     1       3.058  -1.252  -0.267  0.00  0.00    +0.136 C 
ATOM      3  C   UNL     1       4.406  -0.538  -0.398  0.00  0.00    +0.161 C 
ATOM      4  C   UNL     1       4.124   0.931  -0.651  0.00  0.00    +0.164 C 
ATOM      5  O   UNL     1       4.541   1.795   0.082  0.00  0.00    -0.295 OA
ATOM      6  C   UNL     1       3.289   1.254  -1.873  0.00  0.00    +0.180 C 
ATOM      7  C   UNL     1       2.204   0.221  -1.998  0.00  0.00    +0.074 C 
ENDROOT
BRANCH   3   8
ATOM      8  C   UNL     1       5.194  -0.697   0.877  0.00  0.00    +0.228 C 
ATOM      9  O   UNL     1       4.619  -0.749   1.943  0.00  0.00    -0.275 OA
ATOM     10  N   UNL     1       6.539  -0.781   0.832  0.00  0.00    -0.301 N 
ATOM     11  C   UNL     1       7.202  -0.599  -0.440  0.00  0.00    +0.108 C 
ATOM     12  C   UNL     1       7.326  -1.963  -1.162  0.00  0.00    +0.019 C 
ATOM     13  C   UNL     1       8.320  -2.811  -0.485  0.00  0.00    +0.002 C 
ATOM     14  C   UNL     1       7.961  -3.175   0.952  0.00  0.00    +0.002 C 
ATOM     15  C   UNL     1       8.412  -2.070   1.876  0.00  0.00    +0.019 C 
ATOM     16  C   UNL     1       7.274  -1.049   2.083  0.00  0.00    +0.108 C 
ENDBRANCH   3   8
BRANCH   6  17
ATOM     17  C   UNL     1       2.674   2.622  -1.719  0.00  0.00    +0.229 C 
ATOM     18  O   UNL     1       2.889   3.274  -0.719  0.00  0.00    -0.275 OA
ATOM     19  N   UNL     1       1.886   3.120  -2.692  0.00  0.00    -0.314 N 
ATOM     20  H   UNL     1       1.715   2.598  -3.492  0.00  0.00    +0.149 HD
BRANCH  19  21
ATOM     21  C   UNL     1       1.289   4.449  -2.543  0.00  0.00    +0.109 C 
BRANCH  21  22
ATOM     22  C   UNL     1       0.447   4.772  -3.779  0.00  0.00    +0.056 C 
BRANCH  22  23
ATOM     23  C   UNL     1      -0.167   6.140  -3.625  0.00  0.00    -0.021 A 
ATOM     24  C   UNL     1       0.462   7.420  -3.959  0.00  0.00    +0.003 A 
ATOM     25  C   UNL     1       1.706   7.784  -4.478  0.00  0.00    +0.010 A 
ATOM     26  C   UNL     1       1.996   9.104  -4.680  0.00  0.00    +0.001 A 
ATOM     27  C   UNL     1       1.064  10.086  -4.375  0.00  0.00    +0.002 A 
ATOM     28  C   UNL     1      -0.170   9.749  -3.862  0.00  0.00    +0.026 A 
ATOM     29  C   UNL     1      -0.487   8.412  -3.648  0.00  0.00    +0.047 A 
ATOM     30  N   UNL     1      -1.603   7.768  -3.162  0.00  0.00    -0.360 N 
ATOM     31  C   UNL     1      -1.396   6.415  -3.162  0.00  0.00    +0.087 A 
ATOM     32  H   UNL     1      -2.416   8.208  -2.869  0.00  0.00    +0.165 HD
ENDBRANCH  22  23
ENDBRANCH  21  22
ENDBRANCH  19  21
ENDBRANCH   6  17
BRANCH   1  33
ATOM     33  C   UNL     1       1.016  -1.729  -1.594  0.00  0.00    +0.078 C 
ATOM     34  C   UNL     1       1.553  -3.094  -2.031  0.00  0.00    +0.030 C 
BRANCH  33  36
ATOM     35  C   UNL     1      -0.474  -0.554   0.031  0.00  0.00    +0.006 C 
ATOM     36  C   UNL     1       0.164  -1.896  -0.334  0.00  0.00    +0.021 C 
ENDBRANCH  33  36
ENDBRANCH   1  33
TORSDOF 7
