REMARK  Name = ZINC13500104
REMARK  11 active torsions:
REMARK  status: ('A' for Active; 'I' for Inactive)
REMARK    1  A    between atoms: C_1  and  C_2
REMARK    2  A    between atoms: C_2  and  C_3
REMARK    3  A    between atoms: C_3  and  C_4
REMARK    4  A    between atoms: C_4  and  C_6
REMARK    5  A    between atoms: C_4  and  N_69
REMARK    6  A    between atoms: N_10  and  C_11
REMARK    7  A    between atoms: C_11  and  C_12
REMARK    8  A    between atoms: C_19  and  C_20
REMARK    9  A    between atoms: C_19  and  N_69
REMARK   10  A    between atoms: C_26  and  C_32
REMARK   11  A    between atoms: C_33  and  N_69
REMARK                            x       y       z     vdW  Elec       q    Type
REMARK                         _______ _______ _______ _____ _____    ______ ____
ROOT
ATOM      1  N   UNL     1      -2.991   0.815  -1.169  0.00  0.00    +0.391 N 
ATOM      2  H   UNL     1      -2.599   1.615  -1.681  0.00  0.00    -0.080 HD
ENDROOT
BRANCH   1   3
ATOM      3  C   UNL     1      -2.110  -0.356  -1.361  0.00  0.00    -0.067 C 
ATOM      4  C   UNL     1      -2.304  -1.385  -0.229  0.00  0.00    -0.015 C 
ATOM      5  C   UNL     1      -0.878  -1.931   0.036  0.00  0.00    -0.002 C 
ATOM      6  C   UNL     1       0.006  -0.670  -0.126  0.00  0.00    -0.002 C 
ATOM      7  C   UNL     1      -0.641   0.099  -1.296  0.00  0.00    -0.015 C 
ENDBRANCH   1   3
BRANCH   1   8
ATOM      8  C   UNL     1      -4.341   0.523  -1.696  0.00  0.00    +0.003 C 
BRANCH   8   9
ATOM      9  C   UNL     1      -5.117  -0.322  -0.719  0.00  0.00    +0.138 A 
ATOM     10  N   UNL     1      -4.695  -1.407  -0.116  0.00  0.00    -0.115 NA
ATOM     11  N   UNL     1      -5.645  -1.838   0.639  0.00  0.00    -0.023 NA
ATOM     12  N   UNL     1      -6.666  -1.061   0.528  0.00  0.00    -0.044 NA
ATOM     13  N   UNL     1      -6.379  -0.114  -0.301  0.00  0.00    -0.226 N 
BRANCH  13  14
ATOM     14  C   UNL     1      -7.261   0.981  -0.710  0.00  0.00    +0.182 C 
BRANCH  14  15
ATOM     15  C   UNL     1      -8.051   0.563  -1.924  0.00  0.00    -0.026 A 
ATOM     16  C   UNL     1      -7.551   0.808  -3.190  0.00  0.00    +0.008 A 
ATOM     17  C   UNL     1      -8.272   0.421  -4.304  0.00  0.00    +0.038 A 
ATOM     18  C   UNL     1      -9.499  -0.203  -4.152  0.00  0.00    +0.123 A 
ATOM     19  C   UNL     1     -10.000  -0.442  -2.884  0.00  0.00    +0.038 A 
ATOM     20  C   UNL     1      -9.276  -0.059  -1.771  0.00  0.00    +0.008 A 
ATOM     21  F   UNL     1     -10.207  -0.577  -5.240  0.00  0.00    -0.205 F 
ENDBRANCH  14  15
ENDBRANCH  13  14
ENDBRANCH   8   9
BRANCH   8  22
ATOM     22  C   UNL     1      -4.213  -0.221  -3.026  0.00  0.00    -0.008 C 
BRANCH  22  24
ATOM     23  C   UNL     1      -3.387  -0.061  -5.379  0.00  0.00    +0.004 C 
ATOM     24  C   UNL     1      -3.430   0.639  -4.019  0.00  0.00    -0.005 C 
ENDBRANCH  22  24
ENDBRANCH   8  22
ENDBRANCH   1   8
BRANCH   1  25
ATOM     25  C   UNL     1      -3.072   1.157   0.267  0.00  0.00    -0.036 C 
BRANCH  25  26
ATOM     26  C   UNL     1      -3.622   2.554   0.401  0.00  0.00    +0.001 A 
ATOM     27  C   UNL     1      -4.927   2.738   0.717  0.00  0.00    +0.017 A 
ATOM     28  C   UNL     1      -5.431   4.108   0.834  0.00  0.00    -0.001 A 
ATOM     29  C   UNL     1      -6.770   4.362   1.151  0.00  0.00    +0.010 A 
ATOM     30  C   UNL     1      -7.209   5.651   1.254  0.00  0.00    +0.001 A 
ATOM     31  C   UNL     1      -6.339   6.712   1.044  0.00  0.00    +0.005 A 
ATOM     32  C   UNL     1      -5.016   6.486   0.731  0.00  0.00    -0.026 A 
ATOM     33  C   UNL     1      -4.546   5.181   0.622  0.00  0.00    +0.052 A 
ATOM     34  N   UNL     1      -3.228   4.926   0.309  0.00  0.00    -0.322 N 
ATOM     35  H   UNL     1      -2.619   5.667   0.162  0.00  0.00    +0.169 HD
ATOM     36  C   UNL     1      -2.774   3.665   0.203  0.00  0.00    +0.251 A 
ATOM     37  O   UNL     1      -1.603   3.476  -0.075  0.00  0.00    -0.268 OA
ATOM     38  C   UNL     1      -4.083   7.648   0.506  0.00  0.00    +0.046 C 
ENDBRANCH  25  26
ENDBRANCH   1  25
TORSDOF 9
