REMARK  Name = ZINC23339549
REMARK  14 active torsions:
REMARK  status: ('A' for Active; 'I' for Inactive)
REMARK    1  A    between atoms: C_1  and  C_2
REMARK    2  A    between atoms: C_2  and  C_3
REMARK    3  A    between atoms: C_3  and  C_4
REMARK    4  A    between atoms: C_4  and  C_5
REMARK    5  A    between atoms: C_9  and  C_11
REMARK    6  A    between atoms: C_11  and  N_12
REMARK    7  A    between atoms: C_15  and  C_18
REMARK    8  A    between atoms: C_18  and  C_35
REMARK    9  A    between atoms: N_21  and  C_25
REMARK   10  A    between atoms: C_25  and  C_26
REMARK   11  A    between atoms: C_26  and  C_27
REMARK   12  A    between atoms: C_30  and  O_33
REMARK   13  A    between atoms: O_33  and  C_34
REMARK   14  A    between atoms: C_35  and  C_36
REMARK                            x       y       z     vdW  Elec       q    Type
REMARK                         _______ _______ _______ _____ _____    ______ ____
ROOT
ATOM      1  C   UNL     1       2.165   0.655  -0.015  0.00  0.00    +0.115 C 
ATOM      2  C   UNL     1       1.230   1.848   0.000  0.00  0.00    +0.247 C 
ATOM      3  O   UNL     1       1.538   3.020   0.003  0.00  0.00    -0.273 OA
ATOM      4  N   UNL     1      -0.016   1.334   0.009  0.00  0.00    -0.224 N 
ATOM      5  C   UNL     1       0.002  -0.004   0.002  0.00  0.00    +0.309 C 
ATOM      6  O   UNL     1      -0.999  -0.693   0.008  0.00  0.00    -0.252 OA
ATOM      7  N   UNL     1       1.252  -0.501  -0.013  0.00  0.00    -0.285 N 
ATOM      8  H   UNL     1       1.659  -1.523  -0.022  0.00  0.00    +0.151 HD
ENDROOT
BRANCH   1  12
ATOM      9  N   UNL     1       3.940   2.034  -3.651  0.00  0.00    -0.297 NA
ATOM     10  C   UNL     1       2.995   0.915  -3.765  0.00  0.00    +0.085 C 
ATOM     11  C   UNL     1       2.126   0.850  -2.507  0.00  0.00    +0.021 C 
ATOM     12  C   UNL     1       3.023   0.660  -1.282  0.00  0.00    +0.024 C 
ATOM     13  C   UNL     1       4.030   1.812  -1.213  0.00  0.00    +0.021 C 
ATOM     14  C   UNL     1       4.844   1.850  -2.508  0.00  0.00    +0.085 C 
BRANCH   9  15
ATOM     15  C   UNL     1       4.696   2.213  -4.897  0.00  0.00    +0.139 C 
BRANCH  15  20
ATOM     16  C   UNL     1       6.884   5.061  -4.483  0.00  0.00    +0.084 A 
ATOM     17  N   UNL     1       7.767   4.069  -4.239  0.00  0.00    -0.350 N 
ATOM     18  H   UNL     1       8.815   4.309  -4.005  0.00  0.00    +0.166 HD
ATOM     19  C   UNL     1       7.088   2.885  -4.351  0.00  0.00    +0.106 A 
ATOM     20  C   UNL     1       5.816   3.195  -4.668  0.00  0.00    +0.047 A 
ATOM     21  N   UNL     1       5.720   4.531  -4.739  0.00  0.00    -0.346 N 
ATOM     22  H   UNL     1       4.859   5.178  -4.965  0.00  0.00    +0.167 HD
BRANCH  16  23
ATOM     23  C   UNL     1       7.193   6.536  -4.462  0.00  0.00    +0.072 C 
BRANCH  23  24
ATOM     24  C   UNL     1       6.782   7.162  -5.797  0.00  0.00    +0.007 C 
BRANCH  24  26
ATOM     25  C   UNL     1       6.683   9.285  -7.110  0.00  0.00    +0.004 C 
ATOM     26  C   UNL     1       7.095   8.659  -5.776  0.00  0.00    -0.003 C 
ENDBRANCH  24  26
ENDBRANCH  23  24
ENDBRANCH  16  23
ENDBRANCH  15  20
ENDBRANCH   9  15
ENDBRANCH   1  12
BRANCH   1  27
ATOM     27  C   UNL     1       3.050   0.645   1.233  0.00  0.00    +0.032 C 
ATOM     28  C   UNL     1       2.170   0.567   2.482  0.00  0.00    +0.006 C 
ENDBRANCH   1  27
BRANCH   4  29
ATOM     29  C   UNL     1      -1.239   2.140   0.020  0.00  0.00    +0.122 C 
BRANCH  29  30
ATOM     30  C   UNL     1      -1.657   2.413   1.466  0.00  0.00    +0.054 C 
BRANCH  30  31
ATOM     31  C   UNL     1      -2.916   3.243   1.476  0.00  0.00    -0.046 A 
ATOM     32  C   UNL     1      -2.832   4.623   1.489  0.00  0.00    +0.007 A 
ATOM     33  C   UNL     1      -3.984   5.386   1.493  0.00  0.00    +0.046 A 
ATOM     34  C   UNL     1      -5.225   4.766   1.496  0.00  0.00    +0.120 A 
ATOM     35  C   UNL     1      -5.306   3.381   1.489  0.00  0.00    +0.046 A 
ATOM     36  C   UNL     1      -4.151   2.623   1.480  0.00  0.00    +0.007 A 
BRANCH  34  37
ATOM     37  O   UNL     1      -6.360   5.514   1.505  0.00  0.00    -0.495 OA
ATOM     38  C   UNL     1      -6.200   6.934   1.512  0.00  0.00    +0.277 C 
ENDBRANCH  34  37
ENDBRANCH  30  31
ENDBRANCH  29  30
ENDBRANCH   4  29
TORSDOF 11
