REMARK  Name = ZINC36207296
REMARK  18 active torsions:
REMARK  status: ('A' for Active; 'I' for Inactive)
REMARK    1  A    between atoms: C_1  and  C_2
REMARK    2  A    between atoms: C_2  and  C_3
REMARK    3  A    between atoms: C_9  and  C_18
REMARK    4  A    between atoms: C_13  and  C_14
REMARK    5  A    between atoms: C_14  and  O_16
REMARK    6  A    between atoms: O_16  and  C_17
REMARK    7  A    between atoms: C_18  and  N_19
REMARK    8  A    between atoms: N_19  and  C_20
REMARK    9  A    between atoms: N_19  and  C_24
REMARK   10  A    between atoms: C_20  and  C_21
REMARK   11  A    between atoms: C_21  and  O_22
REMARK   12  A    between atoms: O_22  and  C_23
REMARK   13  A    between atoms: C_24  and  C_25
REMARK   14  A    between atoms: C_25  and  C_27
REMARK   15  A    between atoms: C_25  and  O_36
REMARK   16  A    between atoms: C_27  and  O_28
REMARK   17  A    between atoms: O_28  and  C_29
REMARK   18  A    between atoms: C_34  and  C_35
REMARK                            x       y       z     vdW  Elec       q    Type
REMARK                         _______ _______ _______ _____ _____    ______ ____
ROOT
ATOM      1  N   UNL     1      -5.911  -2.781   3.906  0.00  0.00    +0.388 N 
ATOM      2  H   UNL     1      -6.143  -3.674   3.497  0.00  0.00    -0.081 HD
ENDROOT
BRANCH   1   3
ATOM      3  C   UNL     1      -4.476  -2.744   4.220  0.00  0.00    -0.003 C 
BRANCH   3  10
ATOM      4  C   UNL     1      -3.349  -7.318   7.341  0.00  0.00    -0.012 A 
ATOM      5  C   UNL     1      -3.486  -6.146   6.596  0.00  0.00    +0.076 A 
ATOM      6  C   UNL     1      -2.488  -5.086   6.325  0.00  0.00    +0.260 A 
ATOM      7  O   UNL     1      -1.359  -5.162   6.775  0.00  0.00    -0.267 OA
ATOM      8  N   UNL     1      -2.861  -4.036   5.567  0.00  0.00    -0.312 N 
ATOM      9  H   UNL     1      -2.219  -3.334   5.380  0.00  0.00    +0.170 HD
ATOM     10  C   UNL     1      -4.115  -3.942   5.061  0.00  0.00    +0.094 A 
ATOM     11  N   UNL     1      -5.019  -4.858   5.280  0.00  0.00    -0.229 NA
ATOM     12  C   UNL     1      -4.757  -5.933   6.012  0.00  0.00    +0.116 A 
ATOM     13  S   UNL     1      -5.685  -7.357   6.524  0.00  0.00    -0.062 S 
ATOM     14  C   UNL     1      -4.405  -8.174   7.462  0.00  0.00    +0.102 A 
BRANCH   4  16
ATOM     15  C   UNL     1      -1.162  -8.448   7.043  0.00  0.00    +0.009 C 
ATOM     16  C   UNL     1      -2.035  -7.641   8.005  0.00  0.00    +0.034 C 
ENDBRANCH   4  16
BRANCH  14  17
ATOM     17  C   UNL     1      -4.473  -9.446   8.185  0.00  0.00    +0.346 C 
ATOM     18  O   UNL     1      -3.496  -9.860   8.780  0.00  0.00    -0.244 OA
BRANCH  17  19
ATOM     19  O   UNL     1      -5.618 -10.159   8.190  0.00  0.00    -0.464 OA
ATOM     20  C   UNL     1      -5.613 -11.390   8.915  0.00  0.00    +0.280 C 
ENDBRANCH  17  19
ENDBRANCH  14  17
ENDBRANCH   3  10
ENDBRANCH   1   3
BRANCH   1  21
ATOM     21  C   UNL     1      -6.231  -1.709   2.955  0.00  0.00    -0.050 C 
BRANCH  21  22
ATOM     22  C   UNL     1      -5.457  -1.932   1.654  0.00  0.00    +0.141 C 
BRANCH  22  23
ATOM     23  O   UNL     1      -5.873  -3.162   1.057  0.00  0.00    -0.385 OA
ATOM     24  C   UNL     1      -5.130  -3.522  -0.109  0.00  0.00    +0.193 C 
ENDBRANCH  22  23
ENDBRANCH  21  22
ENDBRANCH   1  21
BRANCH   1  25
ATOM     25  C   UNL     1      -6.687  -2.590   5.139  0.00  0.00    -0.043 C 
BRANCH  25  26
ATOM     26  C   UNL     1      -8.169  -2.834   4.851  0.00  0.00    +0.135 C 
BRANCH  26  27
ATOM     27  O   UNL     1      -8.664  -1.805   3.992  0.00  0.00    -0.390 OA
ATOM     28  H   UNL     1      -8.588  -0.914   4.362  0.00  0.00    +0.210 HD
ENDBRANCH  26  27
BRANCH  26  29
ATOM     29  C   UNL     1      -8.953  -2.822   6.165  0.00  0.00    +0.258 C 
BRANCH  29  30
ATOM     30  O   UNL     1     -10.316  -3.166   5.910  0.00  0.00    -0.489 OA
BRANCH  30  31
ATOM     31  C   UNL     1     -11.154  -3.201   6.979  0.00  0.00    +0.124 A 
ATOM     32  C   UNL     1     -10.675  -2.905   8.248  0.00  0.00    +0.046 A 
ATOM     33  C   UNL     1     -11.528  -2.942   9.333  0.00  0.00    +0.004 A 
ATOM     34  C   UNL     1     -12.860  -3.272   9.156  0.00  0.00    +0.000 A 
ATOM     35  C   UNL     1     -13.339  -3.567   7.894  0.00  0.00    +0.007 A 
ATOM     36  C   UNL     1     -12.491  -3.526   6.804  0.00  0.00    -0.009 A 
ATOM     37  C   UNL     1     -13.016  -3.842   5.428  0.00  0.00    +0.047 C 
ENDBRANCH  30  31
ENDBRANCH  29  30
ENDBRANCH  26  29
ENDBRANCH  25  26
ENDBRANCH   1  25
TORSDOF 14
