REMARK  Name = ZINC66769443
REMARK  5 active torsions:
REMARK  status: ('A' for Active; 'I' for Inactive)
REMARK    1  A    between atoms: C_1  and  C_2
REMARK    2  A    between atoms: C_5  and  N_8
REMARK    3  A    between atoms: C_10  and  C_15
REMARK    4  A    between atoms: N_17  and  C_18
REMARK    5  A    between atoms: N_17  and  C_19
REMARK                            x       y       z     vdW  Elec       q    Type
REMARK                         _______ _______ _______ _____ _____    ______ ____
ROOT
ATOM      1  C   UNL     1       3.026  -7.283  -0.389  0.00  0.00    +0.221 C 
ATOM      2  O   UNL     1       3.884  -6.959  -1.182  0.00  0.00    -0.275 OA
ATOM      3  N   UNL     1       2.781  -8.588  -0.157  0.00  0.00    -0.301 N 
ATOM      4  C   UNL     1       1.745  -8.980   0.801  0.00  0.00    +0.132 C 
ENDROOT
BRANCH   3   5
ATOM      5  C   UNL     1       3.551  -9.615  -0.864  0.00  0.00    +0.079 C 
ATOM      6  C   UNL     1       4.298 -10.482   0.153  0.00  0.00    +0.041 C 
ATOM      7  C   UNL     1       5.129 -11.532  -0.591  0.00  0.00    +0.108 C 
ATOM      8  N   UNL     1       4.245 -12.284  -1.492  0.00  0.00    -0.317 N 
ATOM      9  C   UNL     1       3.414 -11.541  -2.448  0.00  0.00    +0.108 C 
ATOM     10  C   UNL     1       2.602 -10.491  -1.684  0.00  0.00    +0.041 C 
ATOM     11  C   UNL     1       4.196 -13.672  -1.440  0.00  0.00    +0.099 A 
ATOM     12  C   UNL     1       5.080 -14.363  -0.617  0.00  0.00    +0.042 A 
ATOM     13  C   UNL     1       5.021 -15.744  -0.575  0.00  0.00    +0.005 A 
ATOM     14  C   UNL     1       4.076 -16.391  -1.361  0.00  0.00    +0.018 A 
ATOM     15  C   UNL     1       3.230 -15.643  -2.154  0.00  0.00    +0.084 A 
ATOM     16  N   UNL     1       3.305 -14.325  -2.170  0.00  0.00    -0.350 N 
ATOM     17  H   UNL     1       2.696 -13.823  -2.733  0.00  0.00    +0.166 HD
ENDBRANCH   3   5
BRANCH   1  20
ATOM     18  N   UNL     1       1.461  -4.000  -0.101  0.00  0.00    -0.298 N 
ATOM     19  C   UNL     1       2.684  -4.811  -0.084  0.00  0.00    +0.121 C 
ATOM     20  C   UNL     1       2.234  -6.227   0.338  0.00  0.00    +0.101 C 
ATOM     21  C   UNL     1       0.755  -6.235  -0.114  0.00  0.00    +0.110 C 
ATOM     22  C   UNL     1       0.362  -4.775  -0.118  0.00  0.00    +0.217 C 
ATOM     23  O   UNL     1      -0.778  -4.362  -0.136  0.00  0.00    -0.276 OA
BRANCH  18  28
ATOM     24  C   UNL     1      -0.062   1.523  -0.095  0.00  0.00    +0.007 C 
ATOM     25  C   UNL     1      -0.040  -0.006  -0.101  0.00  0.00    -0.014 C 
ATOM     26  C   UNL     1       0.704  -0.500  -1.344  0.00  0.00    +0.005 C 
ATOM     27  C   UNL     1       0.727  -2.030  -1.351  0.00  0.00    +0.023 C 
ATOM     28  C   UNL     1       1.439  -2.535  -0.095  0.00  0.00    +0.076 C 
ATOM     29  C   UNL     1       0.695  -2.042   1.148  0.00  0.00    +0.023 C 
ATOM     30  C   UNL     1       0.673  -0.512   1.155  0.00  0.00    +0.005 C 
ENDBRANCH  18  28
ENDBRANCH   1  20
TORSDOF 3
