REMARK  Name = ZINC04489110
REMARK  6 active torsions:
REMARK  status: ('A' for Active; 'I' for Inactive)
REMARK    1  A    between atoms: C_1  and  N_43
REMARK    2  A    between atoms: C_2  and  N_43
REMARK    3  A    between atoms: C_3  and  C_4
REMARK    4  A    between atoms: C_3  and  N_43
REMARK    5  A    between atoms: C_4  and  C_5
REMARK    6  A    between atoms: C_5  and  C_17
REMARK                            x       y       z     vdW  Elec       q    Type
REMARK                         _______ _______ _______ _____ _____    ______ ____
ROOT
ATOM      1  C   UNL     1       1.150   3.592   0.010  0.00  0.00    +0.141 C 
ATOM      2  C   UNL     1       1.156   4.096   1.454  0.00  0.00    +0.089 C 
ATOM      3  C   UNL     1       0.886   5.577   1.493  0.00  0.00    -0.028 A 
ATOM      4  C   UNL     1       1.268   6.317   2.593  0.00  0.00    +0.024 A 
ATOM      5  C   UNL     1       1.018   7.678   2.636  0.00  0.00    +0.041 A 
ATOM      6  C   UNL     1       0.386   8.309   1.577  0.00  0.00    +0.021 A 
ATOM      7  C   UNL     1       0.001   7.582   0.470  0.00  0.00    +0.016 A 
ATOM      8  C   UNL     1       0.251   6.211   0.424  0.00  0.00    +0.062 A 
ATOM      9  C   UNL     1      -0.148   5.416  -0.760  0.00  0.00    +0.340 C 
ATOM     10  O   UNL     1      -0.543   5.950  -1.778  0.00  0.00    -0.245 OA
ATOM     11  O   UNL     1      -0.055   4.066  -0.659  0.00  0.00    -0.450 OA
ATOM     12 CL   UNL     1       1.502   8.601   4.025  0.00  0.00    -0.084 Cl
ENDROOT
BRANCH   1  13
ATOM     13  C   UNL     1       1.171   2.086   0.002  0.00  0.00    -0.004 A 
ATOM     14  C   UNL     1      -0.017   1.378   0.010  0.00  0.00    +0.009 A 
ATOM     15  C   UNL     1       0.002  -0.004   0.002  0.00  0.00    +0.020 A 
ATOM     16  C   UNL     1       1.210  -0.679  -0.013  0.00  0.00    +0.041 A 
ATOM     17  C   UNL     1       2.398   0.030  -0.021  0.00  0.00    +0.020 A 
ATOM     18  C   UNL     1       2.378   1.412  -0.013  0.00  0.00    +0.009 A 
ATOM     19 CL   UNL     1       1.234  -2.415  -0.023  0.00  0.00    -0.084 Cl
ENDBRANCH   1  13
BRANCH   1  20
ATOM     20  C   UNL     1       2.384   4.124  -0.722  0.00  0.00    +0.035 C 
BRANCH  20  21
ATOM     21  C   UNL     1       2.376   3.622  -2.167  0.00  0.00    -0.075 C 
BRANCH  21  24
ATOM     22  C   UNL     1       4.792   3.562  -2.308  0.00  0.00    -0.097 C 
ATOM     23  C   UNL     1       3.470   3.873  -4.312  0.00  0.00    -0.097 C 
ATOM     24  N   UNL     1       3.561   4.161  -2.866  0.00  0.00    +0.376 N 
ATOM     25  H   UNL     1       3.594   5.179  -2.730  0.00  0.00    -0.083 HD
ENDBRANCH  21  24
ENDBRANCH  20  21
ENDBRANCH   1  20
TORSDOF 4
