REMARK  Name = ZINC49436746
REMARK  7 active torsions:
REMARK  status: ('A' for Active; 'I' for Inactive)
REMARK    1  A    between atoms: C_1  and  C_2
REMARK    2  A    between atoms: C_4  and  C_15
REMARK    3  A    between atoms: C_5  and  C_14
REMARK    4  A    between atoms: N_6  and  C_7
REMARK    5  A    between atoms: C_15  and  C_17
REMARK    6  A    between atoms: C_17  and  C_19
REMARK    7  A    between atoms: C_17  and  C_21
REMARK                            x       y       z     vdW  Elec       q    Type
REMARK                         _______ _______ _______ _____ _____    ______ ____
ROOT
ATOM      1  C   UNL     1       0.041  -3.378  -1.450  0.00  0.00    +0.189 C 
ATOM      2  O   UNL     1       0.058  -4.471  -0.923  0.00  0.00    -0.290 OA
ENDROOT
BRANCH   1   6
ATOM      3  C   UNL     1      -0.018   1.503   0.010  0.00  0.00    +0.064 C 
ATOM      4  C   UNL     1       0.002  -0.004   0.002  0.00  0.00    +0.022 A 
ATOM      5  C   UNL     1       0.008  -0.777  -1.097  0.00  0.00    +0.034 A 
ATOM      6  C   UNL     1       0.029  -2.168  -0.626  0.00  0.00    +0.040 A 
ATOM      7  C   UNL     1       0.034  -2.101   0.755  0.00  0.00    +0.032 A 
ATOM      8  N   UNL     1       0.024  -0.802   1.111  0.00  0.00    -0.314 N 
ATOM      9  C   UNL     1       0.054  -3.277   1.698  0.00  0.00    +0.064 C 
BRANCH   8  10
ATOM     10  C   UNL     1       0.030  -0.335   2.434  0.00  0.00    +0.082 A 
ATOM     11  C   UNL     1      -1.167  -0.125   3.103  0.00  0.00    +0.029 A 
ATOM     12  C   UNL     1      -1.158   0.335   4.406  0.00  0.00    +0.002 A 
ATOM     13  C   UNL     1       0.043   0.587   5.044  0.00  0.00    +0.003 A 
ATOM     14  C   UNL     1       1.238   0.380   4.381  0.00  0.00    +0.040 A 
ATOM     15  C   UNL     1       1.236  -0.086   3.079  0.00  0.00    +0.147 A 
ATOM     16  F   UNL     1       2.404  -0.294   2.433  0.00  0.00    -0.203 F 
ENDBRANCH   8  10
ENDBRANCH   1   6
BRANCH   1  17
ATOM     17  C   UNL     1       0.034  -3.267  -2.953  0.00  0.00    +0.230 C 
BRANCH  17  18
ATOM     18  C   UNL     1      -0.663  -4.466  -3.542  0.00  0.00    +0.161 A 
ATOM     19  N   UNL     1      -0.196  -5.680  -3.309  0.00  0.00    -0.198 NA
ATOM     20  C   UNL     1      -0.809  -6.741  -3.828  0.00  0.00    +0.217 A 
ATOM     21  N   UNL     1      -1.892  -6.579  -4.581  0.00  0.00    -0.181 NA
ATOM     22  C   UNL     1      -2.358  -5.357  -4.813  0.00  0.00    +0.217 A 
ATOM     23  N   UNL     1      -3.482  -5.183  -5.594  0.00  0.00    -0.327 N 
ATOM     24  N   UNL     1      -1.743  -4.301  -4.286  0.00  0.00    -0.198 NA
ATOM     25  N   UNL     1      -0.321  -8.009  -3.585  0.00  0.00    -0.327 N 
ATOM     26  H   UNL     1      -3.933  -5.954  -5.975  0.00  0.00    +0.145 HD
ATOM     27  H   UNL     1       0.470  -8.127  -3.035  0.00  0.00    +0.145 HD
ATOM     28  H   UNL     1      -0.768  -8.782  -3.963  0.00  0.00    +0.145 HD
ATOM     29  H   UNL     1      -3.822  -4.291  -5.763  0.00  0.00    +0.145 HD
ENDBRANCH  17  18
BRANCH  17  30
ATOM     30  C   UNL     1       1.419  -3.212  -3.448  0.00  0.00    +0.082 C 
ATOM     31  N   UNL     1       2.488  -3.170  -3.830  0.00  0.00    -0.195 NA
ENDBRANCH  17  30
ENDBRANCH   1  17
TORSDOF 5
