REMARK  Name = ZINC23486594
REMARK  6 active torsions:
REMARK  status: ('A' for Active; 'I' for Inactive)
REMARK    1  A    between atoms: C_6  and  N_7
REMARK    2  A    between atoms: C_8  and  C_28
REMARK    3  A    between atoms: C_11  and  S_12
REMARK    4  A    between atoms: S_12  and  C_13
REMARK    5  A    between atoms: C_13  and  C_14
REMARK    6  A    between atoms: C_28  and  N_29
REMARK                            x       y       z     vdW  Elec       q    Type
REMARK                         _______ _______ _______ _____ _____    ______ ____
ROOT
ATOM      1  N   UNL     1      -1.718   1.213  -4.440  0.00  0.00    -0.276 N 
ATOM      2  C   UNL     1      -0.633   1.618  -3.709  0.00  0.00    +0.122 A 
ATOM      3  N   UNL     1      -0.229   2.750  -4.211  0.00  0.00    -0.135 NA
ATOM      4  N   UNL     1      -0.979   3.090  -5.197  0.00  0.00    -0.122 NA
ATOM      5  C   UNL     1      -1.913   2.186  -5.381  0.00  0.00    +0.196 A 
ENDROOT
BRANCH   1  11
ATOM      6  C   UNL     1      -1.894  -1.198  -4.468  0.00  0.00    +0.029 A 
ATOM      7  C   UNL     1      -2.639  -2.347  -4.284  0.00  0.00    +0.040 A 
ATOM      8  C   UNL     1      -3.966  -2.259  -3.902  0.00  0.00    +0.124 A 
ATOM      9  C   UNL     1      -4.549  -1.019  -3.697  0.00  0.00    +0.040 A 
ATOM     10  C   UNL     1      -3.806   0.132  -3.875  0.00  0.00    +0.029 A 
ATOM     11  C   UNL     1      -2.475   0.045  -4.259  0.00  0.00    +0.050 A 
ATOM     12  F   UNL     1      -4.695  -3.383  -3.727  0.00  0.00    -0.205 F 
ENDBRANCH   1  11
BRANCH   5  13
ATOM     13  S   UNL     1      -3.173   2.216  -6.612  0.00  0.00    -0.086 S 
BRANCH  13  14
ATOM     14  C   UNL     1      -2.765   3.772  -7.442  0.00  0.00    +0.075 C 
BRANCH  14  15
ATOM     15  C   UNL     1      -3.755   4.016  -8.583  0.00  0.00    +0.003 C 
ATOM     16  N   UNL     1      -3.404   5.260  -9.304  0.00  0.00    +0.498 NA
ATOM     17  S   UNL     1      -3.458   6.639  -8.368  0.00  0.00    +0.018 S 
ATOM     18  O   UNL     1      -3.859   7.702  -9.221  0.00  0.00    -0.174 OA
ATOM     19  O   UNL     1      -2.254   6.672  -7.613  0.00  0.00    -0.174 OA
ATOM     20  N   UNL     1      -4.690   6.393  -7.296  0.00  0.00    -0.143 NA
ATOM     21  C   UNL     1      -5.354   5.270  -7.212  0.00  0.00    +0.116 C 
ATOM     22  N   UNL     1      -5.122   4.232  -8.038  0.00  0.00    -0.336 N 
ATOM     23  C   UNL     1      -6.114   3.298  -8.525  0.00  0.00    +0.104 C 
ATOM     24  C   UNL     1      -7.518   3.695  -8.668  0.00  0.00    +0.019 C 
ATOM     25  C   UNL     1      -8.276   4.496  -7.674  0.00  0.00    +0.002 C 
ATOM     26  C   UNL     1      -7.738   4.694  -6.288  0.00  0.00    +0.008 C 
ATOM     27  C   UNL     1      -6.374   5.215  -6.161  0.00  0.00    +0.073 C 
ENDBRANCH  14  15
ENDBRANCH  13  14
ENDBRANCH   5  13
BRANCH   2  28
ATOM     28  C   UNL     1      -0.017   0.886  -2.545  0.00  0.00    -0.001 C 
BRANCH  28  29
ATOM     29  N   UNL     1      -0.650   1.331  -1.296  0.00  0.00    +0.384 N 
ATOM     30  C   UNL     1       0.077   0.823  -0.126  0.00  0.00    -0.078 C 
ATOM     31  C   UNL     1      -0.690   1.182   1.148  0.00  0.00    -0.019 C 
ATOM     32  C   UNL     1      -0.837   2.703   1.238  0.00  0.00    -0.004 C 
ATOM     33  C   UNL     1      -1.555   3.213  -0.015  0.00  0.00    -0.019 C 
ATOM     34  C   UNL     1      -0.763   2.795  -1.256  0.00  0.00    -0.078 C 
ATOM     35  H   UNL     1      -1.668   0.915  -1.265  0.00  0.00    -0.081 HD
ENDBRANCH  28  29
ENDBRANCH   2  28
TORSDOF 6
