REMARK  Name = ZINC11024171
REMARK  9 active torsions:
REMARK  status: ('A' for Active; 'I' for Inactive)
REMARK    1  A    between atoms: C_1  and  C_2
REMARK    2  A    between atoms: C_2  and  C_41
REMARK    3  A    between atoms: C_9  and  C_21
REMARK    4  A    between atoms: C_17  and  C_19
REMARK    5  A    between atoms: C_17  and  C_20
REMARK    6  A    between atoms: N_23  and  C_24
REMARK    7  A    between atoms: C_24  and  C_25
REMARK    8  A    between atoms: N_33  and  C_34
REMARK    9  A    between atoms: C_34  and  C_35
REMARK                            x       y       z     vdW  Elec       q    Type
REMARK                         _______ _______ _______ _____ _____    ______ ____
ROOT
ATOM      1  C   UNL     1       1.162   3.542   3.249  0.00  0.00    +0.245 C 
ATOM      2  O   UNL     1       0.583   2.682   3.878  0.00  0.00    -0.273 OA
ATOM      3  N   UNL     1       2.476   3.761   3.457  0.00  0.00    -0.306 N 
ATOM      4  H   UNL     1       2.922   4.497   3.011  0.00  0.00    +0.149 HD
ENDROOT
BRANCH   1  11
ATOM      5  C   UNL     1      -0.470   4.322  -2.335  0.00  0.00    +0.074 C 
ATOM      6  C   UNL     1       0.721   4.270  -1.376  0.00  0.00    +0.166 C 
ATOM      7  O   UNL     1       1.039   2.904  -1.074  0.00  0.00    -0.341 OA
ATOM      8  C   UNL     1       0.858   2.733   0.356  0.00  0.00    +0.187 C 
ATOM      9  C   UNL     1       1.040   4.173   0.869  0.00  0.00    +0.191 C 
ATOM     10  O   UNL     1       0.385   4.949  -0.150  0.00  0.00    -0.340 OA
ATOM     11  C   UNL     1       0.413   4.367   2.234  0.00  0.00    +0.238 C 
ATOM     12  O   UNL     1      -0.951   3.959   2.216  0.00  0.00    -0.333 OA
ATOM     13  C   UNL     1      -1.149   2.580   1.942  0.00  0.00    +0.286 C 
ATOM     14  C   UNL     1      -0.545   2.214   0.577  0.00  0.00    +0.209 C 
ATOM     15  O   UNL     1      -1.497   2.790  -0.335  0.00  0.00    -0.338 OA
ATOM     16  C   UNL     1      -2.766   2.573   0.279  0.00  0.00    +0.168 C 
ATOM     17  O   UNL     1      -2.571   2.419   1.693  0.00  0.00    -0.318 OA
ATOM     18  C   UNL     1      -3.408   1.308  -0.292  0.00  0.00    +0.074 C 
ATOM     19  C   UNL     1      -3.675   3.775   0.015  0.00  0.00    +0.074 C 
ATOM     20  C   UNL     1       1.930   4.948  -2.024  0.00  0.00    +0.074 C 
ENDBRANCH   1  11
BRANCH   3  21
ATOM     21  C   UNL     1       3.230   2.886   4.359  0.00  0.00    +0.178 C 
BRANCH  21  22
ATOM     22  C   UNL     1       3.083   3.379   5.775  0.00  0.00    +0.128 A 
ATOM     23  N   UNL     1       2.095   3.085   6.568  0.00  0.00    -0.231 NA
ATOM     24  C   UNL     1       2.276   3.693   7.769  0.00  0.00    +0.089 A 
ATOM     25  C   UNL     1       1.540   3.720   8.956  0.00  0.00    +0.030 A 
ATOM     26  C   UNL     1       1.994   4.444  10.022  0.00  0.00    +0.002 A 
ATOM     27  C   UNL     1       3.183   5.155   9.940  0.00  0.00    +0.002 A 
ATOM     28  C   UNL     1       3.925   5.144   8.778  0.00  0.00    +0.028 A 
ATOM     29  C   UNL     1       3.480   4.413   7.685  0.00  0.00    +0.069 A 
ATOM     30  N   UNL     1       3.969   4.190   6.413  0.00  0.00    -0.322 N 
BRANCH  30  31
ATOM     31  C   UNL     1       5.211   4.730   5.854  0.00  0.00    +0.158 C 
BRANCH  31  32
ATOM     32  C   UNL     1       4.953   6.103   5.290  0.00  0.00    -0.028 A 
ATOM     33  C   UNL     1       4.682   6.258   3.943  0.00  0.00    +0.005 A 
ATOM     34  C   UNL     1       4.440   7.517   3.427  0.00  0.00    +0.000 A 
ATOM     35  C   UNL     1       4.479   8.623   4.255  0.00  0.00    +0.000 A 
ATOM     36  C   UNL     1       4.756   8.469   5.601  0.00  0.00    +0.000 A 
ATOM     37  C   UNL     1       4.993   7.210   6.118  0.00  0.00    +0.005 A 
ENDBRANCH  31  32
ENDBRANCH  30  31
ENDBRANCH  21  22
ENDBRANCH   3  21
TORSDOF 5
