REMARK  Name = ZINC20867408
REMARK  5 active torsions:
REMARK  status: ('A' for Active; 'I' for Inactive)
REMARK    1  A    between atoms: C_1  and  C_2
REMARK    2  A    between atoms: C_5  and  N_9
REMARK    3  A    between atoms: C_7  and  C_8
REMARK    4  A    between atoms: N_9  and  C_10
REMARK    5  A    between atoms: C_10  and  C_11
REMARK                            x       y       z     vdW  Elec       q    Type
REMARK                         _______ _______ _______ _____ _____    ______ ____
ROOT
ATOM      1  N   UNL     1      -0.017   1.373   0.010  0.00  0.00    -0.277 N 
ATOM      2  C   UNL     1       0.021   0.018   0.255  0.00  0.00    +0.136 C 
ATOM      3  N   UNL     1       1.078  -0.788   0.181  0.00  0.00    -0.362 N 
ATOM      4  C   UNL     1       0.841  -2.180   0.369  0.00  0.00    +0.117 C 
ATOM      5  C   UNL     1       1.904  -3.230   0.625  0.00  0.00    +0.191 C 
ATOM      6  S   UNL     1       0.833  -4.675   1.072  0.00  0.00    -0.028 S 
ATOM      7  O   UNL     1       1.175  -5.120   2.378  0.00  0.00    -0.174 OA
ATOM      8  O   UNL     1       0.829  -5.601  -0.005  0.00  0.00    -0.174 OA
ATOM      9  C   UNL     1      -0.810  -3.815   1.137  0.00  0.00    +0.182 C 
ATOM     10  C   UNL     1      -0.314  -2.391   1.415  0.00  0.00    +0.099 C 
ATOM     11  S   UNL     1      -1.348  -1.045   0.738  0.00  0.00    -0.085 S 
ATOM     12  H   UNL     1       2.076  -0.371  -0.016  0.00  0.00    +0.162 HD
ENDROOT
BRANCH   1  17
ATOM     13  C   UNL     1      -4.975   4.127   0.066  0.00  0.00    +0.044 C 
ATOM     14  C   UNL     1      -3.658   3.396   0.051  0.00  0.00    -0.047 A 
ATOM     15  C   UNL     1      -2.713   3.656   1.026  0.00  0.00    +0.005 A 
ATOM     16  C   UNL     1      -1.505   2.987   1.016  0.00  0.00    +0.024 A 
ATOM     17  C   UNL     1      -1.239   2.052   0.023  0.00  0.00    +0.036 A 
ATOM     18  C   UNL     1      -2.188   1.797  -0.958  0.00  0.00    +0.027 A 
ATOM     19  C   UNL     1      -3.397   2.465  -0.938  0.00  0.00    -0.046 A 
ATOM     20  C   UNL     1      -4.430   2.185  -1.999  0.00  0.00    +0.044 C 
ENDBRANCH   1  17
BRANCH   1  21
ATOM     21  C   UNL     1       1.223   2.102  -0.272  0.00  0.00    +0.148 C 
BRANCH  21  22
ATOM     22  C   UNL     1       1.483   2.095  -1.756  0.00  0.00    -0.030 A 
ATOM     23  C   UNL     1       2.230   1.079  -2.322  0.00  0.00    +0.006 A 
ATOM     24  C   UNL     1       2.465   1.069  -3.684  0.00  0.00    +0.020 A 
ATOM     25  C   UNL     1       1.961   2.083  -4.480  0.00  0.00    +0.041 A 
ATOM     26  C   UNL     1       1.218   3.103  -3.912  0.00  0.00    +0.020 A 
ATOM     27  C   UNL     1       0.980   3.108  -2.550  0.00  0.00    +0.006 A 
ATOM     28 CL   UNL     1       2.260   2.076  -6.190  0.00  0.00    -0.084 Cl
ENDBRANCH  21  22
ENDBRANCH   1  21
TORSDOF 3
