REMARK  Name = ZINC35936728
REMARK  2 active torsions:
REMARK  status: ('A' for Active; 'I' for Inactive)
REMARK    1  A    between atoms: C_7  and  C_9
REMARK    2  A    between atoms: C_19  and  C_21
REMARK                            x       y       z     vdW  Elec       q    Type
REMARK                         _______ _______ _______ _____ _____    ______ ____
ROOT
ATOM      1  C   UNL     1       2.928  -2.100   1.504  0.00  0.00    +0.125 A 
ATOM      2  C   UNL     1       3.875  -3.076   1.674  0.00  0.00    +0.023 A 
ATOM      3  C   UNL     1       3.185  -4.295   1.641  0.00  0.00    +0.070 A 
ATOM      4  N   UNL     1       1.923  -4.027   1.461  0.00  0.00    -0.178 NA
ATOM      5  N   UNL     1       1.731  -2.756   1.383  0.00  0.00    -0.272 N 
ATOM      6  H   UNL     1       0.870  -2.328   1.256  0.00  0.00    +0.189 HD
ATOM      7  C   UNL     1       3.853  -5.638   1.797  0.00  0.00    +0.076 C 
ATOM      8  C   UNL     1       5.356  -5.470   1.539  0.00  0.00    +0.114 C 
ATOM      9  N   UNL     1       5.853  -4.292   2.263  0.00  0.00    -0.295 N 
ATOM     10  C   UNL     1       5.364  -2.959   1.861  0.00  0.00    +0.147 C 
ATOM     11  C   UNL     1       6.736  -4.426   3.272  0.00  0.00    +0.245 C 
ATOM     12  O   UNL     1       7.138  -3.445   3.861  0.00  0.00    -0.273 OA
ENDROOT
BRANCH   1  19
ATOM     13  C   UNL     1       3.676   1.103  -2.213  0.00  0.00    +0.003 C 
ATOM     14  C   UNL     1       3.410  -0.395  -2.045  0.00  0.00    +0.019 C 
ATOM     15  C   UNL     1       4.105  -0.893  -0.774  0.00  0.00    +0.108 C 
ATOM     16  N   UNL     1       3.662  -0.071   0.360  0.00  0.00    -0.296 N 
ATOM     17  C   UNL     1       3.788   1.390   0.265  0.00  0.00    +0.108 C 
ATOM     18  C   UNL     1       3.097   1.862  -1.018  0.00  0.00    +0.019 C 
ATOM     19  C   UNL     1       3.149  -0.646   1.466  0.00  0.00    +0.265 C 
ATOM     20  O   UNL     1       2.870   0.038   2.433  0.00  0.00    -0.268 OA
ENDBRANCH   1  19
BRANCH  11  21
ATOM     21  C   UNL     1       7.224  -5.795   3.669  0.00  0.00    +0.204 C 
ATOM     22  C   UNL     1       6.051  -6.628   4.230  0.00  0.00    +0.043 C 
ATOM     23  C   UNL     1       6.721  -7.390   5.406  0.00  0.00    +0.031 C 
ATOM     24  C   UNL     1       7.743  -6.334   5.897  0.00  0.00    +0.161 C 
ATOM     25  O   UNL     1       8.209  -5.679   4.704  0.00  0.00    -0.367 OA
ENDBRANCH  11  21
TORSDOF 2
