REMARK  Name = ZINC08324391
REMARK  10 active torsions:
REMARK  status: ('A' for Active; 'I' for Inactive)
REMARK    1  A    between atoms: C_1  and  C_2
REMARK    2  A    between atoms: C_2  and  O_3
REMARK    3  A    between atoms: O_3  and  C_4
REMARK    4  A    between atoms: C_7  and  C_10
REMARK    5  A    between atoms: C_17  and  C_30
REMARK    6  A    between atoms: N_25  and  C_26
REMARK    7  A    between atoms: C_26  and  C_27
REMARK    8  A    between atoms: C_27  and  N_56
REMARK    9  A    between atoms: C_28  and  N_56
REMARK   10  A    between atoms: C_29  and  N_56
REMARK                            x       y       z     vdW  Elec       q    Type
REMARK                         _______ _______ _______ _____ _____    ______ ____
ROOT
ATOM      1  C   UNL     1       4.548   4.712  -0.015  0.00  0.00    +0.144 C 
ATOM      2  C   UNL     1       3.529   3.602  -0.011  0.00  0.00    +0.072 A 
ATOM      3  C   UNL     1       3.652   2.142  -0.022  0.00  0.00    +0.199 A 
ATOM      4  O   UNL     1       4.738   1.591  -0.035  0.00  0.00    -0.287 OA
ATOM      5  C   UNL     1       2.393   1.371  -0.013  0.00  0.00    +0.065 A 
ATOM      6  C   UNL     1       2.392  -0.023  -0.020  0.00  0.00    +0.018 A 
ATOM      7  C   UNL     1       1.204  -0.699  -0.013  0.00  0.00    -0.050 A 
ATOM      8  C   UNL     1       0.002  -0.004   0.002  0.00  0.00    +0.007 A 
ATOM      9  C   UNL     1      -0.017   1.374   0.010  0.00  0.00    +0.047 A 
ATOM     10  C   UNL     1       1.181   2.083   0.002  0.00  0.00    +0.139 A 
ATOM     11  O   UNL     1       1.180   3.429   0.010  0.00  0.00    -0.450 OA
ATOM     12  C   UNL     1       2.301   4.176   0.003  0.00  0.00    +0.199 A 
ATOM     13  C   UNL     1       2.475   5.651   0.010  0.00  0.00    +0.283 C 
ATOM     14  O   UNL     1       1.567   6.457   0.022  0.00  0.00    -0.267 OA
ATOM     15  N   UNL     1       3.782   5.964  -0.000  0.00  0.00    -0.285 N 
ATOM     16  C   UNL     1       1.198  -2.206  -0.021  0.00  0.00    +0.044 C 
ENDROOT
BRANCH   1  20
ATOM     17  C   UNL     1       6.949   4.495  -3.543  0.00  0.00    +0.121 A 
ATOM     18  C   UNL     1       7.459   4.061  -2.328  0.00  0.00    +0.046 A 
ATOM     19  C   UNL     1       6.681   4.132  -1.189  0.00  0.00    +0.009 A 
ATOM     20  C   UNL     1       5.395   4.635  -1.259  0.00  0.00    -0.022 A 
ATOM     21  C   UNL     1       4.882   5.063  -2.470  0.00  0.00    +0.009 A 
ATOM     22  C   UNL     1       5.659   4.999  -3.611  0.00  0.00    +0.046 A 
BRANCH  17  23
ATOM     23  O   UNL     1       7.712   4.425  -4.665  0.00  0.00    -0.492 OA
BRANCH  23  25
ATOM     24  C   UNL     1       8.124   4.733  -7.027  0.00  0.00    +0.048 C 
ATOM     25  C   UNL     1       7.122   4.889  -5.881  0.00  0.00    +0.225 C 
ENDBRANCH  23  25
ENDBRANCH  17  23
ENDBRANCH   1  20
BRANCH  15  26
ATOM     26  C   UNL     1       4.343   7.317   0.002  0.00  0.00    +0.090 C 
BRANCH  26  27
ATOM     27  C   UNL     1       4.552   7.780   1.446  0.00  0.00    -0.060 C 
BRANCH  27  30
ATOM     28  C   UNL     1       4.154  10.107   0.906  0.00  0.00    -0.097 C 
ATOM     29  C   UNL     1       5.549   9.524   2.798  0.00  0.00    -0.097 C 
ATOM     30  N   UNL     1       5.138   9.137   1.432  0.00  0.00    +0.377 N 
ATOM     31  H   UNL     1       5.964   9.137   0.822  0.00  0.00    -0.083 HD
ENDBRANCH  27  30
ENDBRANCH  26  27
ENDBRANCH  15  26
TORSDOF 6
