REMARK  Name = ZINC37870110
REMARK  6 active torsions:
REMARK  status: ('A' for Active; 'I' for Inactive)
REMARK    1  A    between atoms: C_1  and  C_2
REMARK    2  A    between atoms: C_2  and  C_3
REMARK    3  A    between atoms: C_3  and  N_4
REMARK    4  A    between atoms: N_4  and  C_5
REMARK    5  A    between atoms: C_5  and  C_7
REMARK    6  A    between atoms: C_5  and  C_18
REMARK                            x       y       z     vdW  Elec       q    Type
REMARK                         _______ _______ _______ _____ _____    ______ ____
ROOT
ATOM      1  C   UNL     1       1.472  -2.466   2.424  0.00  0.00    +0.047 C 
ENDROOT
BRANCH   1   2
ATOM      2  C   UNL     1       1.600  -3.966   2.354  0.00  0.00    -0.048 A 
ATOM      3  C   UNL     1       2.771  -4.579   2.761  0.00  0.00    +0.052 A 
ATOM      4  C   UNL     1       2.892  -5.959   2.698  0.00  0.00    +0.163 A 
ATOM      5  C   UNL     1       1.832  -6.725   2.228  0.00  0.00    +0.176 A 
ATOM      6  C   UNL     1       0.660  -6.104   1.820  0.00  0.00    +0.063 A 
ATOM      7  C   UNL     1       0.545  -4.728   1.889  0.00  0.00    +0.021 A 
ATOM      8 BR   UNL     1      -0.783  -7.142   1.175  0.00  0.00    -0.046 Br
ATOM      9  O   UNL     1       1.927  -8.081   2.165  0.00  0.00    -0.484 OA
ATOM     10  C   UNL     1       3.244  -8.638   2.231  0.00  0.00    +0.270 C 
ATOM     11  C   UNL     1       4.001  -7.950   3.375  0.00  0.00    +0.270 C 
ATOM     12  O   UNL     1       4.053  -6.546   3.098  0.00  0.00    -0.485 OA
ENDBRANCH   1   2
BRANCH   1  13
ATOM     13  C   UNL     1       0.701  -2.085   3.660  0.00  0.00    +0.201 C 
ATOM     14  O   UNL     1      -0.339  -1.468   3.560  0.00  0.00    -0.277 OA
ATOM     15  N   UNL     1       1.166  -2.429   4.878  0.00  0.00    -0.330 N 
ATOM     16  H   UNL     1       1.997  -2.922   4.958  0.00  0.00    +0.145 HD
ATOM     17  H   UNL     1       0.669  -2.183   5.674  0.00  0.00    +0.145 HD
ENDBRANCH   1  13
BRANCH   1  18
ATOM     18  N   UNL     1       0.762  -1.980   1.234  0.00  0.00    +0.389 N 
ATOM     19  H   UNL     1      -0.185  -2.329   1.241  0.00  0.00    -0.084 HD
ATOM     20  H   UNL     1       1.234  -2.305   0.403  0.00  0.00    -0.084 HD
BRANCH  18  21
ATOM     21  C   UNL     1       0.742  -0.511   1.242  0.00  0.00    -0.081 C 
BRANCH  21  23
ATOM     22  C   UNL     1      -0.019   1.526   0.010  0.00  0.00    +0.002 C 
ATOM     23  C   UNL     1       0.002  -0.004   0.002  0.00  0.00    -0.022 C 
ENDBRANCH  21  23
ENDBRANCH  18  21
ENDBRANCH   1  18
TORSDOF 5
