REMARK  Name = ZINC39677077
REMARK  12 active torsions:
REMARK  status: ('A' for Active; 'I' for Inactive)
REMARK    1  A    between atoms: C_1  and  C_2
REMARK    2  A    between atoms: C_5  and  C_38
REMARK    3  A    between atoms: C_6  and  C_8
REMARK    4  A    between atoms: C_8  and  C_9
REMARK    5  A    between atoms: C_9  and  N_10
REMARK    6  A    between atoms: C_11  and  C_13
REMARK    7  A    between atoms: C_24  and  C_26
REMARK    8  A    between atoms: C_26  and  C_28
REMARK    9  A    between atoms: C_26  and  O_31
REMARK   10  A    between atoms: C_28  and  C_29
REMARK   11  A    between atoms: C_28  and  C_30
REMARK   12  A    between atoms: O_31  and  C_32
REMARK                            x       y       z     vdW  Elec       q    Type
REMARK                         _______ _______ _______ _____ _____    ______ ____
ROOT
ATOM      1  C   UNL     1       2.804  -5.129   5.940  0.00  0.00    +0.100 C 
ATOM      2  C   UNL     1       1.905  -6.379   5.817  0.00  0.00    +0.121 C 
ATOM      3  N   UNL     1       2.840  -7.483   5.496  0.00  0.00    -0.297 N 
ATOM      4  C   UNL     1       4.033  -7.210   6.332  0.00  0.00    +0.115 C 
ATOM      5  C   UNL     1       4.199  -5.678   6.282  0.00  0.00    -0.004 C 
ATOM      6  C   UNL     1       4.657  -5.152   7.639  0.00  0.00    -0.010 C 
ATOM      7  C   UNL     1       6.070  -5.664   7.931  0.00  0.00    -0.082 C 
ATOM      8  N   UNL     1       6.984  -5.213   6.875  0.00  0.00    +0.379 N 
ATOM      9  C   UNL     1       6.591  -5.799   5.588  0.00  0.00    -0.082 C 
ATOM     10  C   UNL     1       5.200  -5.292   5.197  0.00  0.00    -0.010 C 
ATOM     11  C   UNL     1       2.648  -8.505   4.638  0.00  0.00    +0.257 C 
ATOM     12  O   UNL     1       3.516  -9.337   4.483  0.00  0.00    -0.272 OA
ATOM     13  H   UNL     1       6.949  -4.207   6.809  0.00  0.00    -0.086 HD
ATOM     14  H   UNL     1       7.924  -5.500   7.100  0.00  0.00    -0.086 HD
ENDROOT
BRANCH   1  16
ATOM     15  N   UNL     1       3.016  -3.042   4.629  0.00  0.00    -0.315 N 
ATOM     16  C   UNL     1       2.841  -4.379   4.634  0.00  0.00    +0.218 C 
ATOM     17  O   UNL     1       2.714  -4.978   3.587  0.00  0.00    -0.275 OA
ATOM     18  H   UNL     1       3.118  -2.563   5.466  0.00  0.00    +0.149 HD
BRANCH  15  19
ATOM     19  C   UNL     1       3.052  -2.313   3.359  0.00  0.00    +0.109 C 
BRANCH  19  20
ATOM     20  C   UNL     1       3.260  -0.822   3.633  0.00  0.00    +0.054 C 
BRANCH  20  26
ATOM     21  C   UNL     1       5.866   1.202  -0.130  0.00  0.00    +0.044 C 
ATOM     22  C   UNL     1       4.545   0.897   0.526  0.00  0.00    -0.050 A 
ATOM     23  C   UNL     1       3.366   1.306  -0.070  0.00  0.00    +0.003 A 
ATOM     24  C   UNL     1       2.154   1.026   0.532  0.00  0.00    +0.004 A 
ATOM     25  C   UNL     1       2.119   0.337   1.730  0.00  0.00    -0.047 A 
ATOM     26  C   UNL     1       3.297  -0.072   2.326  0.00  0.00    -0.043 A 
ATOM     27  C   UNL     1       4.510   0.204   1.722  0.00  0.00    +0.007 A 
ATOM     28  C   UNL     1       0.798   0.033   2.387  0.00  0.00    +0.044 C 
ENDBRANCH  20  26
ENDBRANCH  19  20
ENDBRANCH  15  19
ENDBRANCH   1  16
BRANCH  11  29
ATOM     29  C   UNL     1       1.355  -8.613   3.871  0.00  0.00    +0.261 C 
BRANCH  29  30
ATOM     30  C   UNL     1       0.202  -8.856   4.847  0.00  0.00    +0.033 C 
ATOM     31  C   UNL     1      -1.110  -8.966   4.069  0.00  0.00    +0.011 C 
ATOM     32  C   UNL     1       0.450 -10.156   5.615  0.00  0.00    +0.011 C 
ENDBRANCH  29  30
BRANCH  29  33
ATOM     33  O   UNL     1       1.438  -9.702   2.950  0.00  0.00    -0.479 OA
BRANCH  33  34
ATOM     34  C   UNL     1       0.773  -9.566   1.773  0.00  0.00    +0.122 A 
ATOM     35  C   UNL     1       0.128  -8.374   1.473  0.00  0.00    +0.045 A 
ATOM     36  C   UNL     1      -0.547  -8.238   0.275  0.00  0.00    +0.004 A 
ATOM     37  C   UNL     1      -0.580  -9.288  -0.624  0.00  0.00    +0.000 A 
ATOM     38  C   UNL     1       0.061 -10.476  -0.328  0.00  0.00    +0.004 A 
ATOM     39  C   UNL     1       0.742 -10.615   0.866  0.00  0.00    +0.045 A 
ENDBRANCH  33  34
ENDBRANCH  29  33
ENDBRANCH  11  29
TORSDOF 8
