REMARK  Name = ZINC36154902
REMARK  15 active torsions:
REMARK  status: ('A' for Active; 'I' for Inactive)
REMARK    1  A    between atoms: C_1  and  C_2
REMARK    2  A    between atoms: C_2  and  C_3
REMARK    3  A    between atoms: C_2  and  C_4
REMARK    4  A    between atoms: C_2  and  O_5
REMARK    5  A    between atoms: O_5  and  C_6
REMARK    6  A    between atoms: C_6  and  C_7
REMARK    7  A    between atoms: C_7  and  C_9
REMARK    8  A    between atoms: C_7  and  O_34
REMARK    9  A    between atoms: C_9  and  N_10
REMARK   10  A    between atoms: N_10  and  C_11
REMARK   11  A    between atoms: C_11  and  C_13
REMARK   12  A    between atoms: C_11  and  C_20
REMARK   13  A    between atoms: C_13  and  C_14
REMARK   14  A    between atoms: C_22  and  C_25
REMARK   15  A    between atoms: C_28  and  N_31
REMARK                            x       y       z     vdW  Elec       q    Type
REMARK                         _______ _______ _______ _____ _____    ______ ____
ROOT
ATOM      1  C   UNL     1       6.118  -0.253  -3.704  0.00  0.00    +0.023 C 
ENDROOT
BRANCH   1   2
ATOM      2  C   UNL     1       6.699  -1.009  -4.872  0.00  0.00    +0.214 A 
ATOM      3  N   UNL     1       7.877  -1.564  -4.910  0.00  0.00    -0.193 NA
ATOM      4  C   UNL     1       8.069  -2.154  -6.103  0.00  0.00    +0.202 A 
ATOM      5  N   UNL     1       7.000  -1.973  -6.838  0.00  0.00    -0.056 NA
ATOM      6  O   UNL     1       6.088  -1.229  -6.043  0.00  0.00    -0.339 OA
BRANCH   4   7
ATOM      7  C   UNL     1       9.291  -2.887  -6.519  0.00  0.00    +0.023 A 
ATOM      8  C   UNL     1      10.364  -3.014  -5.639  0.00  0.00    +0.014 A 
ATOM      9  C   UNL     1      11.497  -3.697  -6.031  0.00  0.00    +0.033 A 
ATOM     10  C   UNL     1      11.570  -4.255  -7.294  0.00  0.00    +0.126 A 
ATOM     11  C   UNL     1      10.508  -4.132  -8.172  0.00  0.00    +0.033 A 
ATOM     12  C   UNL     1       9.367  -3.455  -7.789  0.00  0.00    +0.014 A 
BRANCH  10  13
ATOM     13  N   UNL     1      12.788  -4.987  -7.709  0.00  0.00    +0.056 N 
ATOM     14  O   UNL     1      13.717  -5.096  -6.943  0.00  0.00    -0.126 OA
ATOM     15  O   UNL     1      12.853  -5.475  -8.812  0.00  0.00    -0.126 OA
ENDBRANCH  10  13
ENDBRANCH   4   7
ENDBRANCH   1   2
BRANCH   1  16
ATOM     16  N   UNL     1       4.732  -0.684  -3.483  0.00  0.00    +0.389 N 
ATOM     17  H   UNL     1       4.704  -1.687  -3.376  0.00  0.00    -0.085 HD
ATOM     18  H   UNL     1       4.165  -0.414  -4.273  0.00  0.00    -0.085 HD
BRANCH  16  19
ATOM     19  C   UNL     1       4.210  -0.048  -2.266  0.00  0.00    -0.048 C 
BRANCH  19  20
ATOM     20  C   UNL     1       2.814  -0.597  -1.962  0.00  0.00    +0.123 C 
BRANCH  20  21
ATOM     21  O   UNL     1       1.942  -0.315  -3.058  0.00  0.00    -0.391 OA
ATOM     22  H   UNL     1       1.843   0.628  -3.249  0.00  0.00    +0.210 HD
ENDBRANCH  20  21
BRANCH  20  23
ATOM     23  C   UNL     1       2.271   0.066  -0.694  0.00  0.00    +0.189 C 
BRANCH  23  24
ATOM     24  O   UNL     1       1.020  -0.529  -0.344  0.00  0.00    -0.372 OA
BRANCH  24  26
ATOM     25  C   UNL     1       0.170   1.515   0.625  0.00  0.00    +0.041 C 
ATOM     26  C   UNL     1       0.423   0.020   0.832  0.00  0.00    +0.061 C 
ATOM     27  C   UNL     1       1.365  -0.177   2.022  0.00  0.00    +0.041 C 
ATOM     28  C   UNL     1      -0.904  -0.688   1.109  0.00  0.00    +0.041 C 
ENDBRANCH  24  26
ENDBRANCH  23  24
ENDBRANCH  20  23
ENDBRANCH  19  20
ENDBRANCH  16  19
ENDBRANCH   1  16
BRANCH   1  29
ATOM     29  C   UNL     1       6.144   1.247  -4.004  0.00  0.00    +0.029 C 
BRANCH  29  30
ATOM     30  C   UNL     1       7.573   1.712  -4.119  0.00  0.00    -0.048 A 
ATOM     31  C   UNL     1       8.287   2.039  -2.981  0.00  0.00    +0.003 A 
ATOM     32  C   UNL     1       9.598   2.465  -3.085  0.00  0.00    +0.000 A 
ATOM     33  C   UNL     1      10.195   2.564  -4.328  0.00  0.00    +0.000 A 
ATOM     34  C   UNL     1       9.482   2.236  -5.466  0.00  0.00    +0.000 A 
ATOM     35  C   UNL     1       8.173   1.805  -5.361  0.00  0.00    +0.003 A 
ENDBRANCH  29  30
ENDBRANCH   1  29
TORSDOF 12
