REMARK  Name = ZINC01077510
REMARK  11 active torsions:
REMARK  status: ('A' for Active; 'I' for Inactive)
REMARK    1  A    between atoms: C_1  and  C_2
REMARK    2  A    between atoms: C_2  and  O_3
REMARK    3  A    between atoms: O_3  and  C_4
REMARK    4  A    between atoms: C_7  and  C_12
REMARK    5  A    between atoms: C_9  and  O_10
REMARK    6  A    between atoms: O_10  and  C_11
REMARK    7  A    between atoms: C_17  and  C_27
REMARK    8  A    between atoms: C_31  and  O_35
REMARK    9  A    between atoms: C_32  and  O_33
REMARK   10  A    between atoms: O_33  and  C_34
REMARK   11  A    between atoms: O_35  and  C_36
REMARK                            x       y       z     vdW  Elec       q    Type
REMARK                         _______ _______ _______ _____ _____    ______ ____
ROOT
ATOM      1  C   UNL     1       0.074   1.079  -0.067  0.00  0.00    +0.032 C 
ATOM      2  C   UNL     1      -0.622   1.591   1.193  0.00  0.00    +0.059 C 
ATOM      3  C   UNL     1       0.111   1.092   2.429  0.00  0.00    +0.017 C 
ATOM      4  C   UNL     1       1.441   0.908   2.401  0.00  0.00    +0.037 C 
ATOM      5  C   UNL     1       2.291   0.415   3.549  0.00  0.00    +0.140 C 
ATOM      6  N   UNL     1       1.609   0.381   4.826  0.00  0.00    -0.331 N 
ATOM      7  C   UNL     1       0.525  -0.467   5.036  0.00  0.00    +0.049 A 
ATOM      8  C   UNL     1       0.605  -1.534   5.918  0.00  0.00    +0.025 A 
ATOM      9  C   UNL     1      -0.468  -2.400   6.038  0.00  0.00    +0.002 A 
ATOM     10  C   UNL     1      -1.613  -2.206   5.288  0.00  0.00    +0.002 A 
ATOM     11  C   UNL     1      -1.706  -1.127   4.424  0.00  0.00    +0.025 A 
ATOM     12  C   UNL     1      -0.641  -0.251   4.318  0.00  0.00    +0.052 A 
ATOM     13  N   UNL     1      -0.684   0.880   3.509  0.00  0.00    -0.316 N 
ATOM     14  C   UNL     1       2.173   1.164   1.218  0.00  0.00    +0.163 C 
ATOM     15  O   UNL     1       3.379   1.016   1.231  0.00  0.00    -0.292 OA
ATOM     16  C   UNL     1       1.513   1.611  -0.052  0.00  0.00    +0.088 C 
ATOM     17  H   UNL     1       1.912   0.957   5.545  0.00  0.00    +0.147 HD
ATOM     18  H   UNL     1      -1.330   1.568   3.733  0.00  0.00    +0.152 HD
ENDROOT
BRANCH   1  22
ATOM     19  C   UNL     1      -1.966   2.521  -3.538  0.00  0.00    +0.162 A 
ATOM     20  C   UNL     1      -1.438   3.415  -2.620  0.00  0.00    +0.050 A 
ATOM     21  C   UNL     1      -0.778   2.946  -1.499  0.00  0.00    +0.008 A 
ATOM     22  C   UNL     1      -0.645   1.585  -1.290  0.00  0.00    -0.040 A 
ATOM     23  C   UNL     1      -1.165   0.689  -2.205  0.00  0.00    +0.053 A 
ATOM     24  C   UNL     1      -1.831   1.152  -3.328  0.00  0.00    +0.162 A 
BRANCH  24  25
ATOM     25  O   UNL     1      -2.348   0.271  -4.226  0.00  0.00    -0.491 OA
ATOM     26  C   UNL     1      -2.172  -1.119  -3.946  0.00  0.00    +0.277 C 
ENDBRANCH  24  25
BRANCH  19  27
ATOM     27  O   UNL     1      -2.614   2.981  -4.641  0.00  0.00    -0.489 OA
BRANCH  27  29
ATOM     28  C   UNL     1      -3.470   4.723  -6.082  0.00  0.00    +0.048 C 
ATOM     29  C   UNL     1      -2.714   4.399  -4.792  0.00  0.00    +0.226 C 
ENDBRANCH  27  29
ENDBRANCH  19  27
ENDBRANCH   1  22
BRANCH   5  30
ATOM     30  C   UNL     1       2.770  -0.977   3.226  0.00  0.00    +0.023 A 
ATOM     31  C   UNL     1       2.100  -1.738   2.285  0.00  0.00    +0.009 A 
ATOM     32  C   UNL     1       2.539  -3.013   1.983  0.00  0.00    +0.004 A 
ATOM     33  C   UNL     1       3.644  -3.537   2.628  0.00  0.00    +0.049 A 
ATOM     34  C   UNL     1       4.317  -2.783   3.575  0.00  0.00    +0.162 A 
ATOM     35  C   UNL     1       3.877  -1.496   3.875  0.00  0.00    +0.167 A 
BRANCH  35  36
ATOM     36  O   UNL     1       4.534  -0.752   4.805  0.00  0.00    -0.491 OA
ATOM     37  C   UNL     1       4.178  -0.962   6.173  0.00  0.00    +0.277 C 
ENDBRANCH  35  36
BRANCH  34  38
ATOM     38  O   UNL     1       5.404  -3.297   4.210  0.00  0.00    -0.491 OA
ATOM     39  C   UNL     1       5.798  -4.623   3.851  0.00  0.00    +0.277 C 
ENDBRANCH  34  38
ENDBRANCH   5  30
TORSDOF 7
