REMARK  Name = ZINC58952508
REMARK  9 active torsions:
REMARK  status: ('A' for Active; 'I' for Inactive)
REMARK    1  A    between atoms: C_1  and  C_2
REMARK    2  A    between atoms: N_8  and  C_9
REMARK    3  A    between atoms: C_9  and  C_10
REMARK    4  A    between atoms: C_15  and  C_16
REMARK    5  A    between atoms: C_16  and  N_17
REMARK    6  A    between atoms: C_18  and  C_20
REMARK    7  A    between atoms: C_20  and  S_21
REMARK    8  A    between atoms: S_21  and  C_22
REMARK    9  A    between atoms: C_25  and  C_27
REMARK                            x       y       z     vdW  Elec       q    Type
REMARK                         _______ _______ _______ _____ _____    ______ ____
ROOT
ATOM      1  N   UNL     1       1.666   2.705   3.445  0.00  0.00    -0.311 N 
ATOM      2  C   UNL     1       1.893   3.872   2.810  0.00  0.00    +0.224 C 
ATOM      3  O   UNL     1       2.749   3.939   1.953  0.00  0.00    -0.275 OA
ATOM      4  H   UNL     1       0.982   2.651   4.130  0.00  0.00    +0.149 HD
ENDROOT
BRANCH   1   5
ATOM      5  C   UNL     1       2.454   1.518   3.102  0.00  0.00    +0.139 C 
BRANCH   5  11
ATOM      6  C   UNL     1       0.865  -0.347   3.613  0.00  0.00    -0.059 A 
ATOM      7  C   UNL     1       0.458  -1.417   4.388  0.00  0.00    +0.002 A 
ATOM      8  C   UNL     1       1.190  -1.781   5.503  0.00  0.00    +0.000 A 
ATOM      9  C   UNL     1       2.329  -1.075   5.843  0.00  0.00    +0.000 A 
ATOM     10  C   UNL     1       2.736  -0.005   5.067  0.00  0.00    +0.005 A 
ATOM     11  C   UNL     1       2.007   0.356   3.950  0.00  0.00    -0.029 A 
BRANCH   6  12
ATOM     12  C   UNL     1       0.067   0.050   2.397  0.00  0.00    -0.042 C 
BRANCH  12  19
ATOM     13  C   UNL     1      -0.019   1.526   0.010  0.00  0.00    -0.013 C 
ATOM     14  C   UNL     1       0.002  -0.004   0.002  0.00  0.00    -0.071 C 
ATOM     15  C   UNL     1       0.717  -0.497  -1.258  0.00  0.00    -0.016 C 
ATOM     16  C   UNL     1       0.735  -2.028  -1.262  0.00  0.00    -0.003 C 
ATOM     17  C   UNL     1       1.410  -2.524   0.020  0.00  0.00    -0.019 C 
ATOM     18  C   UNL     1       0.669  -1.956   1.232  0.00  0.00    -0.078 C 
ATOM     19  N   UNL     1       0.711  -0.490   1.192  0.00  0.00    +0.384 N 
ATOM     20  H   UNL     1       1.671  -0.182   1.159  0.00  0.00    -0.081 HD
ENDBRANCH  12  19
ENDBRANCH   6  12
ENDBRANCH   5  11
ENDBRANCH   1   5
BRANCH   2  21
ATOM     21  C   UNL     1       1.083   5.092   3.163  0.00  0.00    +0.174 C 
BRANCH  21  22
ATOM     22  S   UNL     1       1.621   6.492   2.142  0.00  0.00    -0.056 S 
BRANCH  22  23
ATOM     23  C   UNL     1       0.593   7.823   2.668  0.00  0.00    +0.278 A 
ATOM     24  N   UNL     1      -0.334   7.769   3.596  0.00  0.00    -0.101 NA
ATOM     25  N   UNL     1      -0.885   8.925   3.719  0.00  0.00    -0.106 NA
ATOM     26  C   UNL     1      -0.333   9.762   2.874  0.00  0.00    +0.249 A 
ATOM     27  O   UNL     1       0.618   9.084   2.195  0.00  0.00    -0.411 OA
BRANCH  26  28
ATOM     28  C   UNL     1      -0.682  11.187   2.701  0.00  0.00    +0.039 A 
ATOM     29  C   UNL     1      -0.012  11.963   1.754  0.00  0.00    +0.014 A 
ATOM     30  C   UNL     1      -0.343  13.293   1.596  0.00  0.00    +0.021 A 
ATOM     31  C   UNL     1      -1.338  13.859   2.376  0.00  0.00    +0.041 A 
ATOM     32  C   UNL     1      -2.007  13.094   3.317  0.00  0.00    +0.021 A 
ATOM     33  C   UNL     1      -1.688  11.762   3.480  0.00  0.00    +0.014 A 
ATOM     34 CL   UNL     1      -1.748  15.533   2.173  0.00  0.00    -0.084 Cl
ENDBRANCH  26  28
ENDBRANCH  22  23
ENDBRANCH  21  22
ENDBRANCH   2  21
TORSDOF 8
