REMARK  Name = ZINC36040721
REMARK  16 active torsions:
REMARK  status: ('A' for Active; 'I' for Inactive)
REMARK    1  A    between atoms: C_1  and  C_2
REMARK    2  A    between atoms: C_2  and  N_3
REMARK    3  A    between atoms: N_3  and  C_4
REMARK    4  A    between atoms: C_4  and  N_6
REMARK    5  A    between atoms: N_6  and  C_7
REMARK    6  A    between atoms: N_6  and  C_12
REMARK    7  A    between atoms: C_7  and  C_8
REMARK    8  A    between atoms: C_8  and  N_9
REMARK    9  A    between atoms: N_9  and  C_10
REMARK   10  A    between atoms: N_9  and  C_11
REMARK   11  A    between atoms: C_12  and  C_13
REMARK   12  A    between atoms: C_16  and  S_25
REMARK   13  A    between atoms: N_17  and  C_18
REMARK   14  A    between atoms: C_18  and  C_19
REMARK   15  A    between atoms: S_25  and  C_28
REMARK   16  A    between atoms: C_28  and  C_29
REMARK                            x       y       z     vdW  Elec       q    Type
REMARK                         _______ _______ _______ _____ _____    ______ ____
ROOT
ATOM      1  C   UNL     1       3.321  -1.420  -2.731  0.00  0.00    +0.057 A 
ATOM      2  C   UNL     1       4.317  -1.920  -3.488  0.00  0.00    +0.137 A 
ATOM      3  N   UNL     1       5.466  -1.361  -3.082  0.00  0.00    -0.220 NA
ATOM      4  C   UNL     1       5.221  -0.534  -2.103  0.00  0.00    +0.252 A 
ATOM      5  N   UNL     1       3.894  -0.536  -1.856  0.00  0.00    -0.307 N 
ENDROOT
BRANCH   4   6
ATOM      6  S   UNL     1       6.423   0.431  -1.249  0.00  0.00    +0.034 S 
ATOM      7  O   UNL     1       5.813   0.754  -0.007  0.00  0.00    -0.166 OA
ATOM      8  O   UNL     1       7.611  -0.347  -1.292  0.00  0.00    -0.166 OA
BRANCH   6   9
ATOM      9  C   UNL     1       6.620   1.928  -2.256  0.00  0.00    +0.210 C 
BRANCH   9  10
ATOM     10  C   UNL     1       7.703   2.792  -1.664  0.00  0.00    -0.026 A 
ATOM     11  C   UNL     1       7.385   3.745  -0.714  0.00  0.00    +0.005 A 
ATOM     12  C   UNL     1       8.379   4.538  -0.171  0.00  0.00    +0.000 A 
ATOM     13  C   UNL     1       9.690   4.378  -0.577  0.00  0.00    +0.000 A 
ATOM     14  C   UNL     1      10.008   3.424  -1.526  0.00  0.00    +0.000 A 
ATOM     15  C   UNL     1       9.015   2.628  -2.066  0.00  0.00    +0.005 A 
ENDBRANCH   9  10
ENDBRANCH   6   9
ENDBRANCH   4   6
BRANCH   1  16
ATOM     16  C   UNL     1       1.857  -1.763  -2.832  0.00  0.00    +0.161 C 
BRANCH  16  17
ATOM     17  N   UNL     1       1.708  -3.104  -3.402  0.00  0.00    -0.309 N 
BRANCH  17  18
ATOM     18  C   UNL     1       1.787  -4.188  -2.606  0.00  0.00    +0.133 C 
ATOM     19  S   UNL     1       1.748  -5.758  -3.289  0.00  0.00    -0.019 S 
BRANCH  18  20
ATOM     20  N   UNL     1       1.897  -4.037  -1.271  0.00  0.00    -0.327 N 
ATOM     21  H   UNL     1       1.849  -3.152  -0.877  0.00  0.00    +0.148 HD
BRANCH  20  23
ATOM     22  C   UNL     1       2.305  -4.756   1.031  0.00  0.00    +0.024 C 
ATOM     23  C   UNL     1       2.088  -5.210  -0.414  0.00  0.00    +0.100 C 
ENDBRANCH  20  23
ENDBRANCH  18  20
ENDBRANCH  17  18
BRANCH  17  24
ATOM     24  C   UNL     1       1.473  -3.267  -4.839  0.00  0.00    +0.088 C 
BRANCH  24  25
ATOM     25  C   UNL     1      -0.032  -3.261  -5.114  0.00  0.00    -0.060 C 
BRANCH  25  26
ATOM     26  N   UNL     1      -0.268  -3.424  -6.554  0.00  0.00    +0.377 N 
ATOM     27  C   UNL     1      -1.711  -3.539  -6.805  0.00  0.00    -0.097 C 
ATOM     28  C   UNL     1       0.262  -2.257  -7.272  0.00  0.00    -0.097 C 
ATOM     29  H   UNL     1       0.197  -4.259  -6.879  0.00  0.00    -0.083 HD
ENDBRANCH  25  26
ENDBRANCH  24  25
ENDBRANCH  17  24
ENDBRANCH  16  17
ENDBRANCH   1  16
BRANCH   5  30
ATOM     30  C   UNL     1       3.197   0.256  -0.840  0.00  0.00    +0.160 C 
BRANCH  30  31
ATOM     31  C   UNL     1       2.755   1.566  -1.441  0.00  0.00    -0.028 A 
ATOM     32  C   UNL     1       3.555   2.686  -1.321  0.00  0.00    +0.005 A 
ATOM     33  C   UNL     1       3.150   3.888  -1.871  0.00  0.00    +0.000 A 
ATOM     34  C   UNL     1       1.944   3.968  -2.543  0.00  0.00    +0.000 A 
ATOM     35  C   UNL     1       1.144   2.848  -2.664  0.00  0.00    +0.000 A 
ATOM     36  C   UNL     1       1.552   1.645  -2.117  0.00  0.00    +0.005 A 
ENDBRANCH  30  31
ENDBRANCH   5  30
TORSDOF 13
