REMARK  Name = ZINC50928284
REMARK  4 active torsions:
REMARK  status: ('A' for Active; 'I' for Inactive)
REMARK    1  A    between atoms: C_5  and  C_7
REMARK    2  A    between atoms: C_9  and  C_12
REMARK    3  A    between atoms: C_12  and  C_13
REMARK    4  A    between atoms: C_13  and  C_14
REMARK                            x       y       z     vdW  Elec       q    Type
REMARK                         _______ _______ _______ _____ _____    ______ ____
ROOT
ATOM      1  C   UNL     1       1.246  -2.166  -0.023  0.00  0.00    +0.203 A 
ATOM      2  N   UNL     1       0.167  -2.970  -0.022  0.00  0.00    -0.191 NA
ATOM      3  C   UNL     1       0.541  -4.217  -0.032  0.00  0.00    +0.228 A 
ATOM      4  O   UNL     1       1.879  -4.260  -0.040  0.00  0.00    -0.338 OA
ATOM      5  N   UNL     1       2.323  -2.911  -0.039  0.00  0.00    -0.056 NA
ENDROOT
BRANCH   1  10
ATOM      6  C   UNL     1      -0.017   1.376   0.010  0.00  0.00    +0.001 A 
ATOM      7  C   UNL     1       1.170   2.087   0.002  0.00  0.00    +0.001 A 
ATOM      8  C   UNL     1       2.382   1.420  -0.013  0.00  0.00    +0.016 A 
ATOM      9  C   UNL     1       2.413   0.039  -0.022  0.00  0.00    +0.029 A 
ATOM     10  C   UNL     1       1.219  -0.682  -0.014  0.00  0.00    +0.036 A 
ATOM     11  C   UNL     1       0.002  -0.004   0.002  0.00  0.00    +0.013 A 
ATOM     12 BR   UNL     1       4.070  -0.872  -0.044  0.00  0.00    -0.050 Br
ENDBRANCH   1  10
BRANCH   3  13
ATOM     13  C   UNL     1      -0.378  -5.412  -0.034  0.00  0.00    +0.097 C 
BRANCH  13  14
ATOM     14  C   UNL     1      -0.698  -5.807  -1.477  0.00  0.00    -0.006 C 
BRANCH  14  15
ATOM     15  C   UNL     1      -1.631  -7.020  -1.479  0.00  0.00    -0.071 C 
ATOM     16  C   UNL     1      -1.849  -7.492  -2.918  0.00  0.00    -0.016 C 
ATOM     17  C   UNL     1      -2.783  -8.706  -2.914  0.00  0.00    -0.003 C 
ATOM     18  C   UNL     1      -4.096  -8.326  -2.223  0.00  0.00    -0.019 C 
ATOM     19  C   UNL     1      -3.794  -7.822  -0.809  0.00  0.00    -0.082 C 
ATOM     20  N   UNL     1      -2.919  -6.646  -0.882  0.00  0.00    +0.381 N 
ATOM     21  H   UNL     1      -2.766  -6.285   0.047  0.00  0.00    -0.086 HD
ATOM     22  H   UNL     1      -3.358  -5.936  -1.449  0.00  0.00    -0.086 HD
ENDBRANCH  14  15
ENDBRANCH  13  14
ENDBRANCH   3  13
TORSDOF 4
