REMARK  Name = ZINC39425493
REMARK  8 active torsions:
REMARK  status: ('A' for Active; 'I' for Inactive)
REMARK    1  A    between atoms: C_1  and  C_2
REMARK    2  A    between atoms: C_2  and  C_4
REMARK    3  A    between atoms: C_2  and  N_28
REMARK    4  A    between atoms: C_8  and  S_18
REMARK    5  A    between atoms: N_10  and  C_11
REMARK    6  A    between atoms: S_18  and  C_19
REMARK    7  A    between atoms: C_19  and  C_20
REMARK    8  A    between atoms: C_20  and  C_22
REMARK                            x       y       z     vdW  Elec       q    Type
REMARK                         _______ _______ _______ _____ _____    ______ ____
ROOT
ATOM      1  C   UNL     1       0.762  -0.600  -1.276  0.00  0.00    +0.144 C 
ATOM      2  N   UNL     1       0.051  -0.035  -2.453  0.00  0.00    -0.236 NA
ATOM      3  N   UNL     1       1.112   0.053  -3.469  0.00  0.00    -0.226 NA
ATOM      4  C   UNL     1       2.317   0.456  -2.708  0.00  0.00    +0.217 C 
ATOM      5  N   UNL     1       2.094   0.037  -1.312  0.00  0.00    -0.289 N 
ATOM      6  H   UNL     1      -0.690  -0.649  -2.756  0.00  0.00    +0.143 HD
ATOM      7  H   UNL     1       0.882   0.738  -4.173  0.00  0.00    +0.143 HD
ENDROOT
BRANCH   5   8
ATOM      8  C   UNL     1       2.968   0.210  -0.234  0.00  0.00    +0.033 A 
ATOM      9  C   UNL     1       3.440  -0.895   0.463  0.00  0.00    +0.026 A 
ATOM     10  C   UNL     1       4.304  -0.722   1.527  0.00  0.00    +0.040 A 
ATOM     11  C   UNL     1       4.700   0.551   1.898  0.00  0.00    +0.124 A 
ATOM     12  C   UNL     1       4.231   1.654   1.205  0.00  0.00    +0.040 A 
ATOM     13  C   UNL     1       3.371   1.486   0.137  0.00  0.00    +0.026 A 
ATOM     14  F   UNL     1       5.545   0.718   2.939  0.00  0.00    -0.205 F 
ENDBRANCH   5   8
BRANCH   1  16
ATOM     15  C   UNL     1      -0.181   1.278   0.076  0.00  0.00    -0.010 C 
ATOM     16  C   UNL     1       0.029  -0.237   0.017  0.00  0.00    -0.035 C 
BRANCH  16  17
ATOM     17  N   UNL     1      -1.274  -0.914   0.048  0.00  0.00    +0.383 N 
ATOM     18  C   UNL     1      -1.979  -0.557   1.285  0.00  0.00    -0.078 C 
ATOM     19  C   UNL     1      -3.370  -1.195   1.286  0.00  0.00    -0.019 C 
ATOM     20  C   UNL     1      -3.228  -2.717   1.198  0.00  0.00    -0.004 C 
ATOM     21  C   UNL     1      -2.426  -3.074  -0.057  0.00  0.00    -0.019 C 
ATOM     22  C   UNL     1      -1.070  -2.366  -0.008  0.00  0.00    -0.078 C 
ATOM     23  H   UNL     1      -1.823  -0.621  -0.746  0.00  0.00    -0.081 HD
ENDBRANCH  16  17
ENDBRANCH   1  16
BRANCH   4  24
ATOM     24  S   UNL     1       3.782  -0.376  -3.379  0.00  0.00    -0.114 S 
BRANCH  24  25
ATOM     25  C   UNL     1       3.397  -2.142  -3.218  0.00  0.00    +0.149 C 
BRANCH  25  26
ATOM     26  C   UNL     1       4.548  -2.958  -3.746  0.00  0.00    +0.171 C 
ATOM     27  O   UNL     1       5.528  -2.406  -4.186  0.00  0.00    -0.294 OA
BRANCH  26  28
ATOM     28  C   UNL     1       4.477  -4.463  -3.726  0.00  0.00    +0.195 C 
ATOM     29  C   UNL     1       4.714  -4.979  -2.324  0.00  0.00    +0.008 C 
ATOM     30  C   UNL     1       5.804  -5.742  -2.395  0.00  0.00    +0.017 C 
ATOM     31  C   UNL     1       6.300  -5.757  -3.771  0.00  0.00    +0.106 C 
ATOM     32  N   UNL     1       5.555  -5.034  -4.543  0.00  0.00    -0.277 NA
ENDBRANCH  26  28
ENDBRANCH  25  26
ENDBRANCH  24  25
ENDBRANCH   4  24
TORSDOF 7
