REMARK  Name = ZINC49601451
REMARK  13 active torsions:
REMARK  status: ('A' for Active; 'I' for Inactive)
REMARK    1  A    between atoms: C_1  and  C_2
REMARK    2  A    between atoms: C_2  and  O_4
REMARK    3  A    between atoms: O_4  and  C_5
REMARK    4  A    between atoms: C_9  and  C_42
REMARK    5  A    between atoms: C_9  and  C_43
REMARK    6  A    between atoms: C_12  and  C_41
REMARK    7  A    between atoms: C_16  and  C_40
REMARK    8  A    between atoms: C_23  and  O_36
REMARK    9  A    between atoms: C_25  and  O_27
REMARK   10  A    between atoms: O_27  and  C_28
REMARK   11  A    between atoms: C_28  and  C_30
REMARK   12  A    between atoms: O_36  and  C_37
REMARK   13  A    between atoms: C_37  and  C_39
REMARK                            x       y       z     vdW  Elec       q    Type
REMARK                         _______ _______ _______ _____ _____    ______ ____
ROOT
ATOM      1  C   UNL     1       0.101  -1.918  -0.972  0.00  0.00    +0.183 C 
ATOM      2  C   UNL     1      -1.377  -2.225  -0.736  0.00  0.00    +0.046 C 
ATOM      3  C   UNL     1      -1.561  -3.732  -0.595  0.00  0.00    +0.010 C 
ATOM      4  C   UNL     1      -1.167  -4.424  -1.905  0.00  0.00    -0.028 C 
ATOM      5  C   UNL     1       0.251  -4.066  -2.301  0.00  0.00    +0.049 C 
ATOM      6  C   UNL     1       0.620  -2.589  -2.244  0.00  0.00    +0.018 C 
ATOM      7  C   UNL     1       2.146  -2.466  -2.273  0.00  0.00    -0.013 C 
ATOM      8  C   UNL     1       2.650  -1.322  -3.156  0.00  0.00    +0.009 C 
ATOM      9  C   UNL     1       3.961  -0.813  -2.503  0.00  0.00    +0.015 C 
ATOM     10  C   UNL     1       4.149  -1.659  -1.217  0.00  0.00    +0.027 C 
ATOM     11  C   UNL     1       2.688  -2.078  -0.867  0.00  0.00    +0.022 C 
ATOM     12  C   UNL     1       4.869  -2.928  -1.649  0.00  0.00    +0.140 C 
ATOM     13  O   UNL     1       5.827  -3.358  -1.061  0.00  0.00    -0.297 OA
ATOM     14  C   UNL     1       4.301  -3.623  -2.871  0.00  0.00    +0.082 C 
ATOM     15  C   UNL     1       2.794  -3.798  -2.643  0.00  0.00    +0.047 C 
ATOM     16  C   UNL     1       2.161  -4.434  -3.870  0.00  0.00    +0.221 C 
ATOM     17  C   UNL     1       0.680  -4.722  -3.606  0.00  0.00    +0.222 C 
ATOM     18  C   UNL     1       4.854  -0.903  -0.088  0.00  0.00    +0.019 C 
ATOM     19  C   UNL     1       0.031  -1.841  -3.446  0.00  0.00    +0.016 C 
ATOM     20  C   UNL     1      -1.237  -5.944  -1.639  0.00  0.00    +0.011 C 
ATOM     21  C   UNL     1      -2.209  -4.097  -2.971  0.00  0.00    +0.011 C 
ENDROOT
BRANCH   1  22
ATOM     22  O   UNL     1       0.241  -0.496  -1.104  0.00  0.00    -0.461 OA
BRANCH  22  24
ATOM     23  C   UNL     1       0.585   1.703  -0.036  0.00  0.00    +0.136 C 
ATOM     24  C   UNL     1       0.430   0.205   0.024  0.00  0.00    +0.304 C 
ATOM     25  O   UNL     1       0.476  -0.364   1.089  0.00  0.00    -0.251 OA
ENDBRANCH  22  24
ENDBRANCH   1  22
BRANCH  17  26
ATOM     26  O   UNL     1      -0.074  -4.310  -4.738  0.00  0.00    -0.454 OA
BRANCH  26  27
ATOM     27  C   UNL     1      -0.219  -5.205  -5.734  0.00  0.00    +0.340 C 
ATOM     28  O   UNL     1       0.283  -6.307  -5.638  0.00  0.00    -0.245 OA
BRANCH  27  29
ATOM     29  C   UNL     1      -0.991  -4.847  -6.942  0.00  0.00    +0.059 A 
ATOM     30  C   UNL     1      -1.565  -3.580  -7.057  0.00  0.00    +0.015 A 
ATOM     31  C   UNL     1      -2.284  -3.252  -8.188  0.00  0.00    +0.001 A 
ATOM     32  C   UNL     1      -2.436  -4.176  -9.207  0.00  0.00    +0.000 A 
ATOM     33  C   UNL     1      -1.870  -5.434  -9.099  0.00  0.00    +0.001 A 
ATOM     34  C   UNL     1      -1.143  -5.773  -7.976  0.00  0.00    +0.015 A 
ENDBRANCH  27  29
ENDBRANCH  26  27
ENDBRANCH  17  26
BRANCH  16  35
ATOM     35  O   UNL     1       2.287  -3.597  -5.015  0.00  0.00    -0.457 OA
BRANCH  35  36
ATOM     36  C   UNL     1       2.363  -4.204  -6.209  0.00  0.00    +0.304 C 
ATOM     37  O   UNL     1       2.324  -5.410  -6.277  0.00  0.00    -0.251 OA
ATOM     38  C   UNL     1       2.497  -3.383  -7.465  0.00  0.00    +0.136 C 
ENDBRANCH  35  36
ENDBRANCH  16  35
TORSDOF 7
