REMARK  Name = ZINC20344250
REMARK  9 active torsions:
REMARK  status: ('A' for Active; 'I' for Inactive)
REMARK    1  A    between atoms: C_1  and  C_2
REMARK    2  A    between atoms: C_4  and  O_5
REMARK    3  A    between atoms: N_13  and  C_14
REMARK    4  A    between atoms: C_14  and  N_16
REMARK    5  A    between atoms: N_16  and  C_17
REMARK    6  A    between atoms: C_17  and  C_19
REMARK    7  A    between atoms: C_17  and  C_20
REMARK    8  A    between atoms: C_20  and  N_21
REMARK    9  A    between atoms: C_24  and  C_27
REMARK                            x       y       z     vdW  Elec       q    Type
REMARK                         _______ _______ _______ _____ _____    ______ ____
ROOT
ATOM      1  C   UNL     1      -2.756   2.149 -10.858  0.00  0.00    +0.045 C 
ATOM      2  C   UNL     1      -1.458   2.914 -10.830  0.00  0.00    -0.033 A 
ATOM      3  C   UNL     1      -0.857   3.312 -11.982  0.00  0.00    +0.091 A 
ATOM      4  C   UNL     1       0.356   4.028 -11.929  0.00  0.00    +0.285 A 
ATOM      5  O   UNL     1       0.945   4.333 -10.761  0.00  0.00    -0.425 OA
ATOM      6  C   UNL     1       0.400   3.968  -9.581  0.00  0.00    +0.141 A 
ATOM      7  C   UNL     1      -0.811   3.251  -9.560  0.00  0.00    +0.021 A 
ATOM      8  C   UNL     1      -1.380   2.871  -8.339  0.00  0.00    +0.013 A 
ATOM      9  C   UNL     1      -0.754   3.192  -7.170  0.00  0.00    +0.024 A 
ATOM     10  C   UNL     1       0.443   3.908  -7.183  0.00  0.00    +0.036 A 
ATOM     11  C   UNL     1       1.020   4.293  -8.385  0.00  0.00    +0.070 A 
ATOM     12  N   UNL     1       1.068   4.234  -5.980  0.00  0.00    -0.297 N 
ATOM     13  H   UNL     1       2.159   4.134  -5.882  0.00  0.00    +0.154 HD
ENDROOT
BRANCH   4  14
ATOM     14  O   UNL     1       0.885   4.378 -12.969  0.00  0.00    -0.480 OA
ATOM     15  H   UNL     1       1.831   4.937 -12.944  0.00  0.00    +0.295 HD
ENDBRANCH   4  14
BRANCH  12  16
ATOM     16  C   UNL     1       0.335   4.672  -4.937  0.00  0.00    +0.135 C 
ATOM     17  S   UNL     1      -1.341   4.964  -5.131  0.00  0.00    -0.019 S 
BRANCH  16  18
ATOM     18  N   UNL     1       0.921   4.881  -3.742  0.00  0.00    -0.326 N 
ATOM     19  H   UNL     1       1.997   4.694  -3.617  0.00  0.00    +0.148 HD
BRANCH  18  20
ATOM     20  C   UNL     1       0.124   5.357  -2.608  0.00  0.00    +0.052 C 
ATOM     21  C   UNL     1       0.024   6.883  -2.661  0.00  0.00    +0.026 C 
BRANCH  20  22
ATOM     22  C   UNL     1       0.795   4.935  -1.300  0.00  0.00    -0.057 C 
BRANCH  22  23
ATOM     23  N   UNL     1       1.000   3.480  -1.302  0.00  0.00    +0.381 N 
ATOM     24  C   UNL     1       1.848   3.066  -0.177  0.00  0.00    -0.078 C 
ATOM     25  C   UNL     1       2.159   1.572  -0.293  0.00  0.00    -0.016 C 
ATOM     26  C   UNL     1       0.848   0.781  -0.285  0.00  0.00    -0.018 C 
ATOM     27  C   UNL     1      -0.038   1.265  -1.437  0.00  0.00    -0.016 C 
ATOM     28  C   UNL     1      -0.285   2.768  -1.288  0.00  0.00    -0.078 C 
ATOM     29  C   UNL     1       1.149  -0.708  -0.462  0.00  0.00    +0.007 C 
ATOM     30  H   UNL     1       1.522   3.212  -2.232  0.00  0.00    -0.082 HD
ENDBRANCH  22  23
ENDBRANCH  20  22
ENDBRANCH  18  20
ENDBRANCH  16  18
ENDBRANCH  12  16
TORSDOF 6
