REMARK  Name = ZINC22917278
REMARK  6 active torsions:
REMARK  status: ('A' for Active; 'I' for Inactive)
REMARK    1  A    between atoms: C_1  and  N_2
REMARK    2  A    between atoms: N_5  and  C_8
REMARK    3  A    between atoms: C_8  and  C_10
REMARK    4  A    between atoms: C_8  and  C_31
REMARK    5  A    between atoms: C_10  and  N_11
REMARK    6  A    between atoms: C_19  and  C_21
REMARK                            x       y       z     vdW  Elec       q    Type
REMARK                         _______ _______ _______ _____ _____    ______ ____
ROOT
ATOM      1  N   UNL     1      -2.561   3.730   1.401  0.00  0.00    -0.327 N 
ATOM      2  C   UNL     1      -2.974   4.302   2.591  0.00  0.00    +0.131 A 
ATOM      3  C   UNL     1      -3.864   5.414   2.584  0.00  0.00    +0.051 A 
ATOM      4  C   UNL     1      -4.458   6.103   1.438  0.00  0.00    -0.025 A 
ATOM      5  C   UNL     1      -5.279   7.140   1.705  0.00  0.00    -0.004 A 
ATOM      6  S   UNL     1      -5.312   7.261   3.474  0.00  0.00    -0.073 S 
ATOM      7  C   UNL     1      -4.219   5.915   3.853  0.00  0.00    +0.114 A 
ATOM      8  N   UNL     1      -3.751   5.382   4.963  0.00  0.00    -0.220 NA
ATOM      9  C   UNL     1      -2.923   4.346   4.909  0.00  0.00    +0.164 A 
ATOM     10  N   UNL     1      -2.552   3.820   3.746  0.00  0.00    -0.212 NA
ATOM     11  C   UNL     1      -6.004   8.002   0.717  0.00  0.00    +0.043 C 
ATOM     12  C   UNL     1      -5.387   7.772  -0.670  0.00  0.00    +0.005 C 
ATOM     13  C   UNL     1      -5.261   6.264  -0.908  0.00  0.00    +0.005 C 
ATOM     14  C   UNL     1      -4.175   5.684  -0.002  0.00  0.00    +0.037 C 
ATOM     15  H   UNL     1      -2.846   4.188   0.442  0.00  0.00    +0.148 HD
ENDROOT
BRANCH   9  16
ATOM     16  C   UNL     1      -2.407   3.761   6.170  0.00  0.00    +0.037 A 
ATOM     17  C   UNL     1      -2.781   4.296   7.407  0.00  0.00    +0.014 A 
ATOM     18  C   UNL     1      -2.277   3.709   8.555  0.00  0.00    +0.020 A 
ATOM     19  C   UNL     1      -1.417   2.632   8.442  0.00  0.00    +0.111 A 
ATOM     20  N   UNL     1      -1.077   2.153   7.261  0.00  0.00    -0.263 NA
ATOM     21  C   UNL     1      -1.536   2.673   6.141  0.00  0.00    +0.122 A 
ENDBRANCH   9  16
BRANCH   1  22
ATOM     22  C   UNL     1      -1.742   2.515   1.418  0.00  0.00    +0.127 C 
BRANCH  22  23
ATOM     23  C   UNL     1      -1.339   2.152  -0.013  0.00  0.00    +0.110 C 
BRANCH  23  28
ATOM     24  C   UNL     1       2.836  -1.626  -0.453  0.00  0.00    -0.096 C 
ATOM     25  N   UNL     1       1.957  -0.450  -0.475  0.00  0.00    +0.379 N 
ATOM     26  C   UNL     1       0.759  -0.704  -1.289  0.00  0.00    -0.064 C 
ATOM     27  C   UNL     1      -0.090   0.568  -1.353  0.00  0.00    +0.066 C 
ATOM     28  N   UNL     1      -0.459   0.976   0.010  0.00  0.00    -0.297 NA
ATOM     29  C   UNL     1       0.738   1.230   0.824  0.00  0.00    +0.066 C 
ATOM     30  C   UNL     1       1.587  -0.042   0.887  0.00  0.00    -0.064 C 
ATOM     31  H   UNL     1       2.513   0.378  -0.939  0.00  0.00    -0.082 HD
ENDBRANCH  23  28
BRANCH  23  32
ATOM     32  C   UNL     1      -2.573   1.841  -0.820  0.00  0.00    +0.008 A 
ATOM     33  C   UNL     1      -3.241   2.629  -1.697  0.00  0.00    +0.013 A 
ATOM     34  C   UNL     1      -4.360   2.126  -2.333  0.00  0.00    +0.008 A 
ATOM     35  C   UNL     1      -4.756   0.858  -2.062  0.00  0.00    +0.045 A 
ATOM     36  S   UNL     1      -3.530   0.335  -0.874  0.00  0.00    -0.100 S 
ENDBRANCH  23  32
ENDBRANCH  22  23
ENDBRANCH   1  22
TORSDOF 5
