REMARK  Name = ZINC36736416
REMARK  5 active torsions:
REMARK  status: ('A' for Active; 'I' for Inactive)
REMARK    1  A    between atoms: C_1  and  C_2
REMARK    2  A    between atoms: C_3  and  N_9
REMARK    3  A    between atoms: C_4  and  C_8
REMARK    4  A    between atoms: C_10  and  C_12
REMARK    5  A    between atoms: C_18  and  C_20
REMARK                            x       y       z     vdW  Elec       q    Type
REMARK                         _______ _______ _______ _____ _____    ______ ____
ROOT
ATOM      1  N   UNL     1      -0.169  -0.231  -2.406  0.00  0.00    -0.282 N 
ATOM      2  C   UNL     1       0.380  -0.931  -3.419  0.00  0.00    +0.221 C 
ATOM      3  O   UNL     1       0.809  -2.048  -3.221  0.00  0.00    -0.275 OA
ATOM      4  H   UNL     1      -0.586   0.628  -2.580  0.00  0.00    +0.155 HD
ENDROOT
BRANCH   1   7
ATOM      5  C   UNL     1       0.632   1.385   0.088  0.00  0.00    +0.067 C 
ATOM      6  C   UNL     1       0.211  -0.061   0.023  0.00  0.00    +0.054 A 
ATOM      7  C   UNL     1      -0.137  -0.745  -1.096  0.00  0.00    +0.077 A 
ATOM      8  C   UNL     1      -0.459  -2.056  -0.716  0.00  0.00    +0.081 A 
ATOM      9  N   UNL     1      -0.311  -2.157   0.580  0.00  0.00    -0.177 NA
ATOM     10  N   UNL     1       0.116  -0.917   1.073  0.00  0.00    -0.280 N 
ATOM     11  H   UNL     1       0.307  -0.707   2.001  0.00  0.00    +0.189 HD
ATOM     12  C   UNL     1      -0.900  -3.160  -1.642  0.00  0.00    +0.069 C 
ENDBRANCH   1   7
BRANCH   2  13
ATOM     13  C   UNL     1       0.460  -0.326  -4.797  0.00  0.00    +0.093 C 
ATOM     14  C   UNL     1       0.346  -1.429  -5.851  0.00  0.00    +0.040 C 
ATOM     15  C   UNL     1       1.585  -2.275  -5.850  0.00  0.00    -0.030 C 
ATOM     16  C   UNL     1       2.707  -1.917  -5.312  0.00  0.00    -0.030 C 
ATOM     17  C   UNL     1       2.922  -0.610  -4.606  0.00  0.00    +0.042 C 
ATOM     18  C   UNL     1       1.810   0.381  -4.972  0.00  0.00    +0.118 C 
BRANCH  18  19
ATOM     19  C   UNL     1       1.874   1.583  -4.065  0.00  0.00    +0.360 C 
ATOM     20  O   UNL     1       2.947   1.957  -3.623  0.00  0.00    -0.246 OA
ATOM     21  O   UNL     1       0.853   2.182  -3.774  0.00  0.00    -0.246 OA
ENDBRANCH  18  19
ENDBRANCH   2  13
TORSDOF 3
