REMARK  Name = ZINC30153452
REMARK  11 active torsions:
REMARK  status: ('A' for Active; 'I' for Inactive)
REMARK    1  A    between atoms: C_1  and  C_2
REMARK    2  A    between atoms: C_2  and  C_3
REMARK    3  A    between atoms: C_3  and  C_4
REMARK    4  A    between atoms: C_4  and  N_5
REMARK    5  A    between atoms: C_6  and  N_37
REMARK    6  A    between atoms: C_7  and  N_14
REMARK    7  A    between atoms: N_14  and  C_15
REMARK    8  A    between atoms: C_15  and  C_16
REMARK    9  A    between atoms: C_22  and  C_24
REMARK   10  A    between atoms: C_24  and  N_25
REMARK   11  A    between atoms: C_33  and  C_35
REMARK                            x       y       z     vdW  Elec       q    Type
REMARK                         _______ _______ _______ _____ _____    ______ ____
ROOT
ATOM      1  N   UNL     1       2.262   3.585   0.099  0.00  0.00    -0.259 N 
ATOM      2  C   UNL     1       2.585   4.891   0.201  0.00  0.00    +0.238 C 
ATOM      3  O   UNL     1       1.812   5.740  -0.193  0.00  0.00    -0.274 OA
ENDROOT
BRANCH   1   6
ATOM      4  N   UNL     1      -1.151   2.229  -0.032  0.00  0.00    -0.280 N 
ATOM      5  C   UNL     1       0.083   2.585   0.460  0.00  0.00    +0.127 A 
ATOM      6  C   UNL     1       0.988   3.208  -0.376  0.00  0.00    +0.140 A 
ATOM      7  C   UNL     1       0.617   3.462  -1.710  0.00  0.00    +0.277 A 
ATOM      8  O   UNL     1       1.397   4.011  -2.470  0.00  0.00    -0.266 OA
ATOM      9  N   UNL     1      -0.605   3.093  -2.142  0.00  0.00    -0.273 N 
ATOM     10  H   UNL     1      -0.901   3.284  -3.184  0.00  0.00    +0.173 HD
ATOM     11  C   UNL     1      -1.475   2.492  -1.311  0.00  0.00    +0.331 A 
ATOM     12  O   UNL     1      -2.573   2.174  -1.726  0.00  0.00    -0.246 OA
BRANCH   5  13
ATOM     13  N   UNL     1       0.413   2.322   1.768  0.00  0.00    -0.343 N 
ATOM     14  H   UNL     1       1.402   2.609   2.155  0.00  0.00    +0.144 HD
ATOM     15  H   UNL     1      -0.313   1.824   2.428  0.00  0.00    +0.144 HD
ENDBRANCH   5  13
BRANCH   4  16
ATOM     16  C   UNL     1      -2.121   1.567   0.844  0.00  0.00    +0.128 C 
BRANCH  16  17
ATOM     17  C   UNL     1      -2.984   2.623   1.539  0.00  0.00    +0.021 C 
BRANCH  17  19
ATOM     18  C   UNL     1      -4.860   2.986   3.148  0.00  0.00    +0.004 C 
ATOM     19  C   UNL     1      -3.997   1.931   2.454  0.00  0.00    -0.002 C 
ENDBRANCH  17  19
ENDBRANCH  16  17
ENDBRANCH   4  16
ENDBRANCH   1   6
BRANCH   1  20
ATOM     20  C   UNL     1       3.234   2.558   0.481  0.00  0.00    +0.149 C 
BRANCH  20  21
ATOM     21  C   UNL     1       3.996   2.109  -0.739  0.00  0.00    -0.030 A 
ATOM     22  C   UNL     1       3.502   1.085  -1.525  0.00  0.00    +0.005 A 
ATOM     23  C   UNL     1       4.199   0.677  -2.647  0.00  0.00    +0.000 A 
ATOM     24  C   UNL     1       5.395   1.286  -2.977  0.00  0.00    +0.000 A 
ATOM     25  C   UNL     1       5.892   2.306  -2.188  0.00  0.00    +0.000 A 
ATOM     26  C   UNL     1       5.193   2.718  -1.069  0.00  0.00    +0.005 A 
ENDBRANCH  20  21
ENDBRANCH   1  20
BRANCH   2  27
ATOM     27  C   UNL     1       3.906   5.296   0.803  0.00  0.00    +0.201 C 
BRANCH  27  28
ATOM     28  N   UNL     1       3.911   6.745   1.042  0.00  0.00    -0.319 N 
ATOM     29  C   UNL     1       2.686   7.170   1.722  0.00  0.00    +0.106 C 
ATOM     30  C   UNL     1       2.761   8.681   1.971  0.00  0.00    +0.024 C 
ATOM     31  C   UNL     1       3.855   8.933   3.011  0.00  0.00    +0.038 C 
ATOM     32  C   UNL     1       5.097   8.163   2.639  0.00  0.00    -0.023 A 
ATOM     33  C   UNL     1       5.072   7.138   1.710  0.00  0.00    +0.069 A 
ATOM     34  C   UNL     1       6.254   6.453   1.413  0.00  0.00    +0.145 A 
ATOM     35  C   UNL     1       7.436   6.798   2.036  0.00  0.00    +0.043 A 
ATOM     36  C   UNL     1       7.454   7.827   2.960  0.00  0.00    -0.047 A 
ATOM     37  C   UNL     1       6.289   8.505   3.258  0.00  0.00    +0.009 A 
ATOM     38  C   UNL     1       8.744   8.208   3.640  0.00  0.00    +0.044 C 
ATOM     39  F   UNL     1       6.239   5.448   0.511  0.00  0.00    -0.204 F 
ENDBRANCH  27  28
ENDBRANCH   2  27
TORSDOF 9
