REMARK  Name = ZINC00910075
REMARK  10 active torsions:
REMARK  status: ('A' for Active; 'I' for Inactive)
REMARK    1  A    between atoms: C_1  and  C_2
REMARK    2  A    between atoms: C_2  and  C_3
REMARK    3  A    between atoms: C_3  and  C_4
REMARK    4  A    between atoms: C_3  and  C_5
REMARK    5  A    between atoms: C_3  and  N_6
REMARK    6  A    between atoms: C_7  and  C_11
REMARK    7  A    between atoms: C_11  and  C_13
REMARK    8  A    between atoms: C_11  and  N_62
REMARK    9  A    between atoms: C_16  and  C_26
REMARK   10  A    between atoms: C_19  and  C_25
REMARK                            x       y       z     vdW  Elec       q    Type
REMARK                         _______ _______ _______ _____ _____    ______ ____
ROOT
ATOM      1  C   UNL     1       3.532   0.623  -0.117  0.00  0.00    +0.039 C 
ENDROOT
BRANCH   1   2
ATOM      2  C   UNL     1       4.099   0.357   1.254  0.00  0.00    +0.011 A 
ATOM      3  C   UNL     1       4.833   1.312   1.878  0.00  0.00    +0.018 A 
ATOM      4  C   UNL     1       5.367   1.024   3.210  0.00  0.00    +0.002 A 
ATOM      5  C   UNL     1       6.128   1.971   3.905  0.00  0.00    -0.041 A 
ATOM      6  C   UNL     1       6.615   1.670   5.145  0.00  0.00    +0.004 A 
ATOM      7  C   UNL     1       6.362   0.433   5.722  0.00  0.00    +0.005 A 
ATOM      8  C   UNL     1       5.616  -0.515   5.056  0.00  0.00    -0.026 A 
ATOM      9  C   UNL     1       5.109  -0.231   3.792  0.00  0.00    +0.052 A 
ATOM     10  N   UNL     1       4.360  -1.161   3.103  0.00  0.00    -0.322 N 
ATOM     11  H   UNL     1       4.177  -2.052   3.518  0.00  0.00    +0.169 HD
ATOM     12  C   UNL     1       3.870  -0.886   1.881  0.00  0.00    +0.251 A 
ATOM     13  O   UNL     1       3.211  -1.732   1.302  0.00  0.00    -0.268 OA
ATOM     14  C   UNL     1       5.351  -1.854   5.694  0.00  0.00    +0.046 C 
ATOM     15  C   UNL     1       6.408   3.317   3.287  0.00  0.00    +0.044 C 
ENDBRANCH   1   2
BRANCH   1  21
ATOM     16  C   UNL     1       5.437  -0.534  -1.062  0.00  0.00    -0.077 C 
ATOM     17  C   UNL     1       5.853  -1.730  -1.920  0.00  0.00    -0.019 C 
ATOM     18  C   UNL     1       5.316  -1.545  -3.341  0.00  0.00    -0.004 C 
ATOM     19  C   UNL     1       3.794  -1.391  -3.287  0.00  0.00    -0.019 C 
ATOM     20  C   UNL     1       3.437  -0.204  -2.390  0.00  0.00    -0.077 C 
ATOM     21  N   UNL     1       3.961  -0.456  -1.030  0.00  0.00    +0.389 N 
ATOM     22  H   UNL     1       3.588  -1.350  -0.690  0.00  0.00    -0.080 HD
ENDBRANCH   1  21
BRANCH   1  24
ATOM     23  N   UNL     1       1.220   1.697  -0.191  0.00  0.00    -0.225 N 
ATOM     24  C   UNL     1       2.026   0.630  -0.044  0.00  0.00    +0.143 A 
ATOM     25  N   UNL     1       1.248  -0.402   0.174  0.00  0.00    -0.115 NA
ATOM     26  N   UNL     1       0.028   0.010   0.161  0.00  0.00    -0.023 NA
ATOM     27  N   UNL     1       0.007   1.278  -0.059  0.00  0.00    -0.043 NA
BRANCH  23  28
ATOM     28  C   UNL     1       1.640   3.076  -0.453  0.00  0.00    +0.061 C 
ATOM     29  C   UNL     1       2.590   3.539   0.655  0.00  0.00    +0.036 C 
ATOM     30  C   UNL     1       2.359   3.143  -1.801  0.00  0.00    +0.036 C 
BRANCH  28  32
ATOM     31  C   UNL     1       0.850   5.427  -0.757  0.00  0.00    +0.006 C 
ATOM     32  C   UNL     1       0.411   3.987  -0.484  0.00  0.00    +0.026 C 
ENDBRANCH  28  32
ENDBRANCH  23  28
ENDBRANCH   1  24
TORSDOF 5
