REMARK  Name = ZINC05125820
REMARK  7 active torsions:
REMARK  status: ('A' for Active; 'I' for Inactive)
REMARK    1  A    between atoms: C_1  and  C_2
REMARK    2  A    between atoms: C_2  and  C_3
REMARK    3  A    between atoms: C_2  and  C_4
REMARK    4  A    between atoms: C_2  and  C_5
REMARK    5  A    between atoms: C_7  and  C_11
REMARK    6  A    between atoms: N_13  and  N_14
REMARK    7  A    between atoms: C_15  and  C_16
REMARK                            x       y       z     vdW  Elec       q    Type
REMARK                         _______ _______ _______ _____ _____    ______ ____
ROOT
ATOM      1  C   UNL     1       1.888   3.865   1.050  0.00  0.00    +0.281 C 
ATOM      2  O   UNL     1       2.987   3.354   1.149  0.00  0.00    -0.267 OA
ATOM      3  N   UNL     1       0.820   3.109   0.728  0.00  0.00    -0.202 N 
ATOM      4  H   UNL     1      -0.068   3.501   0.720  0.00  0.00    +0.178 HD
ENDROOT
BRANCH   1   7
ATOM      5  C   UNL     1       2.076   7.457   1.675  0.00  0.00    +0.069 A 
ATOM      6  C   UNL     1       2.728   6.230   1.527  0.00  0.00    +0.058 A 
ATOM      7  C   UNL     1       1.724   5.309   1.281  0.00  0.00    +0.122 A 
ATOM      8  N   UNL     1       0.551   6.008   1.302  0.00  0.00    -0.272 N 
ATOM      9  H   UNL     1      -0.357   5.614   1.160  0.00  0.00    +0.189 HD
ATOM     10  N   UNL     1       0.792   7.248   1.533  0.00  0.00    -0.178 NA
BRANCH   5  12
ATOM     11  C   UNL     1       3.406   9.298   0.680  0.00  0.00    +0.017 C 
ATOM     12  C   UNL     1       2.734   8.783   1.955  0.00  0.00    +0.006 C 
ATOM     13  C   UNL     1       1.678   9.789   2.417  0.00  0.00    +0.017 C 
ATOM     14  C   UNL     1       3.787   8.609   3.051  0.00  0.00    +0.017 C 
ENDBRANCH   5  12
ENDBRANCH   1   7
BRANCH   3  15
ATOM     15  N   UNL     1       0.991   1.757   0.405  0.00  0.00    -0.187 NA
ATOM     16  C   UNL     1      -0.019   1.057  -0.016  0.00  0.00    +0.139 C 
BRANCH  16  17
ATOM     17  C   UNL     1      -1.282   1.728  -0.374  0.00  0.00    +0.008 A 
ATOM     18  C   UNL     1      -1.275   3.059  -0.797  0.00  0.00    +0.010 A 
ATOM     19  C   UNL     1      -2.460   3.678  -1.136  0.00  0.00    +0.001 A 
ATOM     20  C   UNL     1      -3.656   2.988  -1.046  0.00  0.00    +0.001 A 
ATOM     21  C   UNL     1      -3.672   1.671  -0.623  0.00  0.00    +0.016 A 
ATOM     22  C   UNL     1      -2.494   1.036  -0.286  0.00  0.00    +0.027 A 
ATOM     23 BR   UNL     1      -2.518  -0.763   0.294  0.00  0.00    -0.050 Br
ENDBRANCH  16  17
ENDBRANCH   3  15
TORSDOF 4
