REMARK  Name = ZINC36752784
REMARK  8 active torsions:
REMARK  status: ('A' for Active; 'I' for Inactive)
REMARK    1  A    between atoms: C_1  and  C_2
REMARK    2  A    between atoms: C_4  and  C_33
REMARK    3  A    between atoms: C_10  and  N_13
REMARK    4  A    between atoms: C_14  and  C_16
REMARK    5  A    between atoms: C_16  and  N_17
REMARK    6  A    between atoms: C_22  and  C_29
REMARK    7  A    between atoms: C_25  and  C_27
REMARK    8  A    between atoms: C_25  and  C_28
REMARK                            x       y       z     vdW  Elec       q    Type
REMARK                         _______ _______ _______ _____ _____    ______ ____
ROOT
ATOM      1  N   UNL     1       0.133  -6.712   4.072  0.00  0.00    -0.283 N 
ATOM      2  C   UNL     1      -0.452  -7.813   3.561  0.00  0.00    +0.235 C 
ATOM      3  O   UNL     1      -0.874  -7.803   2.424  0.00  0.00    -0.274 OA
ATOM      4  H   UNL     1       0.539  -6.743   4.952  0.00  0.00    +0.155 HD
ENDROOT
BRANCH   1  14
ATOM      5  C   UNL     1      -0.452   0.208  -1.607  0.00  0.00    +0.067 C 
ATOM      6  C   UNL     1       0.021  -0.494  -0.361  0.00  0.00    +0.061 A 
ATOM      7  C   UNL     1       0.866   0.048   0.614  0.00  0.00    +0.048 A 
ATOM      8  C   UNL     1       1.055  -0.890   1.571  0.00  0.00    +0.044 A 
ATOM      9  N   UNL     1       0.350  -1.993   1.210  0.00  0.00    -0.219 N 
ATOM     10  N   UNL     1      -0.293  -1.713  -0.002  0.00  0.00    -0.170 NA
ATOM     11  C   UNL     1       0.274  -3.193   1.926  0.00  0.00    +0.154 A 
ATOM     12  C   UNL     1      -0.827  -4.024   1.759  0.00  0.00    +0.050 A 
ATOM     13  C   UNL     1      -0.893  -5.209   2.470  0.00  0.00    +0.028 A 
ATOM     14  C   UNL     1       0.157  -5.524   3.331  0.00  0.00    +0.052 A 
ATOM     15  C   UNL     1       1.224  -4.645   3.446  0.00  0.00    +0.136 A 
ATOM     16  N   UNL     1       1.255  -3.526   2.749  0.00  0.00    -0.234 NA
ATOM     17  C   UNL     1       1.897  -0.738   2.811  0.00  0.00    +0.066 C 
ENDBRANCH   1  14
BRANCH   2  18
ATOM     18  C   UNL     1      -0.582  -9.057   4.402  0.00  0.00    +0.214 C 
BRANCH  18  19
ATOM     19  N   UNL     1      -1.248 -10.105   3.624  0.00  0.00    -0.215 N 
ATOM     20  C   UNL     1      -2.584 -10.290   3.589  0.00  0.00    +0.247 C 
ATOM     21  O   UNL     1      -3.429  -9.646   4.172  0.00  0.00    -0.273 OA
ATOM     22  C   UNL     1      -2.804 -11.469   2.669  0.00  0.00    +0.113 C 
ATOM     23  C   UNL     1      -3.639 -11.054   1.463  0.00  0.00    +0.038 C 
ATOM     24  C   UNL     1      -3.824 -12.254   0.530  0.00  0.00    -0.011 C 
ATOM     25  C   UNL     1      -4.521 -13.385   1.289  0.00  0.00    +0.009 C 
ATOM     26  C   UNL     1      -3.661 -13.806   2.482  0.00  0.00    -0.032 C 
ATOM     27  C   UNL     1      -3.475 -12.612   3.422  0.00  0.00    +0.041 C 
ATOM     28  C   UNL     1      -2.295 -14.281   1.984  0.00  0.00    +0.011 C 
ATOM     29  C   UNL     1      -4.354 -14.944   3.234  0.00  0.00    +0.011 C 
ATOM     30  C   UNL     1      -4.680 -11.840  -0.669  0.00  0.00    +0.007 C 
ATOM     31  N   UNL     1      -1.450 -11.853   2.251  0.00  0.00    -0.285 N 
ATOM     32  C   UNL     1      -0.607 -10.995   2.856  0.00  0.00    +0.310 C 
ATOM     33  O   UNL     1       0.601 -11.027   2.723  0.00  0.00    -0.252 OA
ATOM     34  H   UNL     1      -1.210 -12.579   1.654  0.00  0.00    +0.151 HD
ENDBRANCH  18  19
ENDBRANCH   2  18
TORSDOF 3
