REMARK  Name = ZINC58950095
REMARK  5 active torsions:
REMARK  status: ('A' for Active; 'I' for Inactive)
REMARK    1  A    between atoms: C_1  and  O_2
REMARK    2  A    between atoms: O_2  and  C_3
REMARK    3  A    between atoms: C_3  and  C_5
REMARK    4  A    between atoms: C_6  and  N_26
REMARK    5  A    between atoms: C_18  and  C_20
REMARK                            x       y       z     vdW  Elec       q    Type
REMARK                         _______ _______ _______ _____ _____    ______ ____
ROOT
ATOM      1  C   UNL     1       0.653  -2.004  -1.123  0.00  0.00    +0.106 C 
ATOM      2  C   UNL     1       1.176  -2.599  -2.226  0.00  0.00    +0.197 C 
ATOM      3  O   UNL     1       1.254  -3.935  -2.334  0.00  0.00    -0.425 OA
ATOM      4  C   UNL     1       0.486  -4.722  -1.556  0.00  0.00    +0.214 A 
ATOM      5  C   UNL     1      -0.077  -4.250  -0.413  0.00  0.00    +0.090 A 
ATOM      6  C   UNL     1      -0.872  -5.110   0.368  0.00  0.00    +0.262 A 
ATOM      7  O   UNL     1      -1.387  -4.705   1.396  0.00  0.00    -0.267 OA
ATOM      8  N   UNL     1      -1.060  -6.384  -0.028  0.00  0.00    -0.275 N 
ATOM      9  H   UNL     1      -1.607  -6.980   0.508  0.00  0.00    +0.173 HD
ATOM     10  C   UNL     1      -0.494  -6.835  -1.163  0.00  0.00    +0.329 A 
ATOM     11  O   UNL     1      -0.674  -7.987  -1.505  0.00  0.00    -0.247 OA
ATOM     12  N   UNL     1       0.268  -6.029  -1.924  0.00  0.00    -0.278 N 
ATOM     13  H   UNL     1       0.666  -6.373  -2.739  0.00  0.00    +0.173 HD
ATOM     14  C   UNL     1       0.142  -2.827   0.028  0.00  0.00    +0.108 C 
ENDROOT
BRANCH  14  15
ATOM     15  C   UNL     1       1.148  -2.796   1.149  0.00  0.00    +0.003 A 
ATOM     16  C   UNL     1       0.995  -2.355   2.421  0.00  0.00    +0.013 A 
ATOM     17  C   UNL     1       2.069  -2.424   3.289  0.00  0.00    +0.023 A 
ATOM     18  C   UNL     1       3.244  -2.931   2.841  0.00  0.00    +0.055 A 
ATOM     19  S   UNL     1       2.849  -3.338   1.149  0.00  0.00    -0.085 S 
ATOM     20 BR   UNL     1       4.876  -3.155   3.771  0.00  0.00    -0.043 Br
ENDBRANCH  14  15
BRANCH   2  21
ATOM     21  N   UNL     1       1.635  -1.817  -3.252  0.00  0.00    -0.329 N 
ATOM     22  H   UNL     1       1.655  -0.852  -3.155  0.00  0.00    +0.145 HD
ATOM     23  H   UNL     1       1.941  -2.228  -4.075  0.00  0.00    +0.145 HD
ENDBRANCH   2  21
BRANCH   1  24
ATOM     24  C   UNL     1       0.593  -0.604  -1.053  0.00  0.00    +0.341 C 
ATOM     25  O   UNL     1      -0.458  -0.027  -1.272  0.00  0.00    -0.245 OA
BRANCH  24  27
ATOM     26  C   UNL     1       1.567   1.527  -0.691  0.00  0.00    +0.280 C 
ATOM     27  O   UNL     1       1.700   0.105  -0.744  0.00  0.00    -0.465 OA
ENDBRANCH  24  27
ENDBRANCH   1  24
TORSDOF 4
