REMARK  Name = ZINC09473284
REMARK  13 active torsions:
REMARK  status: ('A' for Active; 'I' for Inactive)
REMARK    1  A    between atoms: C_1  and  C_2
REMARK    2  A    between atoms: C_2  and  C_3
REMARK    3  A    between atoms: C_3  and  C_4
REMARK    4  A    between atoms: C_4  and  C_5
REMARK    5  A    between atoms: C_5  and  N_6
REMARK    6  A    between atoms: C_7  and  C_9
REMARK    7  A    between atoms: C_12  and  C_15
REMARK    8  A    between atoms: C_15  and  N_16
REMARK    9  A    between atoms: C_26  and  S_27
REMARK   10  A    between atoms: S_27  and  C_28
REMARK   11  A    between atoms: C_28  and  C_29
REMARK   12  A    between atoms: N_31  and  C_32
REMARK   13  A    between atoms: C_32  and  C_33
REMARK                            x       y       z     vdW  Elec       q    Type
REMARK                         _______ _______ _______ _____ _____    ______ ____
ROOT
ATOM      1  N   UNL     1       1.170   2.425   0.004  0.00  0.00    -0.283 N 
ATOM      2  C   UNL     1       1.198   3.778   0.011  0.00  0.00    +0.263 A 
ATOM      3  O   UNL     1       2.252   4.388   0.004  0.00  0.00    -0.267 OA
ATOM      4  C   UNL     1      -0.090   4.484   0.027  0.00  0.00    +0.065 A 
ATOM      5  C   UNL     1      -0.168   5.876   0.035  0.00  0.00    +0.015 A 
ATOM      6  C   UNL     1      -1.393   6.482   0.049  0.00  0.00    +0.001 A 
ATOM      7  C   UNL     1      -2.559   5.727   0.056  0.00  0.00    +0.002 A 
ATOM      8  C   UNL     1      -2.512   4.361   0.049  0.00  0.00    +0.028 A 
ATOM      9  C   UNL     1      -1.274   3.712   0.034  0.00  0.00    +0.079 A 
ATOM     10  N   UNL     1      -1.182   2.366   0.021  0.00  0.00    -0.223 NA
ATOM     11  C   UNL     1      -0.022   1.758   0.012  0.00  0.00    +0.173 A 
ENDROOT
BRANCH   1  12
ATOM     12  C   UNL     1       2.426   1.671  -0.012  0.00  0.00    +0.162 C 
BRANCH  12  16
ATOM     13  C   UNL     1       3.610   0.957  -4.058  0.00  0.00    +0.037 A 
ATOM     14  C   UNL     1       4.037   2.109  -3.396  0.00  0.00    +0.013 A 
ATOM     15  C   UNL     1       3.651   2.333  -2.090  0.00  0.00    +0.006 A 
ATOM     16  C   UNL     1       2.843   1.419  -1.438  0.00  0.00    -0.028 A 
ATOM     17  C   UNL     1       2.421   0.273  -2.087  0.00  0.00    +0.006 A 
ATOM     18  C   UNL     1       2.795   0.039  -3.394  0.00  0.00    +0.013 A 
BRANCH  13  20
ATOM     19  N   UNL     1       3.606  -0.403  -6.094  0.00  0.00    -0.311 N 
ATOM     20  C   UNL     1       4.019   0.711  -5.457  0.00  0.00    +0.244 C 
ATOM     21  O   UNL     1       4.729   1.512  -6.033  0.00  0.00    -0.270 OA
ATOM     22  H   UNL     1       3.039  -1.042  -5.635  0.00  0.00    +0.149 HD
BRANCH  19  23
ATOM     23  C   UNL     1       4.011  -0.647  -7.481  0.00  0.00    +0.104 C 
BRANCH  23  24
ATOM     24  C   UNL     1       3.410  -1.969  -7.962  0.00  0.00    +0.019 C 
BRANCH  24  25
ATOM     25  C   UNL     1       3.833  -2.224  -9.410  0.00  0.00    +0.001 C 
BRANCH  25  27
ATOM     26  C   UNL     1       3.656  -3.801 -11.340  0.00  0.00    +0.004 C 
ATOM     27  C   UNL     1       3.233  -3.546  -9.892  0.00  0.00    -0.003 C 
ENDBRANCH  25  27
ENDBRANCH  24  25
ENDBRANCH  23  24
ENDBRANCH  19  23
ENDBRANCH  13  20
ENDBRANCH  12  16
ENDBRANCH   1  12
BRANCH  11  28
ATOM     28  S   UNL     1       0.002  -0.004   0.002  0.00  0.00    -0.078 S 
BRANCH  28  29
ATOM     29  C   UNL     1      -1.776  -0.343   0.017  0.00  0.00    +0.173 C 
BRANCH  29  30
ATOM     30  C   UNL     1      -2.004  -1.832   0.011  0.00  0.00    +0.224 C 
ATOM     31  O   UNL     1      -1.057  -2.590  -0.002  0.00  0.00    -0.275 OA
ATOM     32  N   UNL     1      -3.259  -2.322   0.021  0.00  0.00    -0.308 N 
ATOM     33  H   UNL     1      -4.016  -1.716   0.031  0.00  0.00    +0.149 HD
BRANCH  32  34
ATOM     34  C   UNL     1      -3.481  -3.770   0.015  0.00  0.00    +0.178 C 
BRANCH  34  35
ATOM     35  C   UNL     1      -4.961  -4.052   0.028  0.00  0.00    +0.122 A 
ATOM     36  C   UNL     1      -5.744  -4.193  -1.057  0.00  0.00    +0.046 A 
ATOM     37  C   UNL     1      -7.053  -4.446  -0.587  0.00  0.00    +0.041 A 
ATOM     38  C   UNL     1      -6.992  -4.444   0.757  0.00  0.00    +0.195 A 
ATOM     39  O   UNL     1      -5.721  -4.210   1.124  0.00  0.00    -0.466 OA
ENDBRANCH  34  35
ENDBRANCH  32  34
ENDBRANCH  29  30
ENDBRANCH  28  29
ENDBRANCH  11  28
TORSDOF 12
