REMARK  Name = ZINC13063775
REMARK  13 active torsions:
REMARK  status: ('A' for Active; 'I' for Inactive)
REMARK    1  A    between atoms: C_1  and  C_2
REMARK    2  A    between atoms: C_2  and  C_3
REMARK    3  A    between atoms: C_3  and  C_5
REMARK    4  A    between atoms: C_3  and  N_66
REMARK    5  A    between atoms: N_9  and  C_10
REMARK    6  A    between atoms: C_10  and  C_11
REMARK    7  A    between atoms: C_10  and  C_12
REMARK    8  A    between atoms: C_10  and  C_13
REMARK    9  A    between atoms: C_14  and  C_15
REMARK   10  A    between atoms: C_14  and  N_66
REMARK   11  A    between atoms: C_20  and  C_27
REMARK   12  A    between atoms: C_28  and  C_29
REMARK   13  A    between atoms: C_28  and  N_66
REMARK                            x       y       z     vdW  Elec       q    Type
REMARK                         _______ _______ _______ _____ _____    ______ ____
ROOT
ATOM      1  N   UNL     1      -0.330   3.193   1.180  0.00  0.00    +0.391 N 
ATOM      2  H   UNL     1       0.596   3.626   1.283  0.00  0.00    -0.080 HD
ENDROOT
BRANCH   1   3
ATOM      3  C   UNL     1      -0.211   1.741   1.425  0.00  0.00    +0.003 C 
BRANCH   3   4
ATOM      4  C   UNL     1       0.135   1.512   2.874  0.00  0.00    +0.139 A 
ATOM      5  N   UNL     1       0.999   2.191   3.589  0.00  0.00    -0.115 NA
ATOM      6  N   UNL     1       1.010   1.693   4.777  0.00  0.00    -0.023 NA
ATOM      7  N   UNL     1       0.174   0.716   4.839  0.00  0.00    -0.043 NA
ATOM      8  N   UNL     1      -0.389   0.576   3.687  0.00  0.00    -0.226 N 
BRANCH   8   9
ATOM      9  C   UNL     1      -1.405  -0.417   3.329  0.00  0.00    +0.059 C 
ATOM     10  C   UNL     1      -0.933  -1.214   2.112  0.00  0.00    +0.036 C 
ATOM     11  C   UNL     1      -1.626  -1.367   4.508  0.00  0.00    +0.036 C 
ATOM     12  C   UNL     1      -2.718   0.294   2.995  0.00  0.00    +0.036 C 
ENDBRANCH   8   9
ENDBRANCH   3   4
BRANCH   3  14
ATOM     13  C   UNL     1       2.232   1.845   0.911  0.00  0.00    +0.002 C 
ATOM     14  C   UNL     1       0.905   1.181   0.540  0.00  0.00    -0.011 C 
ENDBRANCH   3  14
ENDBRANCH   1   3
BRANCH   1  15
ATOM     15  C   UNL     1      -0.823   3.436  -0.192  0.00  0.00    -0.036 C 
BRANCH  15  16
ATOM     16  C   UNL     1      -2.209   2.870  -0.363  0.00  0.00    +0.001 A 
ATOM     17  C   UNL     1      -3.291   3.666  -0.175  0.00  0.00    +0.017 A 
ATOM     18  C   UNL     1      -4.624   3.087  -0.353  0.00  0.00    -0.001 A 
ATOM     19  C   UNL     1      -5.778   3.859  -0.179  0.00  0.00    +0.010 A 
ATOM     20  C   UNL     1      -7.007   3.287  -0.348  0.00  0.00    +0.004 A 
ATOM     21  C   UNL     1      -7.122   1.947  -0.691  0.00  0.00    -0.048 A 
ATOM     22  C   UNL     1      -5.999   1.167  -0.868  0.00  0.00    +0.029 A 
ATOM     23  C   UNL     1      -4.737   1.727  -0.701  0.00  0.00    +0.049 A 
ATOM     24  N   UNL     1      -3.597   0.971  -0.872  0.00  0.00    -0.322 N 
ATOM     25  H   UNL     1      -3.676   0.035  -1.112  0.00  0.00    +0.169 HD
ATOM     26  C   UNL     1      -2.377   1.513  -0.712  0.00  0.00    +0.251 A 
ATOM     27  O   UNL     1      -1.391   0.814  -0.871  0.00  0.00    -0.268 OA
ATOM     28  C   UNL     1      -8.488   1.338  -0.872  0.00  0.00    +0.044 C 
ENDBRANCH  15  16
ENDBRANCH   1  15
BRANCH   1  29
ATOM     29  C   UNL     1      -1.254   3.797   2.163  0.00  0.00    -0.045 C 
BRANCH  29  30
ATOM     30  C   UNL     1      -1.047   5.314   2.163  0.00  0.00    +0.102 C 
ATOM     31  C   UNL     1      -1.873   5.968   3.293  0.00  0.00    +0.032 C 
ATOM     32  C   UNL     1      -2.365   7.297   2.677  0.00  0.00    +0.030 C 
ATOM     33  C   UNL     1      -1.779   7.288   1.247  0.00  0.00    +0.160 C 
ATOM     34  O   UNL     1      -1.565   5.892   0.945  0.00  0.00    -0.378 OA
ENDBRANCH  29  30
ENDBRANCH   1  29
TORSDOF 8
