REMARK  Name = ZINC64976502
REMARK  9 active torsions:
REMARK  status: ('A' for Active; 'I' for Inactive)
REMARK    1  A    between atoms: C_1  and  C_2
REMARK    2  A    between atoms: C_2  and  C_3
REMARK    3  A    between atoms: C_3  and  N_4
REMARK    4  A    between atoms: N_4  and  C_5
REMARK    5  A    between atoms: N_4  and  S_8
REMARK    6  A    between atoms: C_5  and  C_6
REMARK    7  A    between atoms: C_6  and  C_7
REMARK    8  A    between atoms: S_8  and  C_11
REMARK    9  A    between atoms: C_20  and  C_21
REMARK                            x       y       z     vdW  Elec       q    Type
REMARK                         _______ _______ _______ _____ _____    ______ ____
ROOT
ATOM      1  C   UNL     1       1.643  -3.090   1.209  0.00  0.00    +0.110 A 
ATOM      2  C   UNL     1       2.354  -2.555   2.225  0.00  0.00    +0.054 A 
ATOM      3  C   UNL     1       1.952  -2.821   3.605  0.00  0.00    +0.058 A 
ATOM      4  N   UNL     1       2.404  -2.471   4.782  0.00  0.00    -0.267 N 
ATOM      5  C   UNL     1       1.599  -3.038   5.743  0.00  0.00    +0.308 C 
ATOM      6  O   UNL     1       1.746  -2.909   6.940  0.00  0.00    -0.252 OA
ATOM      7  N   UNL     1       0.604  -3.771   5.142  0.00  0.00    -0.268 N 
ATOM      8  C   UNL     1       0.753  -3.687   3.844  0.00  0.00    +0.056 A 
ATOM      9  C   UNL     1       0.042  -4.225   2.687  0.00  0.00    +0.030 A 
ATOM     10  C   UNL     1       0.472  -3.928   1.442  0.00  0.00    -0.022 A 
ATOM     11  C   UNL     1      -0.275  -4.484   0.258  0.00  0.00    +0.046 C 
ATOM     12  H   UNL     1       3.177  -1.908   4.949  0.00  0.00    +0.156 HD
ATOM     13  H   UNL     1      -0.091  -4.267   5.602  0.00  0.00    +0.156 HD
ENDROOT
BRANCH   1  14
ATOM     14  S   UNL     1       2.140  -2.759  -0.449  0.00  0.00    +0.061 S 
ATOM     15  O   UNL     1       2.125  -4.005  -1.133  0.00  0.00    -0.153 OA
ATOM     16  O   UNL     1       3.304  -1.948  -0.369  0.00  0.00    -0.153 OA
BRANCH  14  17
ATOM     17  N   UNL     1       0.959  -1.826  -1.138  0.00  0.00    -0.177 NA
BRANCH  17  18
ATOM     18  C   UNL     1       0.752  -0.450  -0.680  0.00  0.00    +0.109 C 
BRANCH  18  20
ATOM     19  C   UNL     1      -0.512   0.994   0.920  0.00  0.00    +0.005 C 
ATOM     20  C   UNL     1      -0.377  -0.421   0.353  0.00  0.00    +0.014 C 
ENDBRANCH  18  20
ENDBRANCH  17  18
BRANCH  17  21
ATOM     21  C   UNL     1       0.120  -2.377  -2.206  0.00  0.00    +0.109 C 
BRANCH  21  22
ATOM     22  C   UNL     1       0.707  -1.992  -3.565  0.00  0.00    +0.014 C 
ATOM     23  C   UNL     1      -0.169  -2.567  -4.680  0.00  0.00    +0.005 C 
ENDBRANCH  21  22
ENDBRANCH  17  21
ENDBRANCH  14  17
ENDBRANCH   1  14
TORSDOF 6
