REMARK  Name = ZINC52343977
REMARK  7 active torsions:
REMARK  status: ('A' for Active; 'I' for Inactive)
REMARK    1  A    between atoms: C_1  and  C_2
REMARK    2  A    between atoms: C_2  and  C_4
REMARK    3  A    between atoms: C_2  and  N_10
REMARK    4  A    between atoms: N_10  and  S_11
REMARK    5  A    between atoms: S_11  and  C_14
REMARK    6  A    between atoms: C_19  and  N_20
REMARK    7  A    between atoms: N_20  and  N_21
REMARK                            x       y       z     vdW  Elec       q    Type
REMARK                         _______ _______ _______ _____ _____    ______ ____
ROOT
ATOM      1  S   UNL     1      -0.127  -0.790   2.625  0.00  0.00    +0.062 S 
ATOM      2  O   UNL     1       0.751  -1.128   3.691  0.00  0.00    -0.153 OA
ATOM      3  O   UNL     1      -1.010   0.321   2.690  0.00  0.00    -0.153 OA
ENDROOT
BRANCH   1   4
ATOM      4  C   UNL     1      -1.124  -2.211   2.325  0.00  0.00    +0.147 A 
ATOM      5  C   UNL     1      -2.500  -2.095   2.235  0.00  0.00    +0.048 A 
ATOM      6  C   UNL     1      -3.247  -3.242   1.998  0.00  0.00    +0.038 A 
ATOM      7  C   UNL     1      -2.600  -4.454   1.859  0.00  0.00    +0.128 A 
ATOM      8  N   UNL     1      -1.286  -4.534   1.950  0.00  0.00    -0.236 NA
ATOM      9  C   UNL     1      -0.539  -3.463   2.170  0.00  0.00    +0.159 A 
ATOM     10 BR   UNL     1      -5.131  -3.144   1.866  0.00  0.00    -0.049 Br
BRANCH   9  11
ATOM     11  N   UNL     1       0.843  -3.592   2.251  0.00  0.00    -0.266 N 
ATOM     12  H   UNL     1       1.400  -2.802   2.332  0.00  0.00    +0.167 HD
BRANCH  11  13
ATOM     13  N   UNL     1       1.416  -4.832   2.218  0.00  0.00    -0.255 NA
ATOM     14  H   UNL     1       2.421  -4.768   2.286  0.00  0.00    +0.140 HD
ATOM     15  H   UNL     1       1.042  -5.423   2.944  0.00  0.00    +0.140 HD
ENDBRANCH  11  13
ENDBRANCH   9  11
ENDBRANCH   1   4
BRANCH   1  16
ATOM     16  N   UNL     1       0.820  -0.565   1.286  0.00  0.00    -0.187 NA
ATOM     17  H   UNL     1       1.784  -0.652   1.352  0.00  0.00    +0.148 HD
BRANCH  16  19
ATOM     18  C   UNL     1       0.224   1.284  -0.200  0.00  0.00    +0.026 C 
ATOM     19  C   UNL     1       0.202  -0.232  -0.001  0.00  0.00    +0.077 C 
BRANCH  19  20
ATOM     20  C   UNL     1       0.983  -0.907  -1.131  0.00  0.00    +0.007 C 
ATOM     21  C   UNL     1       2.430  -0.411  -1.117  0.00  0.00    +0.005 C 
ATOM     22  C   UNL     1       3.210  -1.086  -2.247  0.00  0.00    +0.000 C 
ATOM     23  C   UNL     1       2.565  -0.739  -3.591  0.00  0.00    +0.000 C 
ATOM     24  C   UNL     1       1.117  -1.234  -3.604  0.00  0.00    +0.000 C 
ATOM     25  C   UNL     1       0.337  -0.560  -2.474  0.00  0.00    +0.005 C 
ENDBRANCH  19  20
ENDBRANCH  16  19
ENDBRANCH   1  16
TORSDOF 6
