REMARK  Name = ZINC13064968
REMARK  11 active torsions:
REMARK  status: ('A' for Active; 'I' for Inactive)
REMARK    1  A    between atoms: C_1  and  C_2
REMARK    2  A    between atoms: C_2  and  C_3
REMARK    3  A    between atoms: C_3  and  C_5
REMARK    4  A    between atoms: C_3  and  N_66
REMARK    5  A    between atoms: N_9  and  C_10
REMARK    6  A    between atoms: C_10  and  C_11
REMARK    7  A    between atoms: C_16  and  C_17
REMARK    8  A    between atoms: C_16  and  N_66
REMARK    9  A    between atoms: C_20  and  C_30
REMARK   10  A    between atoms: C_22  and  C_29
REMARK   11  A    between atoms: C_31  and  N_66
REMARK                            x       y       z     vdW  Elec       q    Type
REMARK                         _______ _______ _______ _____ _____    ______ ____
ROOT
ATOM      1  N   UNL     1      -1.787   1.022   1.616  0.00  0.00    +0.391 N 
ATOM      2  H   UNL     1      -1.355   0.127   1.875  0.00  0.00    -0.080 HD
ENDROOT
BRANCH   1   3
ATOM      3  C   UNL     1      -2.568   1.528   2.765  0.00  0.00    -0.067 C 
ATOM      4  C   UNL     1      -1.610   2.030   3.865  0.00  0.00    -0.015 C 
ATOM      5  C   UNL     1      -2.291   1.597   5.187  0.00  0.00    -0.002 C 
ATOM      6  C   UNL     1      -2.881   0.210   4.830  0.00  0.00    -0.002 C 
ATOM      7  C   UNL     1      -3.376   0.372   3.378  0.00  0.00    -0.015 C 
ENDBRANCH   1   3
BRANCH   1   8
ATOM      8  C   UNL     1      -0.721   1.985   1.266  0.00  0.00    +0.003 C 
BRANCH   8   9
ATOM      9  C   UNL     1       0.324   1.272   0.448  0.00  0.00    +0.139 A 
ATOM     10  N   UNL     1       0.110   0.438  -0.540  0.00  0.00    -0.115 NA
ATOM     11  N   UNL     1       1.254   0.044  -0.983  0.00  0.00    -0.023 NA
ATOM     12  N   UNL     1       2.192   0.599  -0.298  0.00  0.00    -0.044 NA
ATOM     13  N   UNL     1       1.659   1.364   0.594  0.00  0.00    -0.223 N 
BRANCH  13  14
ATOM     14  C   UNL     1       2.373   2.178   1.581  0.00  0.00    +0.221 C 
BRANCH  14  15
ATOM     15  C   UNL     1       2.592   1.371   2.834  0.00  0.00    +0.126 A 
ATOM     16  C   UNL     1       3.657   0.590   3.091  0.00  0.00    +0.046 A 
ATOM     17  C   UNL     1       3.453   0.027   4.371  0.00  0.00    +0.041 A 
ATOM     18  C   UNL     1       2.272   0.491   4.818  0.00  0.00    +0.195 A 
ATOM     19  O   UNL     1       1.755   1.305   3.882  0.00  0.00    -0.466 OA
ENDBRANCH  14  15
ENDBRANCH  13  14
ENDBRANCH   8   9
BRANCH   8  21
ATOM     20  C   UNL     1      -2.236   3.971   1.341  0.00  0.00    +0.002 C 
ATOM     21  C   UNL     1      -1.297   3.149   0.456  0.00  0.00    -0.011 C 
ENDBRANCH   8  21
ENDBRANCH   1   8
BRANCH   1  22
ATOM     22  C   UNL     1      -2.676   0.809   0.455  0.00  0.00    -0.036 C 
BRANCH  22  23
ATOM     23  C   UNL     1      -3.490  -0.437   0.692  0.00  0.00    +0.001 A 
ATOM     24  C   UNL     1      -4.768  -0.336   1.134  0.00  0.00    +0.017 A 
ATOM     25  C   UNL     1      -5.533  -1.565   1.350  0.00  0.00    +0.002 A 
ATOM     26  C   UNL     1      -6.857  -1.524   1.800  0.00  0.00    -0.041 A 
ATOM     27  C   UNL     1      -7.542  -2.689   1.996  0.00  0.00    +0.007 A 
ATOM     28  C   UNL     1      -6.936  -3.915   1.752  0.00  0.00    -0.048 A 
ATOM     29  C   UNL     1      -5.633  -3.979   1.309  0.00  0.00    +0.029 A 
ATOM     30  C   UNL     1      -4.915  -2.805   1.102  0.00  0.00    +0.050 A 
ATOM     31  N   UNL     1      -3.610  -2.841   0.658  0.00  0.00    -0.322 N 
ATOM     32  H   UNL     1      -3.186  -3.696   0.488  0.00  0.00    +0.169 HD
ATOM     33  C   UNL     1      -2.917  -1.706   0.458  0.00  0.00    +0.251 A 
ATOM     34  O   UNL     1      -1.766  -1.775   0.065  0.00  0.00    -0.268 OA
ATOM     35  C   UNL     1      -7.712  -5.188   1.975  0.00  0.00    +0.044 C 
ATOM     36  C   UNL     1      -7.524  -0.200   2.068  0.00  0.00    +0.044 C 
ENDBRANCH  22  23
ENDBRANCH   1  22
TORSDOF 8
