REMARK  Name = ZINC14920823
REMARK  7 active torsions:
REMARK  status: ('A' for Active; 'I' for Inactive)
REMARK    1  A    between atoms: C_5  and  N_7
REMARK    2  A    between atoms: N_7  and  C_8
REMARK    3  A    between atoms: C_8  and  C_9
REMARK    4  A    between atoms: N_11  and  N_12
REMARK    5  A    between atoms: C_13  and  C_14
REMARK    6  A    between atoms: C_16  and  N_26
REMARK    7  A    between atoms: C_19  and  N_20
REMARK                            x       y       z     vdW  Elec       q    Type
REMARK                         _______ _______ _______ _____ _____    ______ ____
ROOT
ATOM      1  N   UNL     1      -0.966   1.736  -3.578  0.00  0.00    -0.188 NA
ATOM      2  C   UNL     1      -0.530   1.435  -4.763  0.00  0.00    +0.140 C 
ENDROOT
BRANCH   2   3
ATOM      3  C   UNL     1      -1.242   1.923  -5.957  0.00  0.00    +0.018 A 
ATOM      4  C   UNL     1      -0.776   1.602  -7.233  0.00  0.00    +0.044 A 
ATOM      5  C   UNL     1      -1.448   2.062  -8.347  0.00  0.00    +0.127 A 
ATOM      6  C   UNL     1      -2.583   2.841  -8.205  0.00  0.00    +0.034 A 
ATOM      7  C   UNL     1      -3.056   3.167  -6.949  0.00  0.00    +0.026 A 
ATOM      8  C   UNL     1      -2.396   2.709  -5.817  0.00  0.00    +0.039 A 
BRANCH   8   9
ATOM      9  N   UNL     1      -2.875   3.032  -4.549  0.00  0.00    -0.329 N 
ATOM     10  C   UNL     1      -4.199   2.440  -4.320  0.00  0.00    +0.105 C 
ATOM     11  C   UNL     1      -4.627   2.692  -2.872  0.00  0.00    +0.019 C 
ATOM     12  C   UNL     1      -4.670   4.200  -2.613  0.00  0.00    +0.003 C 
ATOM     13  C   UNL     1      -3.292   4.800  -2.906  0.00  0.00    +0.019 C 
ATOM     14  C   UNL     1      -2.902   4.487  -4.352  0.00  0.00    +0.105 C 
ENDBRANCH   8   9
BRANCH   5  15
ATOM     15  N   UNL     1      -0.952   1.720  -9.699  0.00  0.00    +0.056 N 
ATOM     16  O   UNL     1       0.046   1.034  -9.826  0.00  0.00    -0.126 OA
ATOM     17  O   UNL     1      -1.543   2.125 -10.684  0.00  0.00    -0.126 OA
ENDBRANCH   5  15
ENDBRANCH   2   3
BRANCH   1  20
ATOM     18  C   UNL     1      -0.742   1.585  -1.213  0.00  0.00    +0.249 C 
ATOM     19  O   UNL     1      -1.736   2.268  -1.088  0.00  0.00    -0.272 OA
ATOM     20  N   UNL     1      -0.288   1.272  -2.443  0.00  0.00    -0.206 N 
ATOM     21  H   UNL     1       0.507   0.726  -2.543  0.00  0.00    +0.177 HD
BRANCH  18  22
ATOM     22  C   UNL     1      -0.013   1.086   0.008  0.00  0.00    +0.199 C 
BRANCH  22  23
ATOM     23  N   UNL     1      -0.698   1.558   1.213  0.00  0.00    -0.335 N 
ATOM     24  H   UNL     1      -1.495   2.106   1.135  0.00  0.00    +0.147 HD
BRANCH  23  29
ATOM     25  C   UNL     1       1.422   0.104   3.839  0.00  0.00    +0.002 A 
ATOM     26  C   UNL     1       0.774   0.551   4.976  0.00  0.00    +0.001 A 
ATOM     27  C   UNL     1      -0.362   1.332   4.867  0.00  0.00    +0.016 A 
ATOM     28  C   UNL     1      -0.854   1.668   3.620  0.00  0.00    +0.034 A 
ATOM     29  C   UNL     1      -0.204   1.220   2.476  0.00  0.00    +0.041 A 
ATOM     30  C   UNL     1       0.933   0.432   2.590  0.00  0.00    +0.024 A 
ATOM     31  I   UNL     1      -2.576   2.849   3.455  0.00  0.00    -0.042 I 
ENDBRANCH  23  29
ENDBRANCH  22  23
ENDBRANCH  18  22
ENDBRANCH   1  20
TORSDOF 7
