REMARK  Name = ZINC15708430
REMARK  8 active torsions:
REMARK  status: ('A' for Active; 'I' for Inactive)
REMARK    1  A    between atoms: C_2  and  C_3
REMARK    2  A    between atoms: C_3  and  N_4
REMARK    3  A    between atoms: C_5  and  C_7
REMARK    4  A    between atoms: C_7  and  C_8
REMARK    5  A    between atoms: C_8  and  C_9
REMARK    6  A    between atoms: C_18  and  N_21
REMARK    7  A    between atoms: N_21  and  S_22
REMARK    8  A    between atoms: S_22  and  C_25
REMARK                            x       y       z     vdW  Elec       q    Type
REMARK                         _______ _______ _______ _____ _____    ______ ____
ROOT
ATOM      1  C   UNL     1       0.002  -0.004   0.003  0.00  0.00    -0.050 C 
ATOM      2  C   UNL     1       0.557  -0.557   1.324  0.00  0.00    +0.089 C 
ATOM      3  N   UNL     1       1.666   0.240   1.830  0.00  0.00    -0.318 N 
ATOM      4  C   UNL     1       2.035   1.438   1.337  0.00  0.00    +0.200 C 
ATOM      5  O   UNL     1       2.901   2.088   1.884  0.00  0.00    -0.278 OA
ATOM      6  C   UNL     1       1.364   1.955   0.107  0.00  0.00    +0.021 C 
ATOM      7  C   UNL     1      -0.688   2.213  -0.945  0.00  0.00    -0.057 C 
ATOM      8  C   UNL     1      -0.156   3.656  -0.719  0.00  0.00    +0.059 C 
ATOM      9  C   UNL     1       1.189   3.472   0.033  0.00  0.00    +0.012 C 
ATOM     10  H   UNL     1       2.175  -0.116   2.575  0.00  0.00    +0.149 HD
ATOM     11  N   UNL     1       0.009   1.497   0.142  0.00  0.00    +0.391 N 
ATOM     12  H   UNL     1      -0.427   1.743   1.038  0.00  0.00    -0.080 HD
ENDROOT
BRANCH   8  13
ATOM     13  N   UNL     1      -1.097   4.426   0.100  0.00  0.00    -0.189 NA
ATOM     14  H   UNL     1      -1.101   4.319   1.064  0.00  0.00    +0.148 HD
BRANCH  13  15
ATOM     15  S   UNL     1      -2.153   5.478  -0.621  0.00  0.00    +0.059 S 
ATOM     16  O   UNL     1      -2.938   6.042   0.420  0.00  0.00    -0.153 OA
ATOM     17  O   UNL     1      -1.387   6.274  -1.514  0.00  0.00    -0.153 OA
BRANCH  15  18
ATOM     18  C   UNL     1      -3.248   4.519  -1.614  0.00  0.00    +0.105 A 
ATOM     19  C   UNL     1      -2.934   4.259  -2.935  0.00  0.00    +0.031 A 
ATOM     20  C   UNL     1      -3.789   3.502  -3.713  0.00  0.00    +0.040 A 
ATOM     21  C   UNL     1      -4.966   3.013  -3.172  0.00  0.00    +0.124 A 
ATOM     22  C   UNL     1      -5.282   3.279  -1.851  0.00  0.00    +0.040 A 
ATOM     23  C   UNL     1      -4.423   4.031  -1.073  0.00  0.00    +0.031 A 
ATOM     24  F   UNL     1      -5.806   2.278  -3.933  0.00  0.00    -0.205 F 
ENDBRANCH  15  18
ENDBRANCH  13  15
ENDBRANCH   8  13
BRANCH   1  25
ATOM     25  C   UNL     1      -1.411  -0.542  -0.233  0.00  0.00    -0.005 C 
BRANCH  25  26
ATOM     26  C   UNL     1      -1.347  -2.049  -0.488  0.00  0.00    +0.094 C 
BRANCH  26  28
ATOM     27  N   UNL     1      -2.907  -3.866  -1.108  0.00  0.00    -0.304 N 
ATOM     28  C   UNL     1      -2.721  -2.558  -0.840  0.00  0.00    +0.214 C 
ATOM     29  O   UNL     1      -3.659  -1.790  -0.883  0.00  0.00    -0.276 OA
ATOM     30  H   UNL     1      -2.157  -4.479  -1.073  0.00  0.00    +0.150 HD
BRANCH  27  31
ATOM     31  C   UNL     1      -4.243  -4.360  -1.450  0.00  0.00    +0.193 C 
BRANCH  31  33
ATOM     32  C   UNL     1      -4.132  -6.967  -1.891  0.00  0.00    +0.005 C 
ATOM     33  C   UNL     1      -4.181  -5.810  -1.696  0.00  0.00    -0.087 C 
ENDBRANCH  31  33
ENDBRANCH  27  31
ENDBRANCH  26  28
ENDBRANCH  25  26
ENDBRANCH   1  25
TORSDOF 8
