REMARK  Name = ZINC10440128
REMARK  10 active torsions:
REMARK  status: ('A' for Active; 'I' for Inactive)
REMARK    1  A    between atoms: C_1  and  C_2
REMARK    2  A    between atoms: C_2  and  C_3
REMARK    3  A    between atoms: C_10  and  C_12
REMARK    4  A    between atoms: C_15  and  S_18
REMARK    5  A    between atoms: N_16  and  C_17
REMARK    6  A    between atoms: S_18  and  C_19
REMARK    7  A    between atoms: C_19  and  C_20
REMARK    8  A    between atoms: N_22  and  C_23
REMARK    9  A    between atoms: C_27  and  N_30
REMARK   10  A    between atoms: C_28  and  C_29
REMARK                            x       y       z     vdW  Elec       q    Type
REMARK                         _______ _______ _______ _____ _____    ______ ____
ROOT
ATOM      1  C   UNL     1      -2.404   9.556   2.616  0.00  0.00    +0.171 A 
ATOM      2  N   UNL     1      -1.120   9.393   2.386  0.00  0.00    -0.128 NA
ATOM      3  N   UNL     1      -0.887   8.177   2.042  0.00  0.00    -0.122 NA
ATOM      4  C   UNL     1      -2.007   7.490   2.022  0.00  0.00    +0.192 A 
ATOM      5  N   UNL     1      -3.012   8.341   2.390  0.00  0.00    -0.305 N 
ATOM      6  C   UNL     1      -4.437   8.026   2.517  0.00  0.00    +0.153 C 
ENDROOT
BRANCH   1  13
ATOM      7  C   UNL     1      -3.939  15.080   5.122  0.00  0.00    -0.007 C 
ATOM      8  C   UNL     1      -5.118  15.222   4.154  0.00  0.00    +0.009 C 
ATOM      9  C   UNL     1      -5.758  13.840   3.952  0.00  0.00    +0.043 C 
ATOM     10  C   UNL     1      -4.669  12.854   3.677  0.00  0.00    -0.006 A 
ATOM     11  C   UNL     1      -3.330  13.019   3.876  0.00  0.00    -0.036 A 
ATOM     12  C   UNL     1      -2.513  11.945   3.544  0.00  0.00    +0.023 A 
ATOM     13  C   UNL     1      -3.067  10.801   3.036  0.00  0.00    +0.057 A 
ATOM     14  S   UNL     1      -4.806  11.212   3.023  0.00  0.00    -0.090 S 
ATOM     15  C   UNL     1      -2.793  14.330   4.443  0.00  0.00    +0.039 C 
BRANCH   7  17
ATOM     16  C   UNL     1      -2.374  16.332   6.613  0.00  0.00    +0.004 C 
ATOM     17  C   UNL     1      -3.458  16.470   5.542  0.00  0.00    +0.000 C 
ENDBRANCH   7  17
ENDBRANCH   1  13
BRANCH   4  18
ATOM     18  S   UNL     1      -2.180   5.786   1.607  0.00  0.00    -0.077 S 
BRANCH  18  19
ATOM     19  C   UNL     1      -0.455   5.374   1.247  0.00  0.00    +0.173 C 
BRANCH  19  20
ATOM     20  C   UNL     1      -0.356   3.921   0.857  0.00  0.00    +0.227 C 
ATOM     21  O   UNL     1      -1.355   3.233   0.825  0.00  0.00    -0.275 OA
ATOM     22  N   UNL     1       0.841   3.387   0.543  0.00  0.00    -0.285 N 
ATOM     23  H   UNL     1       1.629   3.951   0.508  0.00  0.00    +0.155 HD
BRANCH  22  24
ATOM     24  C   UNL     1       0.946   2.019   0.268  0.00  0.00    +0.038 A 
ATOM     25  C   UNL     1      -0.102   1.351  -0.352  0.00  0.00    +0.024 A 
ATOM     26  C   UNL     1       0.005   0.002  -0.622  0.00  0.00    +0.004 A 
ATOM     27  C   UNL     1       1.155  -0.685  -0.276  0.00  0.00    +0.033 A 
ATOM     28  C   UNL     1       2.200  -0.023   0.342  0.00  0.00    +0.131 A 
ATOM     29  C   UNL     1       2.099   1.327   0.614  0.00  0.00    +0.001 A 
ATOM     30  C   UNL     1       3.238   2.048   1.288  0.00  0.00    +0.048 C 
BRANCH  28  31
ATOM     31  N   UNL     1       3.428  -0.762   0.711  0.00  0.00    +0.057 N 
ATOM     32  O   UNL     1       3.467  -1.974   0.596  0.00  0.00    -0.126 OA
ATOM     33  O   UNL     1       4.399  -0.159   1.131  0.00  0.00    -0.126 OA
ENDBRANCH  28  31
ENDBRANCH  22  24
ENDBRANCH  19  20
ENDBRANCH  18  19
ENDBRANCH   4  18
TORSDOF 7
