REMARK  Name = ZINC42175863
REMARK  6 active torsions:
REMARK  status: ('A' for Active; 'I' for Inactive)
REMARK    1  A    between atoms: C_1  and  C_2
REMARK    2  A    between atoms: C_2  and  N_3
REMARK    3  A    between atoms: C_7  and  C_9
REMARK    4  A    between atoms: C_9  and  N_10
REMARK    5  A    between atoms: C_13  and  C_17
REMARK    6  A    between atoms: C_13  and  C_18
REMARK                            x       y       z     vdW  Elec       q    Type
REMARK                         _______ _______ _______ _____ _____    ______ ____
ROOT
ATOM      1  N   UNL     1      -4.610  -5.532  -0.662  0.00  0.00    -0.215 N 
ATOM      2  C   UNL     1      -4.611  -6.583  -1.506  0.00  0.00    +0.251 C 
ATOM      3  O   UNL     1      -4.712  -6.551  -2.714  0.00  0.00    -0.272 OA
ATOM      4  C   UNL     1      -4.460  -7.812  -0.631  0.00  0.00    +0.140 C 
ATOM      5  N   UNL     1      -4.383  -7.259   0.732  0.00  0.00    -0.281 N 
ATOM      6  C   UNL     1      -4.475  -5.922   0.611  0.00  0.00    +0.310 C 
ATOM      7  O   UNL     1      -4.443  -5.155   1.553  0.00  0.00    -0.252 OA
ATOM      8  C   UNL     1      -3.174  -8.565  -0.980  0.00  0.00    +0.047 C 
ATOM      9  H   UNL     1      -4.284  -7.761   1.556  0.00  0.00    +0.152 HD
ENDROOT
BRANCH   4  10
ATOM     10  C   UNL     1      -5.659  -8.714  -0.772  0.00  0.00    +0.055 A 
ATOM     11  C   UNL     1      -6.699  -8.629   0.137  0.00  0.00    +0.132 A 
ATOM     12  C   UNL     1      -7.800  -9.459   0.007  0.00  0.00    +0.039 A 
ATOM     13  C   UNL     1      -7.861 -10.370  -1.030  0.00  0.00    +0.006 A 
ATOM     14  C   UNL     1      -6.822 -10.456  -1.938  0.00  0.00    +0.039 A 
ATOM     15  C   UNL     1      -5.723  -9.623  -1.813  0.00  0.00    +0.132 A 
ATOM     16  F   UNL     1      -4.711  -9.703  -2.704  0.00  0.00    -0.205 F 
ATOM     17  F   UNL     1      -6.640  -7.739   1.151  0.00  0.00    -0.205 F 
ENDBRANCH   4  10
BRANCH   1  18
ATOM     18  C   UNL     1      -4.735  -4.136  -1.085  0.00  0.00    +0.214 C 
BRANCH  18  23
ATOM     19  N   UNL     1      -1.876  -0.501  -2.401  0.00  0.00    -0.299 N 
ATOM     20  C   UNL     1      -2.008  -1.780  -1.996  0.00  0.00    +0.306 C 
ATOM     21  O   UNL     1      -1.022  -2.475  -1.847  0.00  0.00    -0.252 OA
ATOM     22  N   UNL     1      -3.233  -2.288  -1.757  0.00  0.00    -0.239 N 
ATOM     23  C   UNL     1      -3.365  -3.567  -1.353  0.00  0.00    +0.238 C 
ATOM     24  O   UNL     1      -2.382  -4.261  -1.204  0.00  0.00    -0.274 OA
ATOM     25  H   UNL     1      -2.663   0.053  -2.520  0.00  0.00    +0.150 HD
ATOM     26  H   UNL     1      -4.020  -1.734  -1.876  0.00  0.00    +0.159 HD
BRANCH  19  28
ATOM     27  C   UNL     1      -0.675   1.510  -3.103  0.00  0.00    +0.024 C 
ATOM     28  C   UNL     1      -0.545   0.051  -2.661  0.00  0.00    +0.102 C 
ENDBRANCH  19  28
ENDBRANCH  18  23
ENDBRANCH   1  18
TORSDOF 4
