REMARK  Name = ZINC05129902
REMARK  7 active torsions:
REMARK  status: ('A' for Active; 'I' for Inactive)
REMARK    1  A    between atoms: C_1  and  O_2
REMARK    2  A    between atoms: O_2  and  C_3
REMARK    3  A    between atoms: C_3  and  C_5
REMARK    4  A    between atoms: C_5  and  C_6
REMARK    5  A    between atoms: C_13  and  N_29
REMARK    6  A    between atoms: C_14  and  C_27
REMARK    7  A    between atoms: C_15  and  C_17
REMARK                            x       y       z     vdW  Elec       q    Type
REMARK                         _______ _______ _______ _____ _____    ______ ____
ROOT
ATOM      1  C   UNL     1       1.374  -2.514  -2.380  0.00  0.00    +0.081 A 
ATOM      2  C   UNL     1       0.784  -2.741  -3.616  0.00  0.00    +0.050 A 
ATOM      3  C   UNL     1       1.768  -3.093  -4.497  0.00  0.00    +0.222 A 
ATOM      4  N   UNL     1       2.932  -3.086  -3.829  0.00  0.00    -0.246 N 
ATOM      5  H   UNL     1       3.804  -3.297  -4.199  0.00  0.00    +0.192 HD
ATOM      6  N   UNL     1       2.665  -2.714  -2.503  0.00  0.00    -0.175 NA
ATOM      7  O   UNL     1       1.517  -3.380  -5.799  0.00  0.00    -0.423 OA
ATOM      8  C   UNL     1       0.305  -3.047  -6.290  0.00  0.00    +0.200 C 
ATOM      9  C   UNL     1      -0.747  -2.694  -5.519  0.00  0.00    +0.098 C 
ATOM     10  C   UNL     1      -0.667  -2.644  -4.013  0.00  0.00    +0.103 C 
ENDROOT
BRANCH  10  11
ATOM     11  C   UNL     1      -1.434  -3.800  -3.424  0.00  0.00    -0.010 A 
ATOM     12  C   UNL     1      -1.208  -5.104  -3.646  0.00  0.00    +0.088 A 
ATOM     13  N   UNL     1      -2.104  -5.859  -2.940  0.00  0.00    -0.360 N 
ATOM     14  H   UNL     1      -2.138  -6.829  -2.940  0.00  0.00    +0.165 HD
ATOM     15  C   UNL     1      -2.950  -5.039  -2.228  0.00  0.00    +0.047 A 
ATOM     16  C   UNL     1      -2.564  -3.712  -2.495  0.00  0.00    +0.004 A 
ATOM     17  C   UNL     1      -3.249  -2.653  -1.898  0.00  0.00    +0.010 A 
ATOM     18  C   UNL     1      -4.292  -2.911  -1.053  0.00  0.00    +0.001 A 
ATOM     19  C   UNL     1      -4.675  -4.217  -0.783  0.00  0.00    +0.002 A 
ATOM     20  C   UNL     1      -4.018  -5.277  -1.369  0.00  0.00    +0.026 A 
ENDBRANCH  10  11
BRANCH   8  21
ATOM     21  N   UNL     1       0.131  -3.067  -7.651  0.00  0.00    -0.328 N 
ATOM     22  H   UNL     1       0.869  -3.316  -8.230  0.00  0.00    +0.145 HD
ATOM     23  H   UNL     1      -0.729  -2.833  -8.034  0.00  0.00    +0.145 HD
ENDBRANCH   8  21
BRANCH   9  24
ATOM     24  C   UNL     1      -1.985  -2.357  -6.155  0.00  0.00    +0.101 C 
ATOM     25  N   UNL     1      -2.967  -2.088  -6.659  0.00  0.00    -0.191 NA
ENDBRANCH   9  24
BRANCH   1  26
ATOM     26  C   UNL     1       0.657  -2.104  -1.120  0.00  0.00    +0.178 C 
BRANCH  26  27
ATOM     27  C   UNL     1       0.598  -0.600  -1.043  0.00  0.00    +0.313 C 
ATOM     28  O   UNL     1       1.088   0.070  -1.921  0.00  0.00    -0.250 OA
BRANCH  27  30
ATOM     29  C   UNL     1      -0.017   1.425   0.010  0.00  0.00    +0.280 C 
ATOM     30  O   UNL     1       0.002  -0.004   0.002  0.00  0.00    -0.468 OA
ENDBRANCH  27  30
ENDBRANCH  26  27
ENDBRANCH   1  26
TORSDOF 6
