REMARK  Name = ZINC67430302
REMARK  6 active torsions:
REMARK  status: ('A' for Active; 'I' for Inactive)
REMARK    1  A    between atoms: C_1  and  N_2
REMARK    2  A    between atoms: N_2  and  C_3
REMARK    3  A    between atoms: N_2  and  C_4
REMARK    4  A    between atoms: C_7  and  N_11
REMARK    5  A    between atoms: C_12  and  C_14
REMARK    6  A    between atoms: N_16  and  C_17
REMARK                            x       y       z     vdW  Elec       q    Type
REMARK                         _______ _______ _______ _____ _____    ______ ____
ROOT
ATOM      1  N   UNL     1      -0.006  -2.764  -4.839  0.00  0.00    -0.278 N 
ATOM      2  C   UNL     1       1.154  -2.998  -5.483  0.00  0.00    +0.303 C 
ATOM      3  O   UNL     1       2.208  -2.689  -4.967  0.00  0.00    -0.265 OA
ATOM      4  H   UNL     1      -0.843  -3.080  -5.216  0.00  0.00    +0.155 HD
ENDROOT
BRANCH   1   8
ATOM      5  C   UNL     1      -0.003  -0.681  -1.226  0.00  0.00    +0.101 A 
ATOM      6  C   UNL     1       0.930  -0.370  -2.209  0.00  0.00    +0.149 A 
ATOM      7  C   UNL     1       0.928  -1.061  -3.406  0.00  0.00    +0.063 A 
ATOM      8  C   UNL     1      -0.005  -2.066  -3.627  0.00  0.00    +0.039 A 
ATOM      9  C   UNL     1      -0.937  -2.377  -2.645  0.00  0.00    +0.063 A 
ATOM     10  C   UNL     1      -0.932  -1.691  -1.445  0.00  0.00    +0.149 A 
ATOM     11  F   UNL     1      -1.835  -1.998  -0.488  0.00  0.00    -0.203 F 
ATOM     12  F   UNL     1       1.837   0.609  -1.994  0.00  0.00    -0.203 F 
BRANCH   5  14
ATOM     13  C   UNL     1       0.806  -0.464   1.112  0.00  0.00    +0.129 C 
ATOM     14  N   UNL     1      -0.001   0.019  -0.011  0.00  0.00    -0.332 N 
ATOM     15  C   UNL     1      -0.807   1.234   0.135  0.00  0.00    +0.129 C 
ENDBRANCH   5  14
ENDBRANCH   1   8
BRANCH   2  16
ATOM     16  C   UNL     1       1.143  -3.639  -6.832  0.00  0.00    +0.300 C 
ATOM     17  O   UNL     1       0.089  -3.948  -7.348  0.00  0.00    -0.265 OA
ATOM     18  N   UNL     1       2.304  -3.873  -7.476  0.00  0.00    -0.301 N 
ATOM     19  H   UNL     1       3.146  -3.626  -7.063  0.00  0.00    +0.150 HD
BRANCH  18  20
ATOM     20  C   UNL     1       2.293  -4.501  -8.800  0.00  0.00    +0.104 C 
ATOM     21  C   UNL     1       3.581  -4.146  -9.572  0.00  0.00    +0.032 C 
ATOM     22  C   UNL     1       3.853  -5.435 -10.376  0.00  0.00    +0.037 C 
ATOM     23  C   UNL     1       3.211  -6.546  -9.571  0.00  0.00    -0.041 A 
ATOM     24  C   UNL     1       2.312  -6.009  -8.666  0.00  0.00    -0.024 A 
ATOM     25  C   UNL     1       1.602  -6.844  -7.819  0.00  0.00    +0.007 A 
ATOM     26  C   UNL     1       1.786  -8.211  -7.876  0.00  0.00    +0.020 A 
ATOM     27  C   UNL     1       2.683  -8.750  -8.781  0.00  0.00    +0.041 A 
ATOM     28  C   UNL     1       3.398  -7.916  -9.627  0.00  0.00    +0.024 A 
ATOM     29 CL   UNL     1       2.917 -10.469  -8.854  0.00  0.00    -0.084 Cl
ENDBRANCH  18  20
ENDBRANCH   2  16
TORSDOF 4
