REMARK  Name = ZINC38806112
REMARK  16 active torsions:
REMARK  status: ('A' for Active; 'I' for Inactive)
REMARK    1  A    between atoms: C_1  and  C_2
REMARK    2  A    between atoms: C_2  and  C_34
REMARK    3  A    between atoms: C_5  and  C_30
REMARK    4  A    between atoms: C_6  and  N_13
REMARK    5  A    between atoms: C_9  and  C_11
REMARK    6  A    between atoms: C_9  and  C_12
REMARK    7  A    between atoms: C_14  and  C_16
REMARK    8  A    between atoms: C_17  and  C_18
REMARK    9  A    between atoms: C_20  and  O_28
REMARK   10  A    between atoms: C_21  and  O_26
REMARK   11  A    between atoms: C_22  and  O_24
REMARK   12  A    between atoms: O_24  and  C_25
REMARK   13  A    between atoms: O_26  and  C_27
REMARK   14  A    between atoms: O_28  and  C_29
REMARK   15  A    between atoms: C_30  and  O_32
REMARK   16  A    between atoms: O_32  and  C_33
REMARK                            x       y       z     vdW  Elec       q    Type
REMARK                         _______ _______ _______ _____ _____    ______ ____
ROOT
ATOM      1  C   UNL     1      -0.019   1.536   0.011  0.00  0.00    -0.010 C 
ATOM      2  C   UNL     1       0.002  -0.004   0.002  0.00  0.00    -0.069 C 
ATOM      3  C   UNL     1       0.693  -0.456  -1.290  0.00  0.00    +0.024 C 
ATOM      4  C   UNL     1       0.777  -1.974  -1.244  0.00  0.00    -0.024 A 
ATOM      5  C   UNL     1       0.750  -2.881  -2.370  0.00  0.00    +0.091 A 
ATOM      6  C   UNL     1       0.837  -4.239  -2.086  0.00  0.00    +0.086 A 
ATOM      7  S   UNL     1       0.950  -4.303  -0.411  0.00  0.00    -0.079 S 
ATOM      8  C   UNL     1       0.895  -2.576  -0.037  0.00  0.00    -0.016 A 
ATOM      9  C   UNL     1       0.969  -1.895   1.288  0.00  0.00    -0.041 C 
ATOM     10  N   UNL     1       0.711  -0.460   1.190  0.00  0.00    +0.389 N 
ATOM     11  C   UNL     1      -0.028  -2.549   2.255  0.00  0.00    -0.005 C 
ATOM     12  C   UNL     1       2.385  -2.103   1.859  0.00  0.00    -0.005 C 
ATOM     13  C   UNL     1      -1.448  -0.492   0.002  0.00  0.00    -0.010 C 
ATOM     14  H   UNL     1       1.603   0.035   1.244  0.00  0.00    -0.084 HD
ATOM     15  H   UNL     1       0.184  -0.167   2.014  0.00  0.00    -0.084 HD
ENDROOT
BRANCH   6  16
ATOM     16  N   UNL     1       0.831  -5.296  -2.980  0.00  0.00    -0.276 N 
ATOM     17  C   UNL     1       0.923  -6.562  -2.527  0.00  0.00    +0.241 C 
ATOM     18  O   UNL     1       1.013  -6.776  -1.332  0.00  0.00    -0.270 OA
ATOM     19  H   UNL     1       0.759  -5.125  -3.932  0.00  0.00    +0.156 HD
BRANCH  17  20
ATOM     20  C   UNL     1       0.917  -7.678  -3.471  0.00  0.00    +0.068 C 
ATOM     21  C   UNL     1       1.010  -8.947  -3.018  0.00  0.00    +0.013 C 
BRANCH  21  22
ATOM     22  C   UNL     1       1.003 -10.069  -3.967  0.00  0.00    -0.018 A 
ATOM     23  C   UNL     1       0.906  -9.824  -5.342  0.00  0.00    +0.057 A 
ATOM     24  C   UNL     1       0.900 -10.881  -6.232  0.00  0.00    +0.166 A 
ATOM     25  C   UNL     1       0.990 -12.189  -5.762  0.00  0.00    +0.204 A 
ATOM     26  C   UNL     1       1.086 -12.437  -4.394  0.00  0.00    +0.166 A 
ATOM     27  C   UNL     1       1.099 -11.384  -3.499  0.00  0.00    +0.057 A 
BRANCH  26  28
ATOM     28  O   UNL     1       1.173 -13.716  -3.940  0.00  0.00    -0.491 OA
ATOM     29  C   UNL     1       1.269 -13.896  -2.526  0.00  0.00    +0.277 C 
ENDBRANCH  26  28
BRANCH  25  30
ATOM     30  O   UNL     1       0.983 -13.227  -6.640  0.00  0.00    -0.488 OA
ATOM     31  C   UNL     1       2.250 -13.663  -7.138  0.00  0.00    +0.277 C 
ENDBRANCH  25  30
BRANCH  24  32
ATOM     32  O   UNL     1       0.806 -10.645  -7.567  0.00  0.00    -0.491 OA
ATOM     33  C   UNL     1       0.717  -9.279  -7.980  0.00  0.00    +0.277 C 
ENDBRANCH  24  32
ENDBRANCH  21  22
ENDBRANCH  17  20
ENDBRANCH   6  16
BRANCH   5  34
ATOM     34  C   UNL     1       0.641  -2.403  -3.750  0.00  0.00    +0.342 C 
ATOM     35  O   UNL     1       1.645  -2.154  -4.389  0.00  0.00    -0.245 OA
BRANCH  34  36
ATOM     36  O   UNL     1      -0.574  -2.239  -4.312  0.00  0.00    -0.464 OA
ATOM     37  C   UNL     1      -0.607  -1.770  -5.662  0.00  0.00    +0.280 C 
ENDBRANCH  34  36
ENDBRANCH   5  34
TORSDOF 8
