REMARK  Name = ZINC09437764
REMARK  7 active torsions:
REMARK  status: ('A' for Active; 'I' for Inactive)
REMARK    1  A    between atoms: C_1  and  C_2
REMARK    2  A    between atoms: C_2  and  C_4
REMARK    3  A    between atoms: C_2  and  N_16
REMARK    4  A    between atoms: C_7  and  C_10
REMARK    5  A    between atoms: C_17  and  C_19
REMARK    6  A    between atoms: C_19  and  N_20
REMARK    7  A    between atoms: N_25  and  C_28
REMARK                            x       y       z     vdW  Elec       q    Type
REMARK                         _______ _______ _______ _____ _____    ______ ____
ROOT
ATOM      1  N   UNL     1       2.366   6.188  -1.653  0.00  0.00    -0.307 N 
ATOM      2  C   UNL     1       1.670   5.060  -1.407  0.00  0.00    +0.231 C 
ATOM      3  O   UNL     1       1.246   4.396  -2.329  0.00  0.00    -0.274 OA
ATOM      4  H   UNL     1       2.705   6.719  -0.916  0.00  0.00    +0.149 HD
ENDROOT
BRANCH   1   6
ATOM      5  C   UNL     1       3.853   5.900  -3.574  0.00  0.00    +0.033 C 
ATOM      6  C   UNL     1       2.610   6.611  -3.035  0.00  0.00    +0.100 C 
BRANCH   6   7
ATOM      7  C   UNL     1       2.827   8.101  -3.073  0.00  0.00    -0.027 A 
ATOM      8  C   UNL     1       3.563   8.716  -2.075  0.00  0.00    +0.006 A 
ATOM      9  C   UNL     1       3.770  10.080  -2.108  0.00  0.00    +0.009 A 
ATOM     10  C   UNL     1       3.227  10.840  -3.142  0.00  0.00    -0.018 A 
ATOM     11  C   UNL     1       2.481  10.216  -4.141  0.00  0.00    +0.009 A 
ATOM     12  C   UNL     1       2.285   8.851  -4.101  0.00  0.00    +0.006 A 
BRANCH  10  13
ATOM     13  C   UNL     1       3.441  12.308  -3.180  0.00  0.00    -0.018 A 
ATOM     14  C   UNL     1       2.903  13.067  -4.217  0.00  0.00    +0.008 A 
ATOM     15  C   UNL     1       3.101  14.432  -4.244  0.00  0.00    +0.001 A 
ATOM     16  C   UNL     1       3.841  15.046  -3.250  0.00  0.00    +0.000 A 
ATOM     17  C   UNL     1       4.382  14.297  -2.221  0.00  0.00    +0.001 A 
ATOM     18  C   UNL     1       4.186  12.932  -2.181  0.00  0.00    +0.008 A 
ENDBRANCH  10  13
ENDBRANCH   6   7
ENDBRANCH   1   6
BRANCH   2  19
ATOM     19  C   UNL     1       1.419   4.625   0.014  0.00  0.00    +0.214 C 
BRANCH  19  20
ATOM     20  N   UNL     1       0.647   3.380   0.014  0.00  0.00    -0.209 N 
ATOM     21  C   UNL     1       1.167   2.134   0.002  0.00  0.00    +0.310 C 
ATOM     22  O   UNL     1       2.340   1.827  -0.011  0.00  0.00    -0.264 OA
ATOM     23  C   UNL     1      -0.014   1.209   0.009  0.00  0.00    +0.310 C 
ATOM     24  O   UNL     1       0.002  -0.004   0.002  0.00  0.00    -0.264 OA
ATOM     25  N   UNL     1      -1.100   2.012   0.017  0.00  0.00    -0.215 N 
ATOM     26  C   UNL     1      -0.693   3.292   0.026  0.00  0.00    +0.319 C 
ATOM     27  O   UNL     1      -1.442   4.248   0.038  0.00  0.00    -0.252 OA
BRANCH  25  28
ATOM     28  C   UNL     1      -2.494   1.561   0.020  0.00  0.00    +0.086 C 
ATOM     29  C   UNL     1      -2.755   0.659   1.244  0.00  0.00    +0.023 C 
ATOM     30  C   UNL     1      -3.724  -0.428   0.714  0.00  0.00    +0.002 C 
ATOM     31  C   UNL     1      -3.193  -0.690  -0.717  0.00  0.00    +0.002 C 
ATOM     32  C   UNL     1      -2.773   0.704  -1.227  0.00  0.00    +0.023 C 
ENDBRANCH  25  28
ENDBRANCH  19  20
ENDBRANCH   2  19
TORSDOF 6
