REMARK  Name = ZINC04497612
REMARK  3 active torsions:
REMARK  status: ('A' for Active; 'I' for Inactive)
REMARK    1  A    between atoms: C_3  and  C_6
REMARK    2  A    between atoms: N_8  and  C_9
REMARK    3  A    between atoms: N_14  and  C_16
REMARK                            x       y       z     vdW  Elec       q    Type
REMARK                         _______ _______ _______ _____ _____    ______ ____
ROOT
ATOM      1  C   UNL     1      -3.276   8.912  -1.912  0.00  0.00    +0.100 C 
ATOM      2  C   UNL     1      -2.788   9.052  -0.452  0.00  0.00    +0.120 C 
ATOM      3  C   UNL     1      -2.360   7.652  -0.068  0.00  0.00    +0.222 C 
ATOM      4  O   UNL     1      -2.179   7.268   1.068  0.00  0.00    -0.275 OA
ATOM      5  N   UNL     1      -2.211   6.896  -1.169  0.00  0.00    -0.269 N 
ATOM      6  C   UNL     1      -2.492   7.666  -2.387  0.00  0.00    +0.136 C 
ENDROOT
BRANCH   5   7
ATOM      7  C   UNL     1      -1.830   5.548  -1.157  0.00  0.00    +0.040 A 
ATOM      8  C   UNL     1      -1.817   4.819  -2.338  0.00  0.00    +0.027 A 
ATOM      9  C   UNL     1      -1.443   3.489  -2.326  0.00  0.00    +0.051 A 
ATOM     10  C   UNL     1      -1.079   2.878  -1.135  0.00  0.00    +0.162 A 
ATOM     11  C   UNL     1      -1.088   3.606   0.049  0.00  0.00    +0.164 A 
ATOM     12  C   UNL     1      -1.465   4.941   0.036  0.00  0.00    +0.073 A 
ATOM     13  O   UNL     1      -0.727   3.026   1.226  0.00  0.00    -0.485 OA
ATOM     14  C   UNL     1      -0.714   1.595   1.262  0.00  0.00    +0.270 C 
ATOM     15  C   UNL     1       0.001   1.090   0.001  0.00  0.00    +0.270 C 
ATOM     16  O   UNL     1      -0.716   1.565  -1.143  0.00  0.00    -0.485 OA
ENDBRANCH   5   7
BRANCH   1  19
ATOM     17  C   UNL     1      -5.573   9.723  -1.961  0.00  0.00    +0.280 C 
ATOM     18  O   UNL     1      -5.142  10.860  -1.919  0.00  0.00    -0.267 OA
ATOM     19  N   UNL     1      -4.722   8.678  -1.962  0.00  0.00    -0.304 N 
ATOM     20  H   UNL     1      -5.066   7.772  -1.995  0.00  0.00    +0.149 HD
BRANCH  17  23
ATOM     21  C   UNL     1      -9.222   9.783  -2.071  0.00  0.00    +0.042 A 
ATOM     22  C   UNL     1      -7.989  10.452  -2.010  0.00  0.00    +0.054 A 
ATOM     23  C   UNL     1      -7.020   9.489  -2.011  0.00  0.00    +0.189 A 
ATOM     24  O   UNL     1      -7.628   8.286  -2.059  0.00  0.00    -0.458 OA
ATOM     25  C   UNL     1      -8.955   8.459  -2.095  0.00  0.00    +0.196 A 
ENDBRANCH  17  23
ENDBRANCH   1  19
TORSDOF 3
