REMARK  Name = ZINC16509042
REMARK  11 active torsions:
REMARK  status: ('A' for Active; 'I' for Inactive)
REMARK    1  A    between atoms: C_1  and  C_2
REMARK    2  A    between atoms: C_2  and  C_3
REMARK    3  A    between atoms: C_3  and  C_4
REMARK    4  A    between atoms: C_4  and  N_5
REMARK    5  A    between atoms: N_5  and  C_6
REMARK    6  A    between atoms: N_5  and  S_26
REMARK    7  A    between atoms: C_6  and  C_7
REMARK    8  A    between atoms: C_17  and  C_19
REMARK    9  A    between atoms: C_22  and  C_25
REMARK   10  A    between atoms: S_26  and  C_29
REMARK   11  A    between atoms: C_30  and  C_31
REMARK                            x       y       z     vdW  Elec       q    Type
REMARK                         _______ _______ _______ _____ _____    ______ ____
ROOT
ATOM      1  C   UNL     1      -3.921   3.541   2.046  0.00  0.00    +0.232 C 
ATOM      2  O   UNL     1      -3.452   4.561   2.504  0.00  0.00    -0.274 OA
ATOM      3  N   UNL     1      -3.538   3.110   0.828  0.00  0.00    -0.289 N 
ATOM      4  C   UNL     1      -4.101   1.874   0.261  0.00  0.00    +0.114 C 
ATOM      5  C   UNL     1      -4.916   2.243  -0.988  0.00  0.00    +0.062 C 
ATOM      6  C   UNL     1      -4.145   3.245  -1.784  0.00  0.00    -0.003 A 
ATOM      7  C   UNL     1      -3.088   4.001  -1.379  0.00  0.00    -0.012 A 
ATOM      8  C   UNL     1      -2.546   4.874  -2.321  0.00  0.00    +0.013 A 
ATOM      9  C   UNL     1      -3.069   4.936  -3.566  0.00  0.00    +0.046 A 
ATOM     10  S   UNL     1      -4.389   3.736  -3.471  0.00  0.00    -0.101 S 
ATOM     11  C   UNL     1      -2.553   3.869   0.045  0.00  0.00    +0.137 C 
ENDROOT
BRANCH  11  12
ATOM     12  C   UNL     1      -1.238   3.133   0.030  0.00  0.00    -0.023 A 
ATOM     13  C   UNL     1      -0.123   3.698   0.620  0.00  0.00    +0.006 A 
ATOM     14  C   UNL     1       1.085   3.025   0.602  0.00  0.00    +0.004 A 
ATOM     15  C   UNL     1       1.175   1.783   0.002  0.00  0.00    -0.050 A 
ATOM     16  C   UNL     1       0.059   1.216  -0.584  0.00  0.00    +0.004 A 
ATOM     17  C   UNL     1      -1.148   1.891  -0.570  0.00  0.00    +0.006 A 
ATOM     18  C   UNL     1       2.490   1.047  -0.013  0.00  0.00    +0.044 C 
ENDBRANCH  11  12
BRANCH   1  19
ATOM     19  C   UNL     1      -4.933   2.754   2.840  0.00  0.00    +0.205 C 
BRANCH  19  20
ATOM     20  N   UNL     1      -5.178   3.425   4.119  0.00  0.00    -0.168 NA
BRANCH  20  21
ATOM     21  S   UNL     1      -4.343   2.961   5.471  0.00  0.00    +0.055 S 
ATOM     22  O   UNL     1      -5.136   3.340   6.588  0.00  0.00    -0.153 OA
ATOM     23  O   UNL     1      -3.928   1.620   5.252  0.00  0.00    -0.153 OA
BRANCH  21  24
ATOM     24  C   UNL     1      -2.878   3.938   5.539  0.00  0.00    +0.153 C 
ATOM     25  C   UNL     1      -2.700   4.798   6.532  0.00  0.00    +0.028 C 
BRANCH  25  26
ATOM     26  C   UNL     1      -1.471   5.617   6.589  0.00  0.00    -0.024 A 
ATOM     27  C   UNL     1      -0.494   5.483   5.602  0.00  0.00    +0.008 A 
ATOM     28  C   UNL     1       0.649   6.254   5.659  0.00  0.00    +0.001 A 
ATOM     29  C   UNL     1       0.832   7.152   6.696  0.00  0.00    +0.000 A 
ATOM     30  C   UNL     1      -0.132   7.285   7.680  0.00  0.00    +0.001 A 
ATOM     31  C   UNL     1      -1.281   6.524   7.632  0.00  0.00    +0.008 A 
ENDBRANCH  25  26
ENDBRANCH  21  24
ENDBRANCH  20  21
BRANCH  20  32
ATOM     32  C   UNL     1      -6.163   4.507   4.201  0.00  0.00    +0.110 C 
BRANCH  32  33
ATOM     33  C   UNL     1      -7.557   3.912   4.412  0.00  0.00    +0.017 C 
BRANCH  33  35
ATOM     34  C   UNL     1      -9.980   4.447   4.709  0.00  0.00    +0.004 C 
ATOM     35  C   UNL     1      -8.586   5.041   4.498  0.00  0.00    -0.002 C 
ENDBRANCH  33  35
ENDBRANCH  32  33
ENDBRANCH  20  32
ENDBRANCH  19  20
ENDBRANCH   1  19
TORSDOF 9
