REMARK  Name = ZINC36597629
REMARK  18 active torsions:
REMARK  status: ('A' for Active; 'I' for Inactive)
REMARK    1  A    between atoms: C_1  and  C_2
REMARK    2  A    between atoms: C_5  and  C_8
REMARK    3  A    between atoms: C_8  and  C_10
REMARK    4  A    between atoms: C_8  and  N_21
REMARK    5  A    between atoms: N_12  and  C_13
REMARK    6  A    between atoms: C_13  and  C_14
REMARK    7  A    between atoms: C_13  and  C_15
REMARK    8  A    between atoms: C_13  and  C_16
REMARK    9  A    between atoms: C_16  and  C_17
REMARK   10  A    between atoms: C_17  and  C_18
REMARK   11  A    between atoms: C_17  and  C_19
REMARK   12  A    between atoms: C_17  and  C_20
REMARK   13  A    between atoms: N_21  and  C_22
REMARK   14  A    between atoms: C_22  and  C_23
REMARK   15  A    between atoms: C_26  and  C_28
REMARK   16  A    between atoms: C_29  and  C_31
REMARK   17  A    between atoms: C_32  and  O_38
REMARK   18  A    between atoms: C_36  and  O_37
REMARK                            x       y       z     vdW  Elec       q    Type
REMARK                         _______ _______ _______ _____ _____    ______ ____
ROOT
ATOM      1  C   UNL     1      -1.196  -6.604  -1.563  0.00  0.00    +0.193 C 
ENDROOT
BRANCH   1   6
ATOM      2  C   UNL     1      -1.248  -2.441   2.444  0.00  0.00    +0.044 C 
ATOM      3  C   UNL     1      -1.235  -3.527   1.399  0.00  0.00    -0.050 A 
ATOM      4  C   UNL     1      -1.408  -3.205   0.066  0.00  0.00    +0.004 A 
ATOM      5  C   UNL     1      -1.396  -4.201  -0.893  0.00  0.00    +0.006 A 
ATOM      6  C   UNL     1      -1.209  -5.518  -0.518  0.00  0.00    -0.018 A 
ATOM      7  C   UNL     1      -1.034  -5.840   0.815  0.00  0.00    +0.006 A 
ATOM      8  C   UNL     1      -1.042  -4.844   1.773  0.00  0.00    +0.004 A 
ENDBRANCH   1   6
BRANCH   1   9
ATOM      9  C   UNL     1      -2.470  -7.404  -1.472  0.00  0.00    +0.239 C 
ATOM     10  O   UNL     1      -2.431  -8.570  -1.139  0.00  0.00    -0.273 OA
ATOM     11  N   UNL     1      -3.652  -6.825  -1.760  0.00  0.00    -0.308 N 
ATOM     12  H   UNL     1      -3.683  -5.893  -2.027  0.00  0.00    +0.149 HD
BRANCH  11  13
ATOM     13  C   UNL     1      -4.890  -7.603  -1.671  0.00  0.00    +0.030 C 
ATOM     14  C   UNL     1      -4.732  -8.905  -2.459  0.00  0.00    +0.031 C 
ATOM     15  C   UNL     1      -5.185  -7.926  -0.205  0.00  0.00    +0.031 C 
BRANCH  13  16
ATOM     16  C   UNL     1      -6.046  -6.790  -2.257  0.00  0.00    +0.031 C 
BRANCH  16  17
ATOM     17  C   UNL     1      -5.986  -5.358  -1.720  0.00  0.00    -0.036 C 
ATOM     18  C   UNL     1      -4.811  -4.621  -2.366  0.00  0.00    +0.010 C 
ATOM     19  C   UNL     1      -7.290  -4.632  -2.057  0.00  0.00    +0.010 C 
ATOM     20  C   UNL     1      -5.796  -5.389  -0.203  0.00  0.00    +0.010 C 
ENDBRANCH  16  17
ENDBRANCH  13  16
ENDBRANCH  11  13
ENDBRANCH   1   9
BRANCH   1  21
ATOM     21  N   UNL     1      -0.048  -7.486  -1.337  0.00  0.00    -0.274 N 
ATOM     22  C   UNL     1       1.202  -7.038  -1.570  0.00  0.00    +0.255 C 
ATOM     23  O   UNL     1       1.376  -5.902  -1.968  0.00  0.00    -0.270 OA
BRANCH  22  24
ATOM     24  C   UNL     1       2.355  -7.924  -1.343  0.00  0.00    +0.119 A 
ATOM     25  C   UNL     1       2.839  -8.735  -2.381  0.00  0.00    +0.133 A 
ATOM     26  C   UNL     1       3.925  -9.564  -2.157  0.00  0.00    +0.046 A 
ATOM     27  C   UNL     1       4.533  -9.595  -0.915  0.00  0.00    +0.007 A 
ATOM     28  C   UNL     1       4.064  -8.801   0.115  0.00  0.00    +0.046 A 
ATOM     29  C   UNL     1       2.982  -7.960  -0.089  0.00  0.00    +0.133 A 
BRANCH  29  30
ATOM     30  O   UNL     1       2.529  -7.177   0.921  0.00  0.00    -0.506 OA
ATOM     31  H   UNL     1       1.851  -7.596   1.469  0.00  0.00    +0.292 HD
ENDBRANCH  29  30
BRANCH  25  32
ATOM     32  O   UNL     1       2.244  -8.706  -3.600  0.00  0.00    -0.506 OA
ATOM     33  H   UNL     1       2.618  -8.050  -4.205  0.00  0.00    +0.292 HD
ENDBRANCH  25  32
ENDBRANCH  22  24
BRANCH  21  34
ATOM     34  C   UNL     1      -0.259  -8.854  -0.858  0.00  0.00    +0.183 C 
BRANCH  34  35
ATOM     35  C   UNL     1      -0.544  -9.758  -2.030  0.00  0.00    +0.122 A 
ATOM     36  C   UNL     1       0.361 -10.504  -2.687  0.00  0.00    +0.046 A 
ATOM     37  C   UNL     1      -0.336 -11.191  -3.707  0.00  0.00    +0.045 A 
ATOM     38  C   UNL     1      -1.627 -10.823  -3.613  0.00  0.00    +0.102 A 
ATOM     39  O   UNL     1      -1.748  -9.960  -2.591  0.00  0.00    -0.463 OA
ATOM     40  C   UNL     1      -2.747 -11.303  -4.499  0.00  0.00    +0.086 C 
ENDBRANCH  34  35
ENDBRANCH  21  34
ENDBRANCH   1  21
TORSDOF 11
