REMARK  Name = ZINC08691859
REMARK  6 active torsions:
REMARK  status: ('A' for Active; 'I' for Inactive)
REMARK    1  A    between atoms: C_1  and  C_2
REMARK    2  A    between atoms: N_8  and  N_9
REMARK    3  A    between atoms: C_10  and  C_11
REMARK    4  A    between atoms: C_13  and  C_22
REMARK    5  A    between atoms: C_13  and  C_23
REMARK    6  A    between atoms: N_20  and  C_21
REMARK                            x       y       z     vdW  Elec       q    Type
REMARK                         _______ _______ _______ _____ _____    ______ ____
ROOT
ATOM      1  N   UNL     1       3.453   3.515  -0.165  0.00  0.00    -0.188 NA
ATOM      2  C   UNL     1       4.554   4.208  -0.197  0.00  0.00    +0.132 C 
ENDROOT
BRANCH   2   3
ATOM      3  C   UNL     1       4.516   5.652   0.031  0.00  0.00    +0.041 C 
ATOM      4  C   UNL     1       5.660   6.351   0.103  0.00  0.00    +0.022 C 
ATOM      5  C   UNL     1       5.796   7.855   0.217  0.00  0.00    +0.030 C 
ATOM      6  C   UNL     1       7.288   8.092   0.263  0.00  0.00    -0.015 A 
ATOM      7  C   UNL     1       8.043   9.240   0.364  0.00  0.00    +0.006 A 
ATOM      8  C   UNL     1       9.424   9.160   0.378  0.00  0.00    +0.000 A 
ATOM      9  C   UNL     1      10.043   7.926   0.290  0.00  0.00    +0.002 A 
ATOM     10  C   UNL     1       9.291   6.775   0.190  0.00  0.00    +0.024 A 
ATOM     11  C   UNL     1       7.898   6.847   0.175  0.00  0.00    +0.038 A 
ATOM     12  N   UNL     1       6.940   5.839   0.082  0.00  0.00    -0.306 N 
ATOM     13  C   UNL     1       7.255   4.412  -0.024  0.00  0.00    +0.135 C 
ATOM     14  C   UNL     1       5.180   8.541  -1.004  0.00  0.00    +0.022 C 
ATOM     15  C   UNL     1       5.137   8.356   1.504  0.00  0.00    +0.022 C 
ENDBRANCH   2   3
BRANCH   1  23
ATOM     16  C   UNL     1       1.346  -2.136  -0.774  0.00  0.00    +0.063 C 
ATOM     17  C   UNL     1       1.272  -0.650  -0.534  0.00  0.00    +0.021 A 
ATOM     18  C   UNL     1       0.056  -0.042  -0.286  0.00  0.00    +0.093 A 
ATOM     19  C   UNL     1       0.032   1.335  -0.070  0.00  0.00    +0.275 A 
ATOM     20  N   UNL     1       1.172   2.014  -0.109  0.00  0.00    -0.176 NA
ATOM     21  C   UNL     1       2.319   1.395  -0.350  0.00  0.00    +0.216 A 
ATOM     22  N   UNL     1       2.372   0.087  -0.559  0.00  0.00    -0.330 N 
ATOM     23  N   UNL     1       3.489   2.131  -0.384  0.00  0.00    -0.207 N 
ATOM     24  O   UNL     1      -1.139   1.973   0.171  0.00  0.00    -0.266 OA
ATOM     25  H   UNL     1       4.448   1.631  -0.583  0.00  0.00    +0.177 HD
ATOM     26  H   UNL     1       3.346  -0.385  -0.755  0.00  0.00    +0.168 HD
ENDBRANCH   1  23
TORSDOF 2
