REMARK  Name = ZINC36500762
REMARK  17 active torsions:
REMARK  status: ('A' for Active; 'I' for Inactive)
REMARK    1  A    between atoms: C_1  and  C_2
REMARK    2  A    between atoms: C_2  and  C_3
REMARK    3  A    between atoms: C_2  and  C_4
REMARK    4  A    between atoms: C_2  and  C_5
REMARK    5  A    between atoms: C_5  and  C_6
REMARK    6  A    between atoms: C_6  and  C_7
REMARK    7  A    between atoms: C_6  and  C_8
REMARK    8  A    between atoms: C_6  and  N_9
REMARK    9  A    between atoms: C_10  and  C_12
REMARK   10  A    between atoms: C_12  and  C_14
REMARK   11  A    between atoms: C_12  and  N_21
REMARK   12  A    between atoms: C_19  and  O_20
REMARK   13  A    between atoms: N_21  and  C_22
REMARK   14  A    between atoms: C_22  and  C_23
REMARK   15  A    between atoms: C_28  and  C_30
REMARK   16  A    between atoms: C_34  and  O_37
REMARK   17  A    between atoms: C_35  and  O_36
REMARK                            x       y       z     vdW  Elec       q    Type
REMARK                         _______ _______ _______ _____ _____    ______ ____
ROOT
ATOM      1  C   UNL     1       4.481  -2.095  -7.833  0.00  0.00    +0.196 C 
ENDROOT
BRANCH   1   2
ATOM      2  C   UNL     1       4.651  -1.932  -9.321  0.00  0.00    +0.023 A 
ATOM      3  C   UNL     1       5.318  -0.832  -9.825  0.00  0.00    +0.009 A 
ATOM      4  C   UNL     1       5.474  -0.681 -11.190  0.00  0.00    +0.001 A 
ATOM      5  C   UNL     1       4.962  -1.631 -12.055  0.00  0.00    +0.004 A 
ATOM      6  C   UNL     1       4.294  -2.732 -11.557  0.00  0.00    +0.046 A 
ATOM      7  C   UNL     1       4.141  -2.889 -10.187  0.00  0.00    +0.122 A 
BRANCH   7   8
ATOM      8  O   UNL     1       3.489  -3.974  -9.694  0.00  0.00    -0.506 OA
ATOM      9  H   UNL     1       2.551  -3.823  -9.518  0.00  0.00    +0.292 HD
ENDBRANCH   7   8
ENDBRANCH   1   2
BRANCH   1  11
ATOM     10  N   UNL     1       3.838   0.234  -7.303  0.00  0.00    -0.308 N 
ATOM     11  C   UNL     1       4.721  -0.772  -7.152  0.00  0.00    +0.239 C 
ATOM     12  O   UNL     1       5.710  -0.613  -6.467  0.00  0.00    -0.273 OA
ATOM     13  H   UNL     1       3.018   0.089  -7.802  0.00  0.00    +0.149 HD
BRANCH  10  14
ATOM     14  C   UNL     1       4.115   1.547  -6.715  0.00  0.00    +0.030 C 
ATOM     15  C   UNL     1       5.456   2.067  -7.238  0.00  0.00    +0.031 C 
ATOM     16  C   UNL     1       4.176   1.421  -5.192  0.00  0.00    +0.031 C 
BRANCH  14  17
ATOM     17  C   UNL     1       3.003   2.524  -7.103  0.00  0.00    +0.031 C 
BRANCH  17  19
ATOM     18  C   UNL     1       1.302   1.214  -8.379  0.00  0.00    +0.010 C 
ATOM     19  C   UNL     1       2.483   2.178  -8.499  0.00  0.00    -0.036 C 
ATOM     20  C   UNL     1       3.600   1.518  -9.310  0.00  0.00    +0.010 C 
ATOM     21  C   UNL     1       2.028   3.457  -9.205  0.00  0.00    +0.010 C 
ENDBRANCH  17  19
ENDBRANCH  14  17
ENDBRANCH  10  14
ENDBRANCH   1  11
BRANCH   1  22
ATOM     22  N   UNL     1       5.444  -3.082  -7.337  0.00  0.00    -0.274 N 
ATOM     23  C   UNL     1       5.007  -4.225  -6.772  0.00  0.00    +0.252 C 
ATOM     24  O   UNL     1       3.820  -4.487  -6.770  0.00  0.00    -0.270 OA
BRANCH  23  25
ATOM     25  C   UNL     1       5.970  -5.159  -6.158  0.00  0.00    +0.082 A 
ATOM     26  C   UNL     1       6.860  -4.707  -5.180  0.00  0.00    +0.017 A 
ATOM     27  C   UNL     1       7.757  -5.582  -4.607  0.00  0.00    +0.005 A 
ATOM     28  C   UNL     1       7.783  -6.912  -4.996  0.00  0.00    +0.049 A 
ATOM     29  C   UNL     1       6.908  -7.374  -5.964  0.00  0.00    +0.159 A 
ATOM     30  C   UNL     1       5.992  -6.503  -6.547  0.00  0.00    +0.171 A 
BRANCH  30  31
ATOM     31  O   UNL     1       5.128  -6.954  -7.492  0.00  0.00    -0.503 OA
ATOM     32  H   UNL     1       5.466  -6.893  -8.396  0.00  0.00    +0.292 HD
ENDBRANCH  30  31
BRANCH  29  33
ATOM     33  O   UNL     1       6.939  -8.681  -6.341  0.00  0.00    -0.503 OA
ATOM     34  H   UNL     1       6.358  -9.254  -5.822  0.00  0.00    +0.292 HD
ENDBRANCH  29  33
ENDBRANCH  23  25
BRANCH  22  35
ATOM     35  C   UNL     1       6.881  -2.825  -7.454  0.00  0.00    +0.183 C 
BRANCH  35  36
ATOM     36  C   UNL     1       7.367  -3.296  -8.801  0.00  0.00    +0.122 A 
ATOM     37  C   UNL     1       7.409  -2.557  -9.924  0.00  0.00    +0.046 A 
ATOM     38  C   UNL     1       7.929  -3.389 -10.942  0.00  0.00    +0.041 A 
ATOM     39  C   UNL     1       8.174  -4.586 -10.381  0.00  0.00    +0.195 A 
ATOM     40  O   UNL     1       7.837  -4.522  -9.082  0.00  0.00    -0.466 OA
ENDBRANCH  35  36
ENDBRANCH  22  35
ENDBRANCH   1  22
TORSDOF 12
