REMARK  Name = ZINC35523155
REMARK  11 active torsions:
REMARK  status: ('A' for Active; 'I' for Inactive)
REMARK    1  A    between atoms: C_1  and  N_2
REMARK    2  A    between atoms: N_2  and  C_3
REMARK    3  A    between atoms: C_3  and  C_4
REMARK    4  A    between atoms: C_4  and  C_5
REMARK    5  A    between atoms: C_8  and  O_13
REMARK    6  A    between atoms: C_9  and  O_11
REMARK    7  A    between atoms: O_11  and  C_12
REMARK    8  A    between atoms: O_13  and  C_14
REMARK    9  A    between atoms: C_15  and  C_17
REMARK   10  A    between atoms: C_17  and  N_18
REMARK   11  A    between atoms: C_26  and  C_28
REMARK                            x       y       z     vdW  Elec       q    Type
REMARK                         _______ _______ _______ _____ _____    ______ ____
ROOT
ATOM      1  N   UNL     1      -0.020  -0.860  -3.591  0.00  0.00    +0.395 N 
ATOM      2  C   UNL     1       1.241  -1.612  -3.591  0.00  0.00    -0.055 C 
ATOM      3  C   UNL     1       1.134  -2.809  -4.545  0.00  0.00    +0.103 C 
ATOM      4  N   UNL     1       0.642  -2.316  -5.838  0.00  0.00    -0.353 N 
ATOM      5  C   UNL     1       0.677  -2.939  -7.042  0.00  0.00    +0.086 A 
ATOM      6  C   UNL     1       0.120  -2.117  -7.958  0.00  0.00    +0.019 A 
ATOM      7  C   UNL     1      -0.275  -0.940  -7.286  0.00  0.00    +0.021 A 
ATOM      8  C   UNL     1       0.053  -1.089  -5.994  0.00  0.00    +0.009 A 
ATOM      9  C   UNL     1      -0.164  -0.120  -4.857  0.00  0.00    +0.011 C 
ATOM     10  H   UNL     1      -0.792  -1.502  -3.489  0.00  0.00    -0.080 HD
ENDROOT
BRANCH   9  11
ATOM     11  C   UNL     1      -1.547   0.470  -4.948  0.00  0.00    -0.054 A 
ATOM     12  C   UNL     1      -2.639  -0.258  -4.512  0.00  0.00    +0.004 A 
ATOM     13  C   UNL     1      -3.908   0.282  -4.595  0.00  0.00    +0.021 A 
ATOM     14  C   UNL     1      -4.087   1.552  -5.114  0.00  0.00    +0.059 A 
ATOM     15  C   UNL     1      -2.994   2.281  -5.550  0.00  0.00    +0.059 A 
ATOM     16  C   UNL     1      -1.723   1.741  -5.461  0.00  0.00    +0.023 A 
ATOM     17 CL   UNL     1      -3.217   3.874  -6.202  0.00  0.00    -0.082 Cl
ATOM     18 CL   UNL     1      -5.681   2.231  -5.219  0.00  0.00    -0.082 Cl
ENDBRANCH   9  11
BRANCH   1  19
ATOM     19  C   UNL     1      -0.023   0.089  -2.470  0.00  0.00    +0.020 C 
BRANCH  19  22
ATOM     20  C   UNL     1      -0.018   1.461   0.010  0.00  0.00    +0.132 C 
ATOM     21  N   UNL     1       0.002  -0.004   0.002  0.00  0.00    -0.306 N 
ATOM     22  C   UNL     1       0.000  -0.672  -1.169  0.00  0.00    +0.199 C 
ATOM     23  O   UNL     1       0.017  -1.884  -1.175  0.00  0.00    -0.278 OA
BRANCH  21  24
ATOM     24  C   UNL     1       0.024  -0.743   1.267  0.00  0.00    +0.112 C 
BRANCH  24  25
ATOM     25  C   UNL     1      -1.411  -1.020   1.720  0.00  0.00    +0.054 C 
BRANCH  25  26
ATOM     26  C   UNL     1      -1.388  -1.781   3.021  0.00  0.00    -0.042 A 
ATOM     27  C   UNL     1      -1.363  -3.163   3.012  0.00  0.00    +0.007 A 
ATOM     28  C   UNL     1      -1.343  -3.865   4.203  0.00  0.00    +0.049 A 
ATOM     29  C   UNL     1      -1.346  -3.183   5.409  0.00  0.00    +0.161 A 
ATOM     30  C   UNL     1      -1.370  -1.792   5.418  0.00  0.00    +0.162 A 
ATOM     31  C   UNL     1      -1.386  -1.095   4.221  0.00  0.00    +0.053 A 
BRANCH  30  32
ATOM     32  O   UNL     1      -1.373  -1.119   6.600  0.00  0.00    -0.491 OA
ATOM     33  C   UNL     1      -1.398   0.308   6.533  0.00  0.00    +0.277 C 
ENDBRANCH  30  32
BRANCH  29  34
ATOM     34  O   UNL     1      -1.326  -3.873   6.581  0.00  0.00    -0.491 OA
ATOM     35  C   UNL     1      -1.302  -5.299   6.495  0.00  0.00    +0.277 C 
ENDBRANCH  29  34
ENDBRANCH  25  26
ENDBRANCH  24  25
ENDBRANCH  21  24
ENDBRANCH  19  22
ENDBRANCH   1  19
TORSDOF 8
