REMARK  Name = ZINC39550211
REMARK  6 active torsions:
REMARK  status: ('A' for Active; 'I' for Inactive)
REMARK    1  A    between atoms: C_1  and  C_2
REMARK    2  A    between atoms: C_2  and  N_3
REMARK    3  A    between atoms: C_10  and  O_32
REMARK    4  A    between atoms: C_12  and  C_16
REMARK    5  A    between atoms: N_18  and  C_19
REMARK    6  A    between atoms: C_21  and  O_31
REMARK                            x       y       z     vdW  Elec       q    Type
REMARK                         _______ _______ _______ _____ _____    ______ ____
ROOT
ATOM      1  C   UNL     1      -4.371  -0.078  -1.050  0.00  0.00    +0.229 C 
ATOM      2  O   UNL     1      -5.149  -0.016  -0.121  0.00  0.00    -0.275 OA
ATOM      3  N   UNL     1      -4.353   0.899  -1.979  0.00  0.00    -0.297 N 
ATOM      4  H   UNL     1      -3.732   0.850  -2.722  0.00  0.00    +0.150 HD
ENDROOT
BRANCH   3   5
ATOM      5  C   UNL     1      -5.272   2.034  -1.866  0.00  0.00    +0.226 C 
ATOM      6  C   UNL     1      -5.560   2.541  -3.266  0.00  0.00    +0.132 C 
ATOM      7  C   UNL     1      -5.253   3.877  -3.533  0.00  0.00    +0.036 A 
ATOM      8  C   UNL     1      -5.489   4.429  -4.809  0.00  0.00    +0.013 A 
ATOM      9  C   UNL     1      -5.181   5.734  -5.043  0.00  0.00    +0.001 A 
ATOM     10  C   UNL     1      -4.636   6.538  -4.047  0.00  0.00    +0.002 A 
ATOM     11  C   UNL     1      -4.385   6.060  -2.796  0.00  0.00    +0.024 A 
ATOM     12  C   UNL     1      -4.678   4.722  -2.483  0.00  0.00    +0.044 A 
ATOM     13  N   UNL     1      -4.431   4.255  -1.253  0.00  0.00    -0.283 N 
ATOM     14  C   UNL     1      -4.678   3.016  -0.882  0.00  0.00    +0.245 C 
ATOM     15  O   UNL     1      -4.427   2.661   0.255  0.00  0.00    -0.273 OA
ATOM     16  H   UNL     1      -4.050   4.863  -0.599  0.00  0.00    +0.155 HD
BRANCH   6  17
ATOM     17  O   UNL     1      -6.085   1.744  -4.203  0.00  0.00    -0.508 OA
ATOM     18  H   UNL     1      -6.223   2.178  -5.056  0.00  0.00    +0.292 HD
ENDBRANCH   6  17
ENDBRANCH   3   5
BRANCH   1  27
ATOM     19  N   UNL     1      -1.372  -0.511   0.012  0.00  0.00    -0.271 N 
ATOM     20  C   UNL     1      -2.014  -0.753   1.231  0.00  0.00    +0.042 A 
ATOM     21  C   UNL     1      -1.536  -0.174   2.399  0.00  0.00    +0.024 A 
ATOM     22  C   UNL     1      -2.175  -0.416   3.599  0.00  0.00    +0.002 A 
ATOM     23  C   UNL     1      -3.289  -1.234   3.638  0.00  0.00    +0.000 A 
ATOM     24  C   UNL     1      -3.768  -1.812   2.477  0.00  0.00    +0.008 A 
ATOM     25  C   UNL     1      -3.134  -1.573   1.274  0.00  0.00    +0.003 A 
ATOM     26  C   UNL     1      -3.652  -2.200   0.006  0.00  0.00    +0.167 C 
ATOM     27  C   UNL     1      -3.426  -1.246  -1.166  0.00  0.00    +0.194 C 
ATOM     28  C   UNL     1      -2.010  -0.736  -1.151  0.00  0.00    +0.235 C 
ATOM     29  O   UNL     1      -1.436  -0.531  -2.199  0.00  0.00    -0.274 OA
BRANCH  19  31
ATOM     30  C   UNL     1      -0.019   1.526   0.010  0.00  0.00    +0.025 C 
ATOM     31  C   UNL     1       0.002  -0.004   0.002  0.00  0.00    +0.110 C 
ENDBRANCH  19  31
BRANCH  26  32
ATOM     32  O   UNL     1      -5.050  -2.464   0.143  0.00  0.00    -0.386 OA
ATOM     33  H   UNL     1      -5.268  -3.064   0.869  0.00  0.00    +0.210 HD
ENDBRANCH  26  32
ENDBRANCH   1  27
TORSDOF 5
