REMARK  Name = ZINC40033838
REMARK  10 active torsions:
REMARK  status: ('A' for Active; 'I' for Inactive)
REMARK    1  A    between atoms: C_1  and  C_2
REMARK    2  A    between atoms: N_4  and  C_5
REMARK    3  A    between atoms: C_5  and  C_7
REMARK    4  A    between atoms: C_5  and  C_21
REMARK    5  A    between atoms: C_7  and  C_8
REMARK    6  A    between atoms: N_10  and  C_11
REMARK    7  A    between atoms: C_13  and  C_19
REMARK    8  A    between atoms: C_13  and  C_20
REMARK    9  A    between atoms: C_15  and  C_17
REMARK   10  A    between atoms: C_15  and  C_18
REMARK                            x       y       z     vdW  Elec       q    Type
REMARK                         _______ _______ _______ _____ _____    ______ ____
ROOT
ATOM      1  C   UNL     1      -1.166  -1.902   2.450  0.00  0.00    +0.215 C 
ATOM      2  O   UNL     1      -2.159  -1.213   2.347  0.00  0.00    -0.276 OA
ATOM      3  N   UNL     1      -0.739  -2.291   3.667  0.00  0.00    -0.312 N 
ATOM      4  H   UNL     1       0.055  -2.841   3.749  0.00  0.00    +0.149 HD
ENDROOT
BRANCH   3   5
ATOM      5  C   UNL     1      -1.476  -1.881   4.869  0.00  0.00    +0.070 C 
ATOM      6  C   UNL     1      -0.968  -0.513   5.328  0.00  0.00    +0.009 C 
ATOM      7  C   UNL     1      -1.718  -0.078   6.587  0.00  0.00    -0.072 C 
ATOM      8  N   UNL     1      -1.649  -1.080   7.640  0.00  0.00    +0.386 N 
ATOM      9  C   UNL     1      -1.914  -2.462   7.275  0.00  0.00    -0.072 C 
ATOM     10  C   UNL     1      -1.215  -2.889   5.988  0.00  0.00    +0.009 C 
ATOM     11  C   UNL     1      -3.415  -2.743   7.171  0.00  0.00    -0.010 C 
ATOM     12  C   UNL     1      -1.365  -3.356   8.413  0.00  0.00    -0.010 C 
ATOM     13  C   UNL     1      -3.159   0.297   6.241  0.00  0.00    -0.010 C 
ATOM     14  C   UNL     1      -1.026   1.201   7.113  0.00  0.00    -0.010 C 
ATOM     15  H   UNL     1      -0.721  -1.032   8.068  0.00  0.00    -0.084 HD
ATOM     16  H   UNL     1      -2.301  -0.812   8.382  0.00  0.00    -0.084 HD
ENDBRANCH   3   5
BRANCH   1  17
ATOM     17  C   UNL     1      -0.410  -2.322   1.216  0.00  0.00    +0.123 C 
BRANCH  17  18
ATOM     18  C   UNL     1      -1.100  -1.751  -0.025  0.00  0.00    +0.118 C 
BRANCH  18  22
ATOM     19  C   UNL     1       0.269   1.823   0.039  0.00  0.00    +0.109 C 
ATOM     20  C   UNL     1       0.185   0.319   0.013  0.00  0.00    +0.210 C 
ATOM     21  O   UNL     1       1.200  -0.345   0.002  0.00  0.00    -0.276 OA
ATOM     22  N   UNL     1      -1.018  -0.289   0.001  0.00  0.00    -0.308 N 
ATOM     23  H   UNL     1      -1.830   0.243   0.009  0.00  0.00    +0.149 HD
ENDBRANCH  18  22
BRANCH  18  24
ATOM     24  C   UNL     1      -0.417  -2.271  -1.264  0.00  0.00    +0.010 A 
ATOM     25  C   UNL     1      -0.795  -3.279  -2.087  0.00  0.00    +0.013 A 
ATOM     26  C   UNL     1      -0.004  -3.585  -3.179  0.00  0.00    +0.008 A 
ATOM     27  C   UNL     1       1.126  -2.869  -3.393  0.00  0.00    +0.045 A 
ATOM     28  S   UNL     1       1.095  -1.714  -2.031  0.00  0.00    -0.100 S 
ENDBRANCH  18  24
ENDBRANCH  17  18
ENDBRANCH   1  17
TORSDOF 5
