REMARK  Name = ZINC39710533
REMARK  13 active torsions:
REMARK  status: ('A' for Active; 'I' for Inactive)
REMARK    1  A    between atoms: C_1  and  C_2
REMARK    2  A    between atoms: C_2  and  C_3
REMARK    3  A    between atoms: C_10  and  C_15
REMARK    4  A    between atoms: C_15  and  C_17
REMARK    5  A    between atoms: C_15  and  N_26
REMARK    6  A    between atoms: N_21  and  C_22
REMARK    7  A    between atoms: C_22  and  C_23
REMARK    8  A    between atoms: C_23  and  O_24
REMARK    9  A    between atoms: O_24  and  C_25
REMARK   10  A    between atoms: N_26  and  C_27
REMARK   11  A    between atoms: N_26  and  C_34
REMARK   12  A    between atoms: C_27  and  C_28
REMARK   13  A    between atoms: C_34  and  C_35
REMARK                            x       y       z     vdW  Elec       q    Type
REMARK                         _______ _______ _______ _____ _____    ______ ____
ROOT
ATOM      1  C   UNL     1      -6.730  -1.436  -2.084  0.00  0.00    +0.143 C 
ENDROOT
BRANCH   1   9
ATOM      2  C   UNL     1      -2.381  -1.667   1.799  0.00  0.00    -0.047 A 
ATOM      3  C   UNL     1      -3.271  -1.617   2.872  0.00  0.00    +0.005 A 
ATOM      4  C   UNL     1      -4.611  -1.788   2.721  0.00  0.00    +0.024 A 
ATOM      5  C   UNL     1      -5.162  -2.026   1.448  0.00  0.00    +0.040 A 
ATOM      6  N   UNL     1      -6.477  -2.190   1.312  0.00  0.00    -0.284 N 
ATOM      7  C   UNL     1      -7.059  -2.417   0.146  0.00  0.00    +0.226 C 
ATOM      8  O   UNL     1      -8.266  -2.560   0.084  0.00  0.00    -0.275 OA
ATOM      9  C   UNL     1      -6.220  -2.499  -1.109  0.00  0.00    +0.123 C 
ATOM     10  C   UNL     1      -4.723  -2.312  -0.959  0.00  0.00    -0.003 C 
ATOM     11  C   UNL     1      -4.244  -2.083   0.297  0.00  0.00    -0.007 A 
ATOM     12  C   UNL     1      -2.813  -1.886   0.531  0.00  0.00    +0.013 A 
ATOM     13  H   UNL     1      -7.034  -2.142   2.105  0.00  0.00    +0.155 HD
BRANCH   2  15
ATOM     14  C   UNL     1      -0.595   0.029   2.085  0.00  0.00    +0.009 C 
ATOM     15  C   UNL     1      -0.909  -1.468   2.053  0.00  0.00    +0.032 C 
ENDBRANCH   2  15
ENDBRANCH   1   9
BRANCH   1  16
ATOM     16  C   UNL     1      -5.816  -1.373  -3.281  0.00  0.00    +0.170 A 
ATOM     17  N   UNL     1      -5.652  -2.303  -4.190  0.00  0.00    -0.112 NA
ATOM     18  N   UNL     1      -4.790  -1.874  -5.047  0.00  0.00    -0.023 NA
ATOM     19  N   UNL     1      -4.400  -0.695  -4.707  0.00  0.00    -0.044 NA
ATOM     20  N   UNL     1      -5.014  -0.349  -3.627  0.00  0.00    -0.225 N 
BRANCH  20  21
ATOM     21  C   UNL     1      -4.864   0.919  -2.909  0.00  0.00    +0.175 C 
BRANCH  21  22
ATOM     22  C   UNL     1      -3.648   0.840  -1.982  0.00  0.00    +0.183 C 
BRANCH  22  23
ATOM     23  O   UNL     1      -3.563   2.036  -1.205  0.00  0.00    -0.381 OA
ATOM     24  C   UNL     1      -2.394   2.115  -0.388  0.00  0.00    +0.194 C 
ENDBRANCH  22  23
ENDBRANCH  21  22
ENDBRANCH  20  21
ENDBRANCH   1  16
BRANCH   1  25
ATOM     25  N   UNL     1      -8.087  -1.786  -2.523  0.00  0.00    -0.283 NA
BRANCH  25  26
ATOM     26  C   UNL     1      -9.097  -1.053  -1.747  0.00  0.00    +0.120 C 
BRANCH  26  27
ATOM     27  C   UNL     1      -9.198   0.359  -2.263  0.00  0.00    -0.033 A 
ATOM     28  C   UNL     1      -8.480   1.371  -1.654  0.00  0.00    +0.005 A 
ATOM     29  C   UNL     1      -8.574   2.667  -2.128  0.00  0.00    +0.000 A 
ATOM     30  C   UNL     1      -9.385   2.950  -3.210  0.00  0.00    +0.000 A 
ATOM     31  C   UNL     1     -10.103   1.938  -3.820  0.00  0.00    +0.000 A 
ATOM     32  C   UNL     1     -10.006   0.642  -3.349  0.00  0.00    +0.005 A 
ENDBRANCH  26  27
ENDBRANCH  25  26
BRANCH  25  33
ATOM     33  C   UNL     1      -8.311  -3.236  -2.440  0.00  0.00    +0.122 C 
BRANCH  33  34
ATOM     34  C   UNL     1      -7.669  -3.911  -3.625  0.00  0.00    -0.015 A 
ATOM     35  C   UNL     1      -8.346  -4.006  -4.831  0.00  0.00    +0.008 A 
ATOM     36  C   UNL     1      -7.716  -4.636  -5.893  0.00  0.00    +0.020 A 
ATOM     37  C   UNL     1      -6.443  -5.145  -5.716  0.00  0.00    +0.111 A 
ATOM     38  N   UNL     1      -5.830  -5.037  -4.554  0.00  0.00    -0.263 NA
ATOM     39  C   UNL     1      -6.395  -4.438  -3.524  0.00  0.00    +0.115 A 
ENDBRANCH  33  34
ENDBRANCH  25  33
ENDBRANCH   1  25
TORSDOF 11
