REMARK  Name = ZINC41513572
REMARK  16 active torsions:
REMARK  status: ('A' for Active; 'I' for Inactive)
REMARK    1  A    between atoms: C_1  and  C_2
REMARK    2  A    between atoms: C_4  and  O_32
REMARK    3  A    between atoms: C_5  and  C_22
REMARK    4  A    between atoms: C_11  and  C_12
REMARK    5  A    between atoms: C_15  and  C_18
REMARK    6  A    between atoms: C_18  and  C_19
REMARK    7  A    between atoms: C_18  and  C_20
REMARK    8  A    between atoms: C_22  and  N_23
REMARK    9  A    between atoms: N_23  and  C_24
REMARK   10  A    between atoms: N_23  and  C_28
REMARK   11  A    between atoms: C_24  and  C_25
REMARK   12  A    between atoms: C_25  and  C_26
REMARK   13  A    between atoms: C_25  and  C_27
REMARK   14  A    between atoms: C_28  and  C_29
REMARK   15  A    between atoms: C_29  and  C_30
REMARK   16  A    between atoms: C_29  and  C_31
REMARK                            x       y       z     vdW  Elec       q    Type
REMARK                         _______ _______ _______ _____ _____    ______ ____
ROOT
ATOM      1  C   UNL     1      -2.670   0.527   1.258  0.00  0.00    +0.045 C 
ATOM      2  C   UNL     1      -1.895  -0.740   1.000  0.00  0.00    -0.033 A 
ATOM      3  C   UNL     1      -1.975  -1.355  -0.217  0.00  0.00    +0.050 A 
ATOM      4  C   UNL     1      -1.261  -2.525  -0.458  0.00  0.00    +0.122 A 
ATOM      5  C   UNL     1      -0.463  -3.079   0.530  0.00  0.00    +0.020 A 
ATOM      6  C   UNL     1      -0.370  -2.467   1.773  0.00  0.00    +0.145 A 
ATOM      7  C   UNL     1      -1.092  -1.284   2.003  0.00  0.00    +0.071 A 
ATOM      8  C   UNL     1      -0.791  -0.875   3.387  0.00  0.00    +0.232 C 
ATOM      9  O   UNL     1      -1.216   0.097   3.987  0.00  0.00    -0.283 OA
ATOM     10  C   UNL     1       0.137  -1.905   3.882  0.00  0.00    +0.176 C 
ATOM     11  C   UNL     1       0.694  -1.955   5.117  0.00  0.00    +0.058 C 
ATOM     12  O   UNL     1       0.324  -2.800   2.883  0.00  0.00    -0.451 OA
ENDROOT
BRANCH  11  13
ATOM     13  C   UNL     1       0.538  -0.821   6.040  0.00  0.00    -0.021 A 
ATOM     14  C   UNL     1       0.286  -1.049   7.397  0.00  0.00    +0.008 A 
ATOM     15  C   UNL     1       0.141   0.020   8.256  0.00  0.00    +0.004 A 
ATOM     16  C   UNL     1       0.244   1.315   7.779  0.00  0.00    -0.045 A 
ATOM     17  C   UNL     1       0.493   1.549   6.437  0.00  0.00    +0.004 A 
ATOM     18  C   UNL     1       0.647   0.491   5.566  0.00  0.00    +0.008 A 
BRANCH  16  19
ATOM     19  C   UNL     1       0.084   2.477   8.725  0.00  0.00    +0.013 C 
ATOM     20  C   UNL     1       1.364   3.315   8.725  0.00  0.00    +0.012 C 
ATOM     21  C   UNL     1      -1.093   3.344   8.273  0.00  0.00    +0.012 C 
ENDBRANCH  16  19
ENDBRANCH  11  13
BRANCH   4  22
ATOM     22  O   UNL     1      -1.348  -3.129  -1.671  0.00  0.00    -0.506 OA
ATOM     23  H   UNL     1      -0.687  -2.826  -2.308  0.00  0.00    +0.292 HD
ENDBRANCH   4  22
BRANCH   5  24
ATOM     24  C   UNL     1       0.304  -4.347   0.256  0.00  0.00    -0.036 C 
BRANCH  24  25
ATOM     25  N   UNL     1       1.440  -4.051  -0.628  0.00  0.00    +0.383 N 
ATOM     26  H   UNL     1       1.109  -3.570  -1.451  0.00  0.00    -0.081 HD
BRANCH  25  27
ATOM     27  C   UNL     1       2.403  -3.199   0.082  0.00  0.00    -0.075 C 
BRANCH  27  28
ATOM     28  C   UNL     1       1.994  -1.733  -0.066  0.00  0.00    -0.034 C 
ATOM     29  C   UNL     1       2.911  -0.858   0.791  0.00  0.00    +0.005 C 
ATOM     30  C   UNL     1       2.115  -1.315  -1.533  0.00  0.00    +0.005 C 
ENDBRANCH  27  28
ENDBRANCH  25  27
BRANCH  25  31
ATOM     31  C   UNL     1       2.093  -5.306  -1.023  0.00  0.00    -0.075 C 
BRANCH  31  32
ATOM     32  C   UNL     1       3.163  -5.014  -2.076  0.00  0.00    -0.034 C 
ATOM     33  C   UNL     1       3.903  -6.307  -2.424  0.00  0.00    +0.005 C 
ATOM     34  C   UNL     1       2.500  -4.452  -3.335  0.00  0.00    +0.005 C 
ENDBRANCH  31  32
ENDBRANCH  25  31
ENDBRANCH  24  25
ENDBRANCH   5  24
TORSDOF 9
