REMARK  Name = ZINC36618841
REMARK  7 active torsions:
REMARK  status: ('A' for Active; 'I' for Inactive)
REMARK    1  A    between atoms: C_1  and  C_2
REMARK    2  A    between atoms: C_2  and  O_3
REMARK    3  A    between atoms: O_3  and  C_4
REMARK    4  A    between atoms: C_9  and  C_10
REMARK    5  A    between atoms: C_13  and  C_24
REMARK    6  A    between atoms: C_19  and  N_23
REMARK    7  A    between atoms: C_20  and  C_21
REMARK                            x       y       z     vdW  Elec       q    Type
REMARK                         _______ _______ _______ _____ _____    ______ ____
ROOT
ATOM      1  C   UNL     1       1.834  -1.742  -3.380  0.00  0.00    +0.105 C 
ATOM      2  C   UNL     1       3.333  -1.842  -3.490  0.00  0.00    +0.054 A 
ATOM      3  C   UNL     1       4.316  -1.403  -2.598  0.00  0.00    +0.102 A 
ATOM      4  N   UNL     1       5.494  -1.707  -3.110  0.00  0.00    -0.171 NA
ATOM      5  N   UNL     1       5.288  -2.347  -4.342  0.00  0.00    -0.246 N 
ATOM      6  H   UNL     1       5.981  -2.679  -4.935  0.00  0.00    +0.192 HD
ATOM      7  C   UNL     1       3.958  -2.420  -4.557  0.00  0.00    +0.223 A 
ATOM      8  O   UNL     1       3.279  -2.947  -5.606  0.00  0.00    -0.423 OA
ATOM      9  C   UNL     1       1.968  -2.651  -5.713  0.00  0.00    +0.200 C 
ATOM     10  C   UNL     1       1.239  -2.089  -4.722  0.00  0.00    +0.098 C 
ENDROOT
BRANCH   3  11
ATOM     11  C   UNL     1       4.078  -0.717  -1.304  0.00  0.00    +0.021 A 
ATOM     12  C   UNL     1       3.191   0.355  -1.234  0.00  0.00    +0.011 A 
ATOM     13  C   UNL     1       2.972   0.989  -0.028  0.00  0.00    +0.001 A 
ATOM     14  C   UNL     1       3.632   0.563   1.111  0.00  0.00    +0.001 A 
ATOM     15  C   UNL     1       4.514  -0.500   1.049  0.00  0.00    +0.020 A 
ATOM     16  C   UNL     1       4.736  -1.147  -0.152  0.00  0.00    +0.050 A 
ATOM     17 CL   UNL     1       5.839  -2.485  -0.229  0.00  0.00    -0.083 Cl
ENDBRANCH   3  11
BRANCH   1  23
ATOM     18  C   UNL     1       0.535  -2.256  -1.298  0.00  0.00    +0.125 A 
ATOM     19  C   UNL     1       0.072  -3.149  -0.342  0.00  0.00    +0.046 A 
ATOM     20  C   UNL     1       0.412  -4.486  -0.426  0.00  0.00    +0.004 A 
ATOM     21  C   UNL     1       1.213  -4.933  -1.460  0.00  0.00    +0.001 A 
ATOM     22  C   UNL     1       1.676  -4.045  -2.413  0.00  0.00    +0.008 A 
ATOM     23  C   UNL     1       1.334  -2.709  -2.338  0.00  0.00    +0.007 A 
BRANCH  18  24
ATOM     24  O   UNL     1       0.202  -0.941  -1.218  0.00  0.00    -0.492 OA
BRANCH  24  26
ATOM     25  C   UNL     1      -0.733   0.987  -0.100  0.00  0.00    +0.048 C 
ATOM     26  C   UNL     1      -0.565  -0.534  -0.083  0.00  0.00    +0.225 C 
ENDBRANCH  24  26
ENDBRANCH  18  24
ENDBRANCH   1  23
BRANCH   9  27
ATOM     27  N   UNL     1       1.336  -2.934  -6.899  0.00  0.00    -0.328 N 
ATOM     28  H   UNL     1       1.832  -3.336  -7.629  0.00  0.00    +0.145 HD
ATOM     29  H   UNL     1       0.393  -2.733  -7.006  0.00  0.00    +0.145 HD
ENDBRANCH   9  27
BRANCH  10  30
ATOM     30  C   UNL     1      -0.148  -1.815  -4.954  0.00  0.00    +0.101 C 
ATOM     31  N   UNL     1      -1.247  -1.597  -5.138  0.00  0.00    -0.191 NA
ENDBRANCH  10  30
TORSDOF 6
