REMARK  Name = ZINC15376891
REMARK  10 active torsions:
REMARK  status: ('A' for Active; 'I' for Inactive)
REMARK    1  A    between atoms: C_1  and  C_2
REMARK    2  A    between atoms: C_8  and  C_9
REMARK    3  A    between atoms: C_8  and  N_65
REMARK    4  A    between atoms: N_11  and  C_12
REMARK    5  A    between atoms: C_14  and  S_22
REMARK    6  A    between atoms: C_17  and  O_18
REMARK    7  A    between atoms: O_18  and  C_19
REMARK    8  A    between atoms: C_19  and  C_20
REMARK    9  A    between atoms: C_19  and  C_21
REMARK   10  A    between atoms: S_22  and  N_25
REMARK                            x       y       z     vdW  Elec       q    Type
REMARK                         _______ _______ _______ _____ _____    ______ ____
ROOT
ATOM      1  C   UNL     1       1.074  -0.880  -0.426  0.00  0.00    +0.077 A 
ATOM      2  C   UNL     1       0.241   0.228  -0.479  0.00  0.00    +0.055 A 
ATOM      3  C   UNL     1       0.749   1.486  -0.217  0.00  0.00    +0.107 A 
ATOM      4  C   UNL     1       2.086   1.644   0.098  0.00  0.00    +0.032 A 
ATOM      5  C   UNL     1       2.922   0.545   0.153  0.00  0.00    +0.049 A 
ATOM      6  C   UNL     1       2.421  -0.720  -0.108  0.00  0.00    +0.142 A 
ENDROOT
BRANCH   1   9
ATOM      7  C   UNL     1      -0.497  -2.301  -1.512  0.00  0.00    +0.201 C 
ATOM      8  O   UNL     1      -1.061  -1.322  -1.952  0.00  0.00    -0.278 OA
ATOM      9  N   UNL     1       0.562  -2.157  -0.691  0.00  0.00    -0.284 N 
ATOM     10  H   UNL     1       0.969  -2.938  -0.283  0.00  0.00    +0.155 HD
BRANCH   7  11
ATOM     11  C   UNL     1      -0.982  -3.680  -1.882  0.00  0.00    +0.019 C 
BRANCH  11  18
ATOM     12  C   UNL     1      -5.673  -2.202  -1.865  0.00  0.00    +0.005 C 
ATOM     13  C   UNL     1      -4.538  -2.771  -2.720  0.00  0.00    -0.031 C 
ATOM     14  C   UNL     1      -4.980  -4.100  -3.337  0.00  0.00    -0.001 C 
ATOM     15  C   UNL     1      -3.819  -4.691  -4.142  0.00  0.00    -0.018 C 
ATOM     16  C   UNL     1      -2.607  -4.870  -3.223  0.00  0.00    -0.078 C 
ATOM     17  C   UNL     1      -3.306  -3.005  -1.843  0.00  0.00    -0.075 C 
ATOM     18  N   UNL     1      -2.218  -3.551  -2.681  0.00  0.00    +0.386 N 
ATOM     19  H   UNL     1      -2.044  -2.908  -3.462  0.00  0.00    -0.081 HD
ENDBRANCH  11  18
ENDBRANCH   7  11
ENDBRANCH   1   9
BRANCH   3  20
ATOM     20  S   UNL     1      -0.309   2.894  -0.292  0.00  0.00    +0.061 S 
ATOM     21  O   UNL     1       0.526   4.016  -0.540  0.00  0.00    -0.153 OA
ATOM     22  O   UNL     1      -1.389   2.544  -1.146  0.00  0.00    -0.153 OA
BRANCH  20  23
ATOM     23  N   UNL     1      -0.950   3.106   1.220  0.00  0.00    -0.177 NA
ATOM     24  C   UNL     1      -2.215   2.459   1.594  0.00  0.00    +0.109 C 
ATOM     25  C   UNL     1      -1.992   1.660   2.887  0.00  0.00    +0.017 C 
ATOM     26  C   UNL     1      -1.419   2.588   3.961  0.00  0.00    +0.003 C 
ATOM     27  C   UNL     1      -0.069   3.137   3.495  0.00  0.00    +0.017 C 
ATOM     28  C   UNL     1      -0.267   3.949   2.211  0.00  0.00    +0.109 C 
ENDBRANCH  20  23
ENDBRANCH   3  20
BRANCH   6  29
ATOM     29  O   UNL     1       3.242  -1.803  -0.055  0.00  0.00    -0.488 OA
BRANCH  29  30
ATOM     30  C   UNL     1       4.631  -1.553   0.168  0.00  0.00    +0.167 C 
ATOM     31  C   UNL     1       4.895  -1.440   1.670  0.00  0.00    +0.051 C 
ATOM     32  C   UNL     1       5.455  -2.706  -0.409  0.00  0.00    +0.051 C 
ENDBRANCH  29  30
ENDBRANCH   6  29
TORSDOF 7
