REMARK  Name = ZINC48041002
REMARK  10 active torsions:
REMARK  status: ('A' for Active; 'I' for Inactive)
REMARK    1  A    between atoms: C_1  and  C_2
REMARK    2  A    between atoms: C_5  and  C_8
REMARK    3  A    between atoms: C_8  and  C_9
REMARK    4  A    between atoms: C_8  and  O_15
REMARK    5  A    between atoms: O_15  and  C_16
REMARK    6  A    between atoms: C_16  and  C_17
REMARK    7  A    between atoms: C_17  and  C_18
REMARK    8  A    between atoms: C_17  and  O_27
REMARK    9  A    between atoms: C_18  and  N_19
REMARK   10  A    between atoms: C_22  and  C_24
REMARK                            x       y       z     vdW  Elec       q    Type
REMARK                         _______ _______ _______ _____ _____    ______ ____
ROOT
ATOM      1  C   UNL     1      -1.390  -6.034   0.721  0.00  0.00    +0.190 C 
ENDROOT
BRANCH   1   2
ATOM      2  O   UNL     1      -0.795  -4.768   1.013  0.00  0.00    -0.365 OA
BRANCH   2   3
ATOM      3  C   UNL     1       0.059  -4.275  -0.021  0.00  0.00    +0.178 C 
BRANCH   3   8
ATOM      4  C   UNL     1      -0.018   1.503   0.010  0.00  0.00    +0.044 C 
ATOM      5  C   UNL     1       0.002  -0.004   0.002  0.00  0.00    -0.050 A 
ATOM      6  C   UNL     1       0.006  -0.689  -1.199  0.00  0.00    +0.004 A 
ATOM      7  C   UNL     1       0.025  -2.071  -1.206  0.00  0.00    +0.007 A 
ATOM      8  C   UNL     1       0.040  -2.768  -0.013  0.00  0.00    -0.014 A 
ATOM      9  C   UNL     1       0.037  -2.084   1.188  0.00  0.00    +0.007 A 
ATOM     10  C   UNL     1       0.023  -0.702   1.195  0.00  0.00    +0.004 A 
ENDBRANCH   3   8
BRANCH   3  11
ATOM     11  C   UNL     1       1.466  -4.761   0.215  0.00  0.00    -0.015 A 
ATOM     12  C   UNL     1       1.942  -4.899   1.505  0.00  0.00    +0.006 A 
ATOM     13  C   UNL     1       3.233  -5.345   1.722  0.00  0.00    +0.000 A 
ATOM     14  C   UNL     1       4.047  -5.652   0.648  0.00  0.00    +0.000 A 
ATOM     15  C   UNL     1       3.571  -5.514  -0.642  0.00  0.00    +0.000 A 
ATOM     16  C   UNL     1       2.279  -5.073  -0.859  0.00  0.00    +0.006 A 
ENDBRANCH   3  11
ENDBRANCH   2   3
ENDBRANCH   1   2
BRANCH   1  17
ATOM     17  C   UNL     1      -2.279  -6.462   1.890  0.00  0.00    +0.124 C 
BRANCH  17  18
ATOM     18  O   UNL     1      -1.469  -6.683   3.047  0.00  0.00    -0.391 OA
ATOM     19  H   UNL     1      -0.798  -7.369   2.933  0.00  0.00    +0.210 HD
ENDBRANCH  17  18
BRANCH  17  20
ATOM     20  C   UNL     1      -3.013  -7.754   1.527  0.00  0.00    -0.045 C 
BRANCH  20  21
ATOM     21  N   UNL     1      -3.955  -8.100   2.600  0.00  0.00    +0.382 N 
ATOM     22  C   UNL     1      -5.066  -7.116   2.643  0.00  0.00    -0.078 C 
ATOM     23  C   UNL     1      -6.195  -7.888   3.371  0.00  0.00    -0.008 C 
ATOM     24  C   UNL     1      -6.039  -9.326   2.825  0.00  0.00    +0.056 C 
ATOM     25  C   UNL     1      -4.585  -9.409   2.322  0.00  0.00    -0.066 C 
ATOM     26  H   UNL     1      -3.477  -8.126   3.488  0.00  0.00    -0.082 HD
BRANCH  24  27
ATOM     27  C   UNL     1      -6.270 -10.330   3.924  0.00  0.00    +0.212 C 
ATOM     28  O   UNL     1      -5.382 -11.089   4.249  0.00  0.00    -0.276 OA
ATOM     29  N   UNL     1      -7.465 -10.386   4.546  0.00  0.00    -0.329 N 
ATOM     30  H   UNL     1      -8.175  -9.779   4.286  0.00  0.00    +0.145 HD
ATOM     31  H   UNL     1      -7.614 -11.032   5.253  0.00  0.00    +0.145 HD
ENDBRANCH  24  27
ENDBRANCH  20  21
ENDBRANCH  17  20
ENDBRANCH   1  17
TORSDOF 9
