REMARK  Name = ZINC09192786
REMARK  10 active torsions:
REMARK  status: ('A' for Active; 'I' for Inactive)
REMARK    1  A    between atoms: C_1  and  C_2
REMARK    2  A    between atoms: C_2  and  O_3
REMARK    3  A    between atoms: O_3  and  C_4
REMARK    4  A    between atoms: C_7  and  C_10
REMARK    5  A    between atoms: C_17  and  N_33
REMARK    6  A    between atoms: C_18  and  C_31
REMARK    7  A    between atoms: C_19  and  C_21
REMARK    8  A    between atoms: C_23  and  O_29
REMARK    9  A    between atoms: C_24  and  O_28
REMARK   10  A    between atoms: O_29  and  C_30
REMARK                            x       y       z     vdW  Elec       q    Type
REMARK                         _______ _______ _______ _____ _____    ______ ____
ROOT
ATOM      1  C   UNL     1      -2.035  -6.181  -0.021  0.00  0.00    +0.100 A 
ATOM      2  C   UNL     1      -2.999  -6.852   0.738  0.00  0.00    +0.054 A 
ATOM      3  C   UNL     1      -2.866  -8.189   0.502  0.00  0.00    +0.223 A 
ATOM      4  N   UNL     1      -1.855  -8.353  -0.377  0.00  0.00    -0.246 N 
ATOM      5  H   UNL     1      -1.537  -9.199  -0.728  0.00  0.00    +0.192 HD
ATOM      6  N   UNL     1      -1.349  -7.083  -0.696  0.00  0.00    -0.171 NA
ATOM      7  O   UNL     1      -3.657  -9.119   1.093  0.00  0.00    -0.423 OA
ATOM      8  C   UNL     1      -4.410  -8.724   2.140  0.00  0.00    +0.200 C 
ATOM      9  C   UNL     1      -4.626  -7.430   2.466  0.00  0.00    +0.098 C 
ATOM     10  C   UNL     1      -4.037  -6.289   1.674  0.00  0.00    +0.102 C 
ENDROOT
BRANCH  10  11
ATOM     11  C   UNL     1      -5.122  -5.609   0.879  0.00  0.00    -0.030 A 
ATOM     12  C   UNL     1      -5.337  -4.251   1.027  0.00  0.00    +0.054 A 
ATOM     13  C   UNL     1      -6.334  -3.623   0.297  0.00  0.00    +0.163 A 
ATOM     14  C   UNL     1      -7.117  -4.363  -0.584  0.00  0.00    +0.173 A 
ATOM     15  C   UNL     1      -6.897  -5.723  -0.727  0.00  0.00    +0.063 A 
ATOM     16  C   UNL     1      -5.897  -6.343   0.001  0.00  0.00    +0.023 A 
ATOM     17 BR   UNL     1      -7.960  -6.732  -1.922  0.00  0.00    -0.046 Br
BRANCH  14  18
ATOM     18  O   UNL     1      -8.098  -3.751  -1.301  0.00  0.00    -0.503 OA
ATOM     19  H   UNL     1      -7.804  -3.412  -2.158  0.00  0.00    +0.292 HD
ENDBRANCH  14  18
BRANCH  13  20
ATOM     20  O   UNL     1      -6.546  -2.288   0.442  0.00  0.00    -0.491 OA
ATOM     21  C   UNL     1      -5.633  -1.572   1.276  0.00  0.00    +0.277 C 
ENDBRANCH  13  20
ENDBRANCH  10  11
BRANCH   1  25
ATOM     22  C   UNL     1      -1.433  -1.971  -0.145  0.00  0.00    +0.121 A 
ATOM     23  C   UNL     1      -1.391  -2.712  -1.318  0.00  0.00    +0.046 A 
ATOM     24  C   UNL     1      -1.585  -4.077  -1.281  0.00  0.00    +0.013 A 
ATOM     25  C   UNL     1      -1.825  -4.712  -0.064  0.00  0.00    +0.003 A 
ATOM     26  C   UNL     1      -1.866  -3.966   1.112  0.00  0.00    +0.013 A 
ATOM     27  C   UNL     1      -1.666  -2.602   1.070  0.00  0.00    +0.046 A 
BRANCH  22  28
ATOM     28  O   UNL     1      -1.241  -0.627  -0.184  0.00  0.00    -0.492 OA
BRANCH  28  30
ATOM     29  C   UNL     1      -0.814   1.468  -1.312  0.00  0.00    +0.048 C 
ATOM     30  C   UNL     1      -1.006  -0.042  -1.467  0.00  0.00    +0.225 C 
ENDBRANCH  28  30
ENDBRANCH  22  28
ENDBRANCH   1  25
BRANCH   8  31
ATOM     31  N   UNL     1      -4.992  -9.692   2.920  0.00  0.00    -0.328 N 
ATOM     32  H   UNL     1      -4.856 -10.630   2.711  0.00  0.00    +0.145 HD
ATOM     33  H   UNL     1      -5.540  -9.439   3.680  0.00  0.00    +0.145 HD
ENDBRANCH   8  31
BRANCH   9  34
ATOM     34  C   UNL     1      -5.442  -7.132   3.603  0.00  0.00    +0.101 C 
ATOM     35  N   UNL     1      -6.090  -6.895   4.506  0.00  0.00    -0.191 NA
ENDBRANCH   9  34
TORSDOF 8
