REMARK  Name = ZINC36500905
REMARK  10 active torsions:
REMARK  status: ('A' for Active; 'I' for Inactive)
REMARK    1  A    between atoms: C_1  and  C_2
REMARK    2  A    between atoms: C_5  and  C_8
REMARK    3  A    between atoms: C_8  and  C_10
REMARK    4  A    between atoms: C_8  and  N_19
REMARK    5  A    between atoms: N_12  and  C_13
REMARK    6  A    between atoms: N_19  and  C_20
REMARK    7  A    between atoms: C_20  and  C_21
REMARK    8  A    between atoms: C_26  and  C_28
REMARK    9  A    between atoms: C_32  and  O_35
REMARK   10  A    between atoms: C_33  and  O_34
REMARK                            x       y       z     vdW  Elec       q    Type
REMARK                         _______ _______ _______ _____ _____    ______ ____
ROOT
ATOM      1  N   UNL     1       1.274  -3.699  -2.554  0.00  0.00    -0.275 N 
ATOM      2  C   UNL     1       2.043  -2.621  -2.302  0.00  0.00    +0.252 C 
ATOM      3  O   UNL     1       2.093  -1.709  -3.106  0.00  0.00    -0.270 OA
ENDROOT
BRANCH   2   4
ATOM      4  C   UNL     1       2.823  -2.546  -1.053  0.00  0.00    +0.082 A 
ATOM      5  C   UNL     1       3.502  -3.673  -0.580  0.00  0.00    +0.017 A 
ATOM      6  C   UNL     1       4.231  -3.599   0.587  0.00  0.00    +0.005 A 
ATOM      7  C   UNL     1       4.295  -2.412   1.298  0.00  0.00    +0.049 A 
ATOM      8  C   UNL     1       3.627  -1.287   0.843  0.00  0.00    +0.159 A 
ATOM      9  C   UNL     1       2.892  -1.345  -0.337  0.00  0.00    +0.171 A 
BRANCH   9  10
ATOM     10  O   UNL     1       2.242  -0.243  -0.790  0.00  0.00    -0.503 OA
ATOM     11  H   UNL     1       1.337  -0.157  -0.460  0.00  0.00    +0.292 HD
ENDBRANCH   9  10
BRANCH   8  12
ATOM     12  O   UNL     1       3.695  -0.126   1.547  0.00  0.00    -0.503 OA
ATOM     13  H   UNL     1       4.429   0.448   1.289  0.00  0.00    +0.292 HD
ENDBRANCH   8  12
ENDBRANCH   2   4
BRANCH   1  14
ATOM     14  C   UNL     1       1.097  -4.727  -1.525  0.00  0.00    +0.193 C 
BRANCH  14  19
ATOM     15  C   UNL     1       3.171  -9.763  -3.458  0.00  0.00    +0.044 C 
ATOM     16  C   UNL     1       2.631  -8.449  -2.954  0.00  0.00    -0.050 A 
ATOM     17  C   UNL     1       2.127  -8.356  -1.670  0.00  0.00    +0.004 A 
ATOM     18  C   UNL     1       1.631  -7.152  -1.207  0.00  0.00    +0.006 A 
ATOM     19  C   UNL     1       1.639  -6.040  -2.029  0.00  0.00    -0.018 A 
ATOM     20  C   UNL     1       2.143  -6.133  -3.313  0.00  0.00    +0.006 A 
ATOM     21  C   UNL     1       2.643  -7.337  -3.773  0.00  0.00    +0.004 A 
ENDBRANCH  14  19
BRANCH  14  22
ATOM     22  C   UNL     1      -0.370  -4.876  -1.212  0.00  0.00    +0.238 C 
ATOM     23  O   UNL     1      -1.202  -4.526  -2.022  0.00  0.00    -0.273 OA
ATOM     24  N   UNL     1      -0.757  -5.398  -0.031  0.00  0.00    -0.311 N 
ATOM     25  H   UNL     1      -0.092  -5.678   0.617  0.00  0.00    +0.149 HD
BRANCH  24  26
ATOM     26  C   UNL     1      -2.183  -5.543   0.273  0.00  0.00    +0.073 C 
ATOM     27  C   UNL     1      -2.718  -4.229   0.846  0.00  0.00    +0.022 C 
ATOM     28  C   UNL     1      -4.207  -4.380   1.164  0.00  0.00    +0.002 C 
ATOM     29  C   UNL     1      -4.398  -5.499   2.190  0.00  0.00    +0.000 C 
ATOM     30  C   UNL     1      -3.863  -6.813   1.617  0.00  0.00    +0.002 C 
ATOM     31  C   UNL     1      -2.374  -6.662   1.299  0.00  0.00    +0.022 C 
ENDBRANCH  24  26
ENDBRANCH  14  22
ENDBRANCH   1  14
BRANCH   1  32
ATOM     32  C   UNL     1       0.617  -3.843  -3.855  0.00  0.00    +0.183 C 
BRANCH  32  33
ATOM     33  C   UNL     1      -0.210  -2.615  -4.138  0.00  0.00    +0.122 A 
ATOM     34  C   UNL     1       0.192  -1.541  -4.840  0.00  0.00    +0.046 A 
ATOM     35  C   UNL     1      -0.893  -0.634  -4.859  0.00  0.00    +0.041 A 
ATOM     36  C   UNL     1      -1.893  -1.209  -4.166  0.00  0.00    +0.195 A 
ATOM     37  O   UNL     1      -1.476  -2.411  -3.737  0.00  0.00    -0.466 OA
ENDBRANCH  32  33
ENDBRANCH   1  32
TORSDOF 9
