REMARK  Name = ZINC09494116
REMARK  6 active torsions:
REMARK  status: ('A' for Active; 'I' for Inactive)
REMARK    1  A    between atoms: C_1  and  C_2
REMARK    2  A    between atoms: C_14  and  C_16
REMARK    3  A    between atoms: C_16  and  N_17
REMARK    4  A    between atoms: C_20  and  C_24
REMARK    5  A    between atoms: C_20  and  C_31
REMARK    6  A    between atoms: C_24  and  C_25
REMARK                            x       y       z     vdW  Elec       q    Type
REMARK                         _______ _______ _______ _____ _____    ______ ____
ROOT
ATOM      1  N   UNL     1       2.606   2.620  -3.189  0.00  0.00    -0.215 N 
ATOM      2  C   UNL     1       3.091   3.346  -2.162  0.00  0.00    +0.252 C 
ATOM      3  O   UNL     1       2.786   4.479  -1.857  0.00  0.00    -0.272 OA
ATOM      4  C   UNL     1       4.097   2.450  -1.467  0.00  0.00    +0.142 C 
ATOM      5  N   UNL     1       4.059   1.207  -2.258  0.00  0.00    -0.281 N 
ATOM      6  C   UNL     1       3.160   1.404  -3.239  0.00  0.00    +0.310 C 
ATOM      7  O   UNL     1       2.882   0.569  -4.078  0.00  0.00    -0.252 OA
ATOM      8  H   UNL     1       4.580   0.404  -2.101  0.00  0.00    +0.152 HD
ENDROOT
BRANCH   4   9
ATOM      9  C   UNL     1       5.472   3.065  -1.508  0.00  0.00    -0.015 A 
ATOM     10  C   UNL     1       5.904   3.863  -0.465  0.00  0.00    +0.006 A 
ATOM     11  C   UNL     1       7.167   4.424  -0.500  0.00  0.00    +0.000 A 
ATOM     12  C   UNL     1       7.995   4.195  -1.583  0.00  0.00    +0.000 A 
ATOM     13  C   UNL     1       7.561   3.401  -2.629  0.00  0.00    +0.000 A 
ATOM     14  C   UNL     1       6.300   2.837  -2.591  0.00  0.00    +0.006 A 
ENDBRANCH   4   9
BRANCH   1  15
ATOM     15  C   UNL     1       1.596   3.104  -4.134  0.00  0.00    +0.214 C 
BRANCH  15  28
ATOM     16  C   UNL     1       1.693   2.627 -10.490  0.00  0.00    +0.019 C 
ATOM     17  C   UNL     1       1.254   3.391  -9.239  0.00  0.00    +0.050 C 
ATOM     18  C   UNL     1       2.477   3.972  -8.549  0.00  0.00    +0.033 C 
ATOM     19  C   UNL     1       2.190   4.957  -7.446  0.00  0.00    +0.115 C 
ATOM     20  N   UNL     1       1.543   4.299  -6.299  0.00  0.00    -0.269 N 
ATOM     21  C   UNL     1       0.146   4.227  -6.276  0.00  0.00    +0.050 A 
ATOM     22  C   UNL     1      -0.566   5.067  -5.418  0.00  0.00    +0.024 A 
ATOM     23  C   UNL     1      -1.948   5.042  -5.425  0.00  0.00    +0.002 A 
ATOM     24  C   UNL     1      -2.637   4.196  -6.275  0.00  0.00    +0.001 A 
ATOM     25  C   UNL     1      -1.938   3.344  -7.116  0.00  0.00    +0.016 A 
ATOM     26  C   UNL     1      -0.559   3.361  -7.095  0.00  0.00    +0.030 A 
ATOM     27  S   UNL     1       0.383   2.255  -8.119  0.00  0.00    -0.120 S 
ATOM     28  C   UNL     1       2.278   3.774  -5.299  0.00  0.00    +0.238 C 
ATOM     29  O   UNL     1       3.489   3.840  -5.337  0.00  0.00    -0.274 OA
ENDBRANCH  15  28
ENDBRANCH   1  15
BRANCH   4  30
ATOM     30  C   UNL     1       3.672   2.182  -0.022  0.00  0.00    +0.075 C 
BRANCH  30  31
ATOM     31  C   UNL     1       2.377   1.411  -0.015  0.00  0.00    -0.045 A 
ATOM     32  C   UNL     1       1.171   2.086   0.002  0.00  0.00    +0.004 A 
ATOM     33  C   UNL     1      -0.017   1.378   0.010  0.00  0.00    +0.000 A 
ATOM     34  C   UNL     1       0.002  -0.004   0.002  0.00  0.00    +0.000 A 
ATOM     35  C   UNL     1       1.208  -0.679  -0.013  0.00  0.00    +0.000 A 
ATOM     36  C   UNL     1       2.396   0.029  -0.021  0.00  0.00    +0.004 A 
ENDBRANCH  30  31
ENDBRANCH   4  30
TORSDOF 5
