REMARK  Name = ZINC01330908
REMARK  5 active torsions:
REMARK  status: ('A' for Active; 'I' for Inactive)
REMARK    1  A    between atoms: C_1  and  C_2
REMARK    2  A    between atoms: C_3  and  N_9
REMARK    3  A    between atoms: C_10  and  C_12
REMARK    4  A    between atoms: C_12  and  N_13
REMARK    5  A    between atoms: N_22  and  C_23
REMARK                            x       y       z     vdW  Elec       q    Type
REMARK                         _______ _______ _______ _____ _____    ______ ____
ROOT
ATOM      1  N   UNL     1       5.073  -4.240   0.285  0.00  0.00    -0.290 N 
ATOM      2  C   UNL     1       5.046  -4.997  -0.841  0.00  0.00    +0.204 A 
ATOM      3  N   UNL     1       4.727  -6.258  -0.841  0.00  0.00    -0.217 NA
ATOM      4  C   UNL     1       4.398  -6.906   0.287  0.00  0.00    +0.170 A 
ATOM      5  C   UNL     1       4.398  -6.205   1.504  0.00  0.00    +0.103 A 
ATOM      6  C   UNL     1       4.766  -4.790   1.483  0.00  0.00    +0.265 A 
ATOM      7  O   UNL     1       4.790  -4.128   2.506  0.00  0.00    -0.267 OA
ATOM      8  C   UNL     1       4.022  -7.115   2.510  0.00  0.00    +0.150 A 
ATOM      9  N   UNL     1       3.808  -8.276   1.955  0.00  0.00    -0.172 NA
ATOM     10  N   UNL     1       4.032  -8.185   0.576  0.00  0.00    -0.212 N 
ENDROOT
BRANCH  10  11
ATOM     11  C   UNL     1       3.902  -9.229  -0.349  0.00  0.00    +0.086 A 
ATOM     12  C   UNL     1       3.207  -9.027  -1.534  0.00  0.00    +0.029 A 
ATOM     13  C   UNL     1       3.080 -10.059  -2.443  0.00  0.00    +0.002 A 
ATOM     14  C   UNL     1       3.645 -11.293  -2.175  0.00  0.00    +0.002 A 
ATOM     15  C   UNL     1       4.337 -11.498  -0.996  0.00  0.00    +0.022 A 
ATOM     16  C   UNL     1       4.472 -10.469  -0.084  0.00  0.00    +0.066 A 
ATOM     17 CL   UNL     1       5.348 -10.725   1.393  0.00  0.00    -0.081 Cl
ENDBRANCH  10  11
BRANCH   1  18
ATOM     18  C   UNL     1       5.444  -2.825   0.204  0.00  0.00    +0.222 C 
BRANCH  18  20
ATOM     19  N   UNL     1       4.305  -0.655  -0.129  0.00  0.00    -0.284 N 
ATOM     20  C   UNL     1       4.207  -1.995  -0.022  0.00  0.00    +0.237 C 
ATOM     21  O   UNL     1       3.123  -2.532  -0.107  0.00  0.00    -0.274 OA
ATOM     22  H   UNL     1       5.177  -0.231  -0.129  0.00  0.00    +0.155 HD
BRANCH  19  25
ATOM     23  C   UNL     1       4.383   2.014   0.855  0.00  0.00    +0.047 C 
ATOM     24  C   UNL     1       3.143   1.432   0.227  0.00  0.00    -0.011 A 
ATOM     25  C   UNL     1       3.148   0.125  -0.241  0.00  0.00    +0.038 A 
ATOM     26  C   UNL     1       2.004  -0.408  -0.819  0.00  0.00    +0.023 A 
ATOM     27  C   UNL     1       0.863   0.364  -0.928  0.00  0.00    +0.003 A 
ATOM     28  C   UNL     1       0.860   1.665  -0.461  0.00  0.00    +0.020 A 
ATOM     29  C   UNL     1       1.999   2.200   0.116  0.00  0.00    +0.046 A 
ATOM     30 CL   UNL     1       1.990   3.834   0.700  0.00  0.00    -0.083 Cl
ENDBRANCH  19  25
ENDBRANCH  18  20
ENDBRANCH   1  18
TORSDOF 4
