REMARK  Name = ZINC08781390
REMARK  3 active torsions:
REMARK  status: ('A' for Active; 'I' for Inactive)
REMARK    1  A    between atoms: C_4  and  N_7
REMARK    2  A    between atoms: C_9  and  C_22
REMARK    3  A    between atoms: C_10  and  C_12
REMARK                            x       y       z     vdW  Elec       q    Type
REMARK                         _______ _______ _______ _____ _____    ______ ____
ROOT
ATOM      1  N   UNL     1       5.540   6.384   0.426  0.00  0.00    -0.239 N 
ATOM      2  C   UNL     1       4.718   5.317   0.369  0.00  0.00    +0.122 A 
ATOM      3  C   UNL     1       5.505   4.203   0.145  0.00  0.00    +0.018 A 
ATOM      4  C   UNL     1       6.845   4.649   0.060  0.00  0.00    +0.077 A 
ATOM      5  N   UNL     1       6.853   5.943   0.228  0.00  0.00    -0.170 NA
ENDROOT
BRANCH   3   6
ATOM      6  C   UNL     1       5.037   2.816   0.013  0.00  0.00    +0.031 C 
ATOM      7  C   UNL     1       3.869   2.552  -0.625  0.00  0.00    +0.079 C 
ATOM      8  C   UNL     1       2.990   3.463  -1.379  0.00  0.00    +0.265 C 
ATOM      9  O   UNL     1       3.260   4.643  -1.510  0.00  0.00    -0.269 OA
ATOM     10  N   UNL     1       1.896   2.942  -1.909  0.00  0.00    -0.193 N 
ATOM     11  C   UNL     1       1.610   1.599  -1.750  0.00  0.00    +0.166 C 
ATOM     12  N   UNL     1       0.586   0.928  -2.200  0.00  0.00    -0.279 NA
ATOM     13  S   UNL     1       2.981   1.008  -0.769  0.00  0.00    -0.049 S 
ATOM     14  C   UNL     1       1.024   3.756  -2.636  0.00  0.00    +0.219 A 
ATOM     15  C   UNL     1       1.143   4.087  -4.059  0.00  0.00    +0.203 A 
ATOM     16  N   UNL     1       0.149   4.866  -4.384  0.00  0.00    -0.032 NA
ATOM     17  O   UNL     1      -0.638   5.072  -3.224  0.00  0.00    -0.239 OA
ATOM     18  N   UNL     1      -0.040   4.345  -2.166  0.00  0.00    -0.031 NA
ATOM     19  N   UNL     1       2.146   3.645  -4.916  0.00  0.00    -0.338 N 
ATOM     20  H   UNL     1       0.507  -0.020  -2.013  0.00  0.00    +0.189 HD
ATOM     21  H   UNL     1       2.887   3.125  -4.568  0.00  0.00    +0.144 HD
ATOM     22  H   UNL     1       2.103   3.857  -5.862  0.00  0.00    +0.144 HD
ENDBRANCH   3   6
BRANCH   4  23
ATOM     23  C   UNL     1       8.053   3.781  -0.182  0.00  0.00    +0.016 C 
ATOM     24  C   UNL     1       8.168   2.744   0.936  0.00  0.00    +0.016 C 
ATOM     25  C   UNL     1       9.395   1.862   0.690  0.00  0.00    -0.010 C 
ATOM     26  C   UNL     1      10.652   2.733   0.670  0.00  0.00    +0.007 C 
ATOM     27  C   UNL     1      10.537   3.770  -0.449  0.00  0.00    -0.010 C 
ATOM     28  C   UNL     1       9.311   4.652  -0.203  0.00  0.00    +0.016 C 
ATOM     29  C   UNL     1      10.390   3.056  -1.793  0.00  0.00    +0.007 C 
ATOM     30  C   UNL     1       9.132   2.185  -1.773  0.00  0.00    -0.010 C 
ATOM     31  C   UNL     1       9.247   1.148  -0.654  0.00  0.00    +0.007 C 
ATOM     32  C   UNL     1       7.905   3.066  -1.527  0.00  0.00    +0.016 C 
ENDBRANCH   4  23
BRANCH   1  36
ATOM     33  C   UNL     1       4.367  10.332   1.067  0.00  0.00    +0.000 A 
ATOM     34  C   UNL     1       5.704  10.030   0.886  0.00  0.00    +0.002 A 
ATOM     35  C   UNL     1       6.096   8.723   0.673  0.00  0.00    +0.028 A 
ATOM     36  C   UNL     1       5.146   7.711   0.642  0.00  0.00    +0.065 A 
ATOM     37  C   UNL     1       3.803   8.018   0.819  0.00  0.00    +0.028 A 
ATOM     38  C   UNL     1       3.418   9.327   1.037  0.00  0.00    +0.002 A 
ENDBRANCH   1  36
TORSDOF 3
