REMARK  Name = ZINC08948138
REMARK  16 active torsions:
REMARK  status: ('A' for Active; 'I' for Inactive)
REMARK    1  A    between atoms: C_1  and  C_2
REMARK    2  A    between atoms: C_2  and  C_3
REMARK    3  A    between atoms: C_3  and  N_4
REMARK    4  A    between atoms: N_9  and  C_17
REMARK    5  A    between atoms: C_12  and  S_14
REMARK    6  A    between atoms: S_14  and  C_15
REMARK    7  A    between atoms: C_15  and  C_16
REMARK    8  A    between atoms: C_17  and  C_18
REMARK    9  A    between atoms: C_18  and  N_19
REMARK   10  A    between atoms: C_20  and  C_22
REMARK   11  A    between atoms: C_25  and  S_28
REMARK   12  A    between atoms: S_28  and  N_31
REMARK   13  A    between atoms: N_31  and  C_32
REMARK   14  A    between atoms: N_31  and  C_34
REMARK   15  A    between atoms: C_32  and  C_33
REMARK   16  A    between atoms: C_34  and  C_35
REMARK                            x       y       z     vdW  Elec       q    Type
REMARK                         _______ _______ _______ _____ _____    ______ ____
ROOT
ATOM      1  C   UNL     1      -2.026   3.638  -1.393  0.00  0.00    +0.128 C 
ENDROOT
BRANCH   1   2
ATOM      2  N   UNL     1      -2.530   5.014  -1.378  0.00  0.00    -0.310 N 
ATOM      3  C   UNL     1      -2.777   5.654  -2.538  0.00  0.00    +0.244 C 
ATOM      4  O   UNL     1      -2.582   5.089  -3.597  0.00  0.00    -0.270 OA
ATOM      5  H   UNL     1      -2.685   5.465  -0.533  0.00  0.00    +0.149 HD
BRANCH   3   6
ATOM      6  C   UNL     1      -3.284   7.042  -2.523  0.00  0.00    +0.037 A 
ATOM      7  C   UNL     1      -3.514   7.691  -1.309  0.00  0.00    +0.015 A 
ATOM      8  C   UNL     1      -3.983   8.989  -1.302  0.00  0.00    +0.029 A 
ATOM      9  C   UNL     1      -4.236   9.643  -2.495  0.00  0.00    +0.106 A 
ATOM     10  C   UNL     1      -4.016   9.003  -3.701  0.00  0.00    +0.029 A 
ATOM     11  C   UNL     1      -3.541   7.708  -3.723  0.00  0.00    +0.015 A 
BRANCH   9  12
ATOM     12  S   UNL     1      -4.840  11.298  -2.477  0.00  0.00    +0.061 S 
ATOM     13  O   UNL     1      -4.446  11.861  -1.233  0.00  0.00    -0.153 OA
ATOM     14  O   UNL     1      -4.479  11.876  -3.724  0.00  0.00    -0.153 OA
BRANCH  12  15
ATOM     15  N   UNL     1      -6.494  11.215  -2.455  0.00  0.00    -0.177 NA
BRANCH  15  16
ATOM     16  C   UNL     1      -7.209  11.170  -1.177  0.00  0.00    +0.106 C 
ATOM     17  C   UNL     1      -7.639  12.585  -0.784  0.00  0.00    +0.022 C 
ENDBRANCH  15  16
BRANCH  15  18
ATOM     18  C   UNL     1      -7.243  11.185  -3.714  0.00  0.00    +0.106 C 
ATOM     19  C   UNL     1      -7.539   9.734  -4.098  0.00  0.00    +0.022 C 
ENDBRANCH  15  18
ENDBRANCH  12  15
ENDBRANCH   9  12
ENDBRANCH   3   6
ENDBRANCH   1   2
BRANCH   1  20
ATOM     20  C   UNL     1      -1.832   3.151   0.045  0.00  0.00    +0.164 C 
BRANCH  20  26
ATOM     21  N   UNL     1       1.326  -2.037  -0.021  0.00  0.00    -0.328 N 
ATOM     22  C   UNL     1       1.251  -0.658  -0.014  0.00  0.00    +0.134 A 
ATOM     23  C   UNL     1       0.002  -0.004   0.002  0.00  0.00    +0.078 A 
ATOM     24  C   UNL     1      -1.342  -0.436   0.013  0.00  0.00    +0.148 A 
ATOM     25  N   UNL     1      -2.113   0.614   0.026  0.00  0.00    -0.177 NA
ATOM     26  N   UNL     1      -1.329   1.775   0.030  0.00  0.00    -0.245 N 
ATOM     27  C   UNL     1      -0.017   1.404   0.010  0.00  0.00    +0.164 A 
ATOM     28  N   UNL     1       1.140   2.064   0.002  0.00  0.00    -0.202 NA
ATOM     29  C   UNL     1       2.289   1.409  -0.013  0.00  0.00    +0.192 A 
ATOM     30  N   UNL     1       2.353   0.082  -0.021  0.00  0.00    -0.206 NA
ATOM     31  H   UNL     1       0.514  -2.567  -0.016  0.00  0.00    +0.147 HD
BRANCH  21  32
ATOM     32  C   UNL     1       2.633  -2.699  -0.038  0.00  0.00    +0.102 C 
BRANCH  32  34
ATOM     33  C   UNL     1       3.800  -4.908  -0.061  0.00  0.00    +0.005 C 
ATOM     34  C   UNL     1       2.435  -4.216  -0.044  0.00  0.00    +0.015 C 
ENDBRANCH  32  34
ENDBRANCH  21  32
BRANCH  29  35
ATOM     35  S   UNL     1       3.791   2.331  -0.024  0.00  0.00    -0.086 S 
BRANCH  35  36
ATOM     36  C   UNL     1       4.991   0.976  -0.043  0.00  0.00    +0.074 C 
ATOM     37  C   UNL     1       6.409   1.550  -0.055  0.00  0.00    +0.016 C 
ENDBRANCH  35  36
ENDBRANCH  29  35
ENDBRANCH  20  26
ENDBRANCH   1  20
TORSDOF 12
