REMARK  Name = ZINC63126859
REMARK  7 active torsions:
REMARK  status: ('A' for Active; 'I' for Inactive)
REMARK    1  A    between atoms: C_1  and  C_2
REMARK    2  A    between atoms: C_2  and  C_4
REMARK    3  A    between atoms: C_2  and  N_11
REMARK    4  A    between atoms: C_9  and  O_10
REMARK    5  A    between atoms: C_13  and  C_21
REMARK    6  A    between atoms: C_21  and  C_22
REMARK    7  A    between atoms: C_22  and  N_23
REMARK                            x       y       z     vdW  Elec       q    Type
REMARK                         _______ _______ _______ _____ _____    ______ ____
ROOT
ATOM      1  N   UNL     1       0.644  -0.390  -1.257  0.00  0.00    -0.322 N 
ATOM      2  C   UNL     1       1.785  -1.303  -1.372  0.00  0.00    +0.114 C 
ATOM      3  C   UNL     1       2.085  -1.385  -2.877  0.00  0.00    +0.036 C 
ATOM      4  C   UNL     1       1.056  -0.482  -3.519  0.00  0.00    -0.022 A 
ATOM      5  C   UNL     1       0.255   0.052  -2.522  0.00  0.00    +0.034 A 
ATOM      6  C   UNL     1      -0.780   0.920  -2.876  0.00  0.00    +0.023 A 
ATOM      7  C   UNL     1      -1.001   1.234  -4.200  0.00  0.00    +0.002 A 
ATOM      8  C   UNL     1      -0.200   0.692  -5.188  0.00  0.00    +0.000 A 
ATOM      9  C   UNL     1       0.833  -0.161  -4.844  0.00  0.00    +0.006 A 
ENDROOT
BRANCH   1  11
ATOM     10  C   UNL     1       0.083   1.514   0.171  0.00  0.00    +0.033 C 
ATOM     11  C   UNL     1       0.002  -0.004   0.002  0.00  0.00    +0.104 C 
BRANCH  11  12
ATOM     12  C   UNL     1      -1.443  -0.430  -0.020  0.00  0.00    +0.014 A 
ATOM     13  C   UNL     1      -2.439   0.511  -0.194  0.00  0.00    +0.009 A 
ATOM     14  C   UNL     1      -3.765   0.121  -0.213  0.00  0.00    +0.001 A 
ATOM     15  C   UNL     1      -4.098  -1.213  -0.059  0.00  0.00    +0.004 A 
ATOM     16  C   UNL     1      -3.106  -2.158   0.114  0.00  0.00    +0.046 A 
ATOM     17  C   UNL     1      -1.774  -1.769   0.129  0.00  0.00    +0.122 A 
BRANCH  17  18
ATOM     18  O   UNL     1      -0.796  -2.698   0.294  0.00  0.00    -0.506 OA
ATOM     19  H   UNL     1      -0.558  -2.859   1.217  0.00  0.00    +0.292 HD
ENDBRANCH  17  18
ENDBRANCH  11  12
ENDBRANCH   1  11
BRANCH   3  20
ATOM     20  C   UNL     1       3.499  -0.879  -3.169  0.00  0.00    -0.010 C 
BRANCH  20  21
ATOM     21  C   UNL     1       3.820  -1.086  -4.650  0.00  0.00    -0.086 C 
BRANCH  21  22
ATOM     22  N   UNL     1       5.177  -0.600  -4.930  0.00  0.00    +0.378 N 
ATOM     23  H   UNL     1       5.235   0.383  -4.707  0.00  0.00    -0.090 HD
ATOM     24  H   UNL     1       5.840  -1.112  -4.368  0.00  0.00    -0.090 HD
ATOM     25  H   UNL     1       5.389  -0.736  -5.907  0.00  0.00    -0.090 HD
ENDBRANCH  21  22
ENDBRANCH  20  21
ENDBRANCH   3  20
TORSDOF 6
