REMARK  Name = ZINC67183429
REMARK  10 active torsions:
REMARK  status: ('A' for Active; 'I' for Inactive)
REMARK    1  A    between atoms: C_1  and  N_2
REMARK    2  A    between atoms: C_4  and  C_11
REMARK    3  A    between atoms: N_7  and  C_10
REMARK    4  A    between atoms: C_11  and  N_12
REMARK    5  A    between atoms: N_12  and  C_13
REMARK    6  A    between atoms: C_13  and  C_14
REMARK    7  A    between atoms: C_14  and  C_16
REMARK    8  A    between atoms: C_14  and  N_24
REMARK    9  A    between atoms: C_19  and  O_22
REMARK   10  A    between atoms: O_22  and  C_23
REMARK                            x       y       z     vdW  Elec       q    Type
REMARK                         _______ _______ _______ _____ _____    ______ ____
ROOT
ATOM      1  C   UNL     1      -3.674  -4.470  -1.506  0.00  0.00    -0.058 C 
ENDROOT
BRANCH   1   2
ATOM      2  N   UNL     1      -2.407  -3.729  -1.587  0.00  0.00    +0.383 N 
ATOM      3  H   UNL     1      -2.599  -2.751  -1.742  0.00  0.00    -0.085 HD
ATOM      4  H   UNL     1      -1.855  -4.089  -2.350  0.00  0.00    -0.085 HD
BRANCH   2   5
ATOM      5  C   UNL     1      -1.666  -3.889  -0.329  0.00  0.00    -0.040 C 
BRANCH   5   9
ATOM      6  C   UNL     1       1.007   0.167   0.517  0.00  0.00    +0.153 C 
ATOM      7  N   UNL     1       0.910  -1.197  -0.009  0.00  0.00    -0.303 N 
ATOM      8  C   UNL     1      -0.278  -1.873   0.074  0.00  0.00    +0.097 A 
ATOM      9  C   UNL     1      -0.367  -3.129  -0.411  0.00  0.00    +0.016 A 
ATOM     10  C   UNL     1       0.776  -3.724  -0.998  0.00  0.00    +0.258 A 
ATOM     11  O   UNL     1       0.720  -4.857  -1.442  0.00  0.00    -0.267 OA
ATOM     12  N   UNL     1       1.927  -3.026  -1.060  0.00  0.00    -0.264 N 
ATOM     13  C   UNL     1       1.987  -1.772  -0.574  0.00  0.00    +0.331 A 
ATOM     14  O   UNL     1       3.031  -1.152  -0.641  0.00  0.00    -0.246 OA
ATOM     15  C   UNL     1       3.116  -3.631  -1.665  0.00  0.00    +0.157 C 
ENDBRANCH   5   9
ENDBRANCH   2   5
ENDBRANCH   1   2
BRANCH   1  16
ATOM     16  C   UNL     1      -4.446  -4.303  -2.816  0.00  0.00    +0.070 C 
BRANCH  16  17
ATOM     17  C   UNL     1      -5.797  -4.959  -2.690  0.00  0.00    -0.032 A 
ATOM     18  C   UNL     1      -6.590  -4.700  -1.587  0.00  0.00    +0.009 A 
ATOM     19  C   UNL     1      -7.828  -5.300  -1.469  0.00  0.00    +0.046 A 
ATOM     20  C   UNL     1      -8.276  -6.164  -2.458  0.00  0.00    +0.120 A 
ATOM     21  C   UNL     1      -7.479  -6.423  -3.563  0.00  0.00    +0.046 A 
ATOM     22  C   UNL     1      -6.243  -5.816  -3.679  0.00  0.00    +0.009 A 
BRANCH  20  23
ATOM     23  O   UNL     1      -9.494  -6.756  -2.343  0.00  0.00    -0.495 OA
ATOM     24  C   UNL     1      -9.890  -7.634  -3.399  0.00  0.00    +0.277 C 
ENDBRANCH  20  23
ENDBRANCH  16  17
BRANCH  16  25
ATOM     25  N   UNL     1      -4.621  -2.873  -3.103  0.00  0.00    -0.293 NA
ATOM     26  C   UNL     1      -5.407  -2.217  -2.049  0.00  0.00    +0.113 C 
ATOM     27  C   UNL     1      -5.514  -0.721  -2.357  0.00  0.00    +0.175 C 
ATOM     28  O   UNL     1      -6.094  -0.546  -3.652  0.00  0.00    -0.377 OA
ATOM     29  C   UNL     1      -5.353  -1.172  -4.703  0.00  0.00    +0.175 C 
ATOM     30  C   UNL     1      -5.244  -2.673  -4.420  0.00  0.00    +0.113 C 
ENDBRANCH  16  25
ENDBRANCH   1  16
TORSDOF 7
