REMARK  Name = ZINC15184149
REMARK  6 active torsions:
REMARK  status: ('A' for Active; 'I' for Inactive)
REMARK    1  A    between atoms: C_3  and  C_9
REMARK    2  A    between atoms: C_9  and  N_44
REMARK    3  A    between atoms: C_10  and  C_11
REMARK    4  A    between atoms: C_10  and  N_44
REMARK    5  A    between atoms: C_11  and  C_12
REMARK    6  A    between atoms: C_12  and  N_13
REMARK                            x       y       z     vdW  Elec       q    Type
REMARK                         _______ _______ _______ _____ _____    ______ ____
ROOT
ATOM      1  C   UNL     1      -2.207   0.938  -1.076  0.00  0.00    +0.000 C 
ENDROOT
BRANCH   1   2
ATOM      2  C   UNL     1      -0.795   1.527  -1.120  0.00  0.00    -0.081 C 
BRANCH   2   3
ATOM      3  N   UNL     1      -0.015   0.998   0.015  0.00  0.00    +0.382 N 
ATOM      4  H   UNL     1      -0.475   1.261   0.894  0.00  0.00    -0.085 HD
ATOM      5  H   UNL     1       0.032  -0.025  -0.054  0.00  0.00    -0.085 HD
BRANCH   3   6
ATOM      6  C   UNL     1       1.353   1.550  -0.003  0.00  0.00    -0.045 C 
BRANCH   6   9
ATOM      7  C   UNL     1       3.786  -0.498   2.032  0.00  0.00    +0.002 A 
ATOM      8  C   UNL     1       3.077   0.013   0.960  0.00  0.00    +0.003 A 
ATOM      9  C   UNL     1       2.125   0.993   1.166  0.00  0.00    -0.045 A 
ATOM     10  C   UNL     1       1.884   1.467   2.443  0.00  0.00    +0.061 A 
ATOM     11  C   UNL     1       2.590   0.951   3.516  0.00  0.00    +0.059 A 
ATOM     12  C   UNL     1       3.543  -0.030   3.309  0.00  0.00    +0.021 A 
ATOM     13 CL   UNL     1       2.285   1.540   5.120  0.00  0.00    -0.082 Cl
ATOM     14 CL   UNL     1       0.692   2.703   2.701  0.00  0.00    -0.082 Cl
ENDBRANCH   6   9
ENDBRANCH   3   6
ENDBRANCH   2   3
ENDBRANCH   1   2
BRANCH   1  15
ATOM     15  C   UNL     1      -3.023   1.482  -2.250  0.00  0.00    +0.116 C 
BRANCH  15  16
ATOM     16  N   UNL     1      -4.375   0.918  -2.208  0.00  0.00    -0.224 N 
ATOM     17  C   UNL     1      -5.413   1.483  -1.554  0.00  0.00    +0.246 C 
ATOM     18  O   UNL     1      -5.407   2.513  -0.914  0.00  0.00    -0.273 OA
ATOM     19  C   UNL     1      -6.581   0.559  -1.789  0.00  0.00    +0.113 C 
ATOM     20  C   UNL     1      -7.724   1.288  -2.509  0.00  0.00    +0.035 C 
ATOM     21  C   UNL     1      -9.007   0.658  -1.907  0.00  0.00    +0.003 C 
ATOM     22  C   UNL     1      -8.623   0.447  -0.420  0.00  0.00    +0.003 C 
ATOM     23  C   UNL     1      -7.138   0.021  -0.469  0.00  0.00    +0.035 C 
ATOM     24  N   UNL     1      -6.035  -0.518  -2.618  0.00  0.00    -0.285 N 
ATOM     25  C   UNL     1      -4.736  -0.219  -2.817  0.00  0.00    +0.309 C 
ATOM     26  O   UNL     1      -3.977  -0.905  -3.473  0.00  0.00    -0.252 OA
ATOM     27  H   UNL     1      -6.514  -1.289  -2.959  0.00  0.00    +0.151 HD
ENDBRANCH  15  16
ENDBRANCH   1  15
TORSDOF 6
