REMARK  Name = ZINC10828553
REMARK  11 active torsions:
REMARK  status: ('A' for Active; 'I' for Inactive)
REMARK    1  A    between atoms: C_1  and  N_2
REMARK    2  A    between atoms: N_2  and  C_3
REMARK    3  A    between atoms: C_3  and  C_4
REMARK    4  A    between atoms: C_15  and  C_17
REMARK    5  A    between atoms: C_17  and  S_18
REMARK    6  A    between atoms: S_18  and  C_19
REMARK    7  A    between atoms: N_29  and  C_30
REMARK    8  A    between atoms: C_30  and  C_31
REMARK    9  A    between atoms: C_31  and  C_32
REMARK   10  A    between atoms: C_32  and  O_34
REMARK   11  A    between atoms: O_34  and  C_35
REMARK                            x       y       z     vdW  Elec       q    Type
REMARK                         _______ _______ _______ _____ _____    ______ ____
ROOT
ATOM      1  S   UNL     1       0.917   7.645   0.033  0.00  0.00    -0.078 S 
ENDROOT
BRANCH   1   2
ATOM      2  C   UNL     1       1.019   5.886   0.023  0.00  0.00    +0.173 A 
ATOM      3  N   UNL     1      -0.095   5.196   0.030  0.00  0.00    -0.223 NA
ATOM      4  C   UNL     1      -0.091   3.848   0.023  0.00  0.00    +0.079 A 
ATOM      5  C   UNL     1      -1.280   3.111   0.030  0.00  0.00    +0.028 A 
ATOM      6  C   UNL     1      -1.229   1.746   0.017  0.00  0.00    +0.002 A 
ATOM      7  C   UNL     1      -0.013   1.076   0.008  0.00  0.00    +0.001 A 
ATOM      8  C   UNL     1       1.167   1.768   0.000  0.00  0.00    +0.015 A 
ATOM      9  C   UNL     1       1.145   3.162   0.008  0.00  0.00    +0.065 A 
ATOM     10  C   UNL     1       2.380   3.958   0.001  0.00  0.00    +0.262 A 
ATOM     11  O   UNL     1       3.474   3.425  -0.012  0.00  0.00    -0.267 OA
ATOM     12  N   UNL     1       2.255   5.305   0.009  0.00  0.00    -0.287 N 
BRANCH  12  13
ATOM     13  C   UNL     1       3.454   6.147   0.002  0.00  0.00    +0.138 C 
BRANCH  13  14
ATOM     14  C   UNL     1       3.858   6.448  -1.443  0.00  0.00    +0.142 C 
BRANCH  14  15
ATOM     15  C   UNL     1       5.091   7.314  -1.450  0.00  0.00    +0.309 C 
ATOM     16  O   UNL     1       5.596   7.655  -0.406  0.00  0.00    -0.251 OA
BRANCH  15  17
ATOM     17  O   UNL     1       5.629   7.705  -2.615  0.00  0.00    -0.468 OA
ATOM     18  C   UNL     1       6.817   8.538  -2.546  0.00  0.00    +0.280 C 
ENDBRANCH  15  17
ENDBRANCH  14  15
ENDBRANCH  13  14
ENDBRANCH  12  13
ENDBRANCH   1   2
BRANCH   1  19
ATOM     19  C   UNL     1      -0.880   7.856   0.051  0.00  0.00    +0.173 C 
BRANCH  19  22
ATOM     20  C   UNL     1      -3.576   8.729   0.081  0.00  0.00    +0.132 C 
ATOM     21  N   UNL     1      -2.501   9.725   0.076  0.00  0.00    -0.300 N 
ATOM     22  C   UNL     1      -1.214   9.325   0.062  0.00  0.00    +0.226 C 
ATOM     23  O   UNL     1      -0.323  10.149   0.057  0.00  0.00    -0.275 OA
BRANCH  21  24
ATOM     24  C   UNL     1      -2.825  11.153   0.086  0.00  0.00    +0.155 C 
BRANCH  24  25
ATOM     25  C   UNL     1      -2.951  11.658  -1.353  0.00  0.00    +0.228 C 
ATOM     26  C   UNL     1      -3.261  13.161  -1.349  0.00  0.00    +0.275 C 
ATOM     27  O   UNL     1      -3.359  13.602  -2.708  0.00  0.00    -0.485 OA
ATOM     28  C   UNL     1      -2.381  13.186  -3.558  0.00  0.00    +0.162 A 
ATOM     29  C   UNL     1      -2.205  13.842  -4.767  0.00  0.00    +0.049 A 
ATOM     30  C   UNL     1      -1.220  13.427  -5.643  0.00  0.00    +0.004 A 
ATOM     31  C   UNL     1      -0.407  12.357  -5.317  0.00  0.00    +0.004 A 
ATOM     32  C   UNL     1      -0.576  11.700  -4.113  0.00  0.00    +0.049 A 
ATOM     33  C   UNL     1      -1.562  12.112  -3.229  0.00  0.00    +0.163 A 
ATOM     34  O   UNL     1      -1.714  11.457  -2.046  0.00  0.00    -0.480 OA
ENDBRANCH  24  25
ENDBRANCH  21  24
ENDBRANCH  19  22
ENDBRANCH   1  19
TORSDOF 9
