REMARK  Name = ZINC21083172
REMARK  9 active torsions:
REMARK  status: ('A' for Active; 'I' for Inactive)
REMARK    1  A    between atoms: C_1  and  C_2
REMARK    2  A    between atoms: C_2  and  C_25
REMARK    3  A    between atoms: N_3  and  N_4
REMARK    4  A    between atoms: C_7  and  S_10
REMARK    5  A    between atoms: S_10  and  C_11
REMARK    6  A    between atoms: C_11  and  C_12
REMARK    7  A    between atoms: C_12  and  C_13
REMARK    8  A    between atoms: N_15  and  C_16
REMARK    9  A    between atoms: C_19  and  N_22
REMARK                            x       y       z     vdW  Elec       q    Type
REMARK                         _______ _______ _______ _____ _____    ______ ____
ROOT
ATOM      1  N   UNL     1      -2.441   1.307   0.027  0.00  0.00    -0.205 N 
ATOM      2  C   UNL     1      -1.128   1.754   0.021  0.00  0.00    +0.232 A 
ATOM      3  N   UNL     1      -0.011   0.965   0.019  0.00  0.00    -0.186 NA
ATOM      4  C   UNL     1       1.083   1.783   0.009  0.00  0.00    +0.210 A 
ATOM      5  N   UNL     1       0.661   3.025   0.009  0.00  0.00    -0.144 NA
ATOM      6  N   UNL     1      -0.740   3.006   0.021  0.00  0.00    -0.245 N 
ATOM      7  H   UNL     1      -2.655   0.228   0.030  0.00  0.00    +0.177 HD
ATOM      8  H   UNL     1      -1.487   3.813   0.029  0.00  0.00    +0.192 HD
ENDROOT
BRANCH   1  11
ATOM      9  C   UNL     1      -5.019   0.333   0.037  0.00  0.00    +0.068 C 
ATOM     10  C   UNL     1      -4.726   1.811   0.033  0.00  0.00    +0.070 C 
ATOM     11  N   UNL     1      -3.495   2.230   0.028  0.00  0.00    -0.184 NA
BRANCH  10  12
ATOM     12  C   UNL     1      -5.830   2.778   0.034  0.00  0.00    +0.035 A 
ATOM     13  C   UNL     1      -5.779   4.160   0.031  0.00  0.00    +0.017 A 
ATOM     14  C   UNL     1      -6.965   4.859   0.032  0.00  0.00    +0.008 A 
ATOM     15  C   UNL     1      -8.138   4.176   0.037  0.00  0.00    +0.046 A 
ATOM     16  S   UNL     1      -7.590   2.477   0.033  0.00  0.00    -0.095 S 
ENDBRANCH  10  12
ENDBRANCH   1  11
BRANCH   4  17
ATOM     17  S   UNL     1       2.766   1.262  -0.005  0.00  0.00    -0.084 S 
BRANCH  17  18
ATOM     18  C   UNL     1       3.707   2.813  -0.016  0.00  0.00    +0.086 C 
BRANCH  18  19
ATOM     19  C   UNL     1       5.204   2.501  -0.028  0.00  0.00    +0.107 C 
BRANCH  19  20
ATOM     20  C   UNL     1       5.985   3.790  -0.037  0.00  0.00    +0.218 C 
ATOM     21  O   UNL     1       5.401   4.853  -0.034  0.00  0.00    -0.275 OA
ATOM     22  N   UNL     1       7.333   3.761  -0.048  0.00  0.00    -0.285 N 
ATOM     23  H   UNL     1       7.863   2.801   0.026  0.00  0.00    +0.155 HD
BRANCH  22  24
ATOM     24  C   UNL     1       8.057   4.954  -0.154  0.00  0.00    +0.034 A 
ATOM     25  C   UNL     1       9.254   4.981  -0.857  0.00  0.00    +0.025 A 
ATOM     26  C   UNL     1       9.964   6.161  -0.965  0.00  0.00    +0.034 A 
ATOM     27  C   UNL     1       9.489   7.312  -0.364  0.00  0.00    +0.126 A 
ATOM     28  C   UNL     1       8.300   7.287   0.342  0.00  0.00    +0.034 A 
ATOM     29  C   UNL     1       7.583   6.112   0.448  0.00  0.00    +0.025 A 
BRANCH  27  30
ATOM     30  N   UNL     1      10.255   8.574  -0.476  0.00  0.00    +0.056 N 
ATOM     31  O   UNL     1       9.838   9.589   0.053  0.00  0.00    -0.126 OA
ATOM     32  O   UNL     1      11.303   8.597  -1.097  0.00  0.00    -0.126 OA
ENDBRANCH  27  30
ENDBRANCH  22  24
ENDBRANCH  19  20
ENDBRANCH  18  19
ENDBRANCH  17  18
ENDBRANCH   4  17
TORSDOF 8
