REMARK  Name = ZINC32944668
REMARK  12 active torsions:
REMARK  status: ('A' for Active; 'I' for Inactive)
REMARK    1  A    between atoms: C_1  and  C_2
REMARK    2  A    between atoms: C_5  and  C_37
REMARK    3  A    between atoms: C_6  and  C_8
REMARK    4  A    between atoms: C_8  and  C_10
REMARK    5  A    between atoms: C_10  and  S_11
REMARK    6  A    between atoms: S_11  and  C_12
REMARK    7  A    between atoms: C_16  and  C_30
REMARK    8  A    between atoms: N_22  and  C_23
REMARK    9  A    between atoms: N_32  and  C_33
REMARK   10  A    between atoms: C_33  and  C_34
REMARK   11  A    between atoms: C_34  and  C_35
REMARK   12  A    between atoms: C_34  and  C_36
REMARK                            x       y       z     vdW  Elec       q    Type
REMARK                         _______ _______ _______ _____ _____    ______ ____
ROOT
ATOM      1  C   UNL     1      -5.915   1.978  -0.534  0.00  0.00    +0.177 A 
ATOM      2  N   UNL     1      -4.754   1.402  -0.342  0.00  0.00    -0.223 NA
ATOM      3  C   UNL     1      -3.595   2.008  -0.694  0.00  0.00    +0.080 A 
ATOM      4  C   UNL     1      -2.358   1.392  -0.487  0.00  0.00    +0.041 A 
ATOM      5  C   UNL     1      -1.196   2.052  -0.863  0.00  0.00    +0.039 A 
ATOM      6  C   UNL     1      -1.257   3.327  -1.440  0.00  0.00    +0.014 A 
ATOM      7  C   UNL     1      -2.460   3.936  -1.653  0.00  0.00    +0.016 A 
ATOM      8  C   UNL     1      -3.640   3.292  -1.282  0.00  0.00    +0.065 A 
ATOM      9  C   UNL     1      -4.957   3.915  -1.488  0.00  0.00    +0.267 A 
ATOM     10  O   UNL     1      -5.061   5.019  -1.990  0.00  0.00    -0.267 OA
ATOM     11  N   UNL     1      -6.048   3.217  -1.097  0.00  0.00    -0.255 N 
ENDROOT
BRANCH  11  12
ATOM     12  C   UNL     1      -7.325   3.768  -1.271  0.00  0.00    +0.052 A 
ATOM     13  C   UNL     1      -8.095   3.405  -2.369  0.00  0.00    +0.029 A 
ATOM     14  C   UNL     1      -9.355   3.945  -2.535  0.00  0.00    +0.040 A 
ATOM     15  C   UNL     1      -9.847   4.856  -1.615  0.00  0.00    +0.124 A 
ATOM     16  C   UNL     1      -9.078   5.222  -0.523  0.00  0.00    +0.040 A 
ATOM     17  C   UNL     1      -7.820   4.681  -0.349  0.00  0.00    +0.029 A 
ATOM     18  F   UNL     1     -11.078   5.386  -1.782  0.00  0.00    -0.205 F 
ENDBRANCH  11  12
BRANCH   5  19
ATOM     19  C   UNL     1       0.119   1.406  -0.646  0.00  0.00    +0.244 C 
ATOM     20  O   UNL     1       0.178   0.302  -0.142  0.00  0.00    -0.270 OA
ATOM     21  N   UNL     1       1.250   2.039  -1.014  0.00  0.00    -0.311 N 
ATOM     22  H   UNL     1       1.197   3.039  -1.471  0.00  0.00    +0.149 HD
BRANCH  21  23
ATOM     23  C   UNL     1       2.550   1.397  -0.806  0.00  0.00    +0.107 C 
BRANCH  23  24
ATOM     24  C   UNL     1       3.662   2.322  -1.307  0.00  0.00    -0.000 C 
ATOM     25  C   UNL     1       5.024   1.708  -0.977  0.00  0.00    +0.009 C 
ATOM     26  C   UNL     1       3.535   2.498  -2.821  0.00  0.00    +0.009 C 
ENDBRANCH  23  24
ENDBRANCH  21  23
ENDBRANCH   5  19
BRANCH   1  27
ATOM     27  S   UNL     1      -7.372   1.115  -0.046  0.00  0.00    -0.079 S 
BRANCH  27  28
ATOM     28  C   UNL     1      -6.634  -0.403   0.607  0.00  0.00    +0.157 C 
BRANCH  28  29
ATOM     29  C   UNL     1      -7.724  -1.320   1.098  0.00  0.00    +0.174 C 
ATOM     30  O   UNL     1      -8.886  -0.981   1.015  0.00  0.00    -0.291 OA
BRANCH  29  36
ATOM     31  C   UNL     1      -4.295  -4.724   2.329  0.00  0.00    +0.044 C 
ATOM     32  C   UNL     1      -5.731  -4.272   2.275  0.00  0.00    -0.050 A 
ATOM     33  C   UNL     1      -6.731  -5.089   2.773  0.00  0.00    +0.003 A 
ATOM     34  C   UNL     1      -8.054  -4.683   2.727  0.00  0.00    +0.004 A 
ATOM     35  C   UNL     1      -8.384  -3.457   2.189  0.00  0.00    -0.040 A 
ATOM     36  C   UNL     1      -7.380  -2.628   1.679  0.00  0.00    +0.021 A 
ATOM     37  C   UNL     1      -6.046  -3.046   1.729  0.00  0.00    +0.015 A 
ATOM     38  C   UNL     1      -9.824  -3.014   2.145  0.00  0.00    +0.044 C 
ENDBRANCH  29  36
ENDBRANCH  28  29
ENDBRANCH  27  28
ENDBRANCH   1  27
TORSDOF 8
