REMARK  Name = ZINC32907958
REMARK  8 active torsions:
REMARK  status: ('A' for Active; 'I' for Inactive)
REMARK    1  A    between atoms: C_4  and  C_7
REMARK    2  A    between atoms: C_7  and  N_8
REMARK    3  A    between atoms: N_11  and  C_12
REMARK    4  A    between atoms: C_12  and  C_17
REMARK    5  A    between atoms: N_19  and  C_20
REMARK    6  A    between atoms: C_20  and  C_21
REMARK    7  A    between atoms: C_21  and  C_23
REMARK    8  A    between atoms: C_21  and  N_28
REMARK                            x       y       z     vdW  Elec       q    Type
REMARK                         _______ _______ _______ _____ _____    ______ ____
ROOT
ATOM      1  C   UNL     1       2.973   4.120   3.685  0.00  0.00    +0.112 C 
ATOM      2  C   UNL     1       3.694   3.087   2.794  0.00  0.00    +0.035 C 
ATOM      3  C   UNL     1       5.148   3.074   3.328  0.00  0.00    +0.003 C 
ATOM      4  C   UNL     1       4.953   3.219   4.858  0.00  0.00    +0.003 C 
ATOM      5  C   UNL     1       3.774   4.204   4.997  0.00  0.00    +0.035 C 
ENDROOT
BRANCH   1   9
ATOM      6  N   UNL     1       2.362   6.756   1.199  0.00  0.00    -0.295 N 
ATOM      7  C   UNL     1       2.293   5.584   1.861  0.00  0.00    +0.301 C 
ATOM      8  O   UNL     1       1.634   4.668   1.408  0.00  0.00    -0.253 OA
ATOM      9  N   UNL     1       2.954   5.427   3.024  0.00  0.00    -0.285 N 
ATOM     10  H   UNL     1       2.959   7.585   1.609  0.00  0.00    +0.151 HD
ATOM     11  H   UNL     1       3.480   6.280   3.478  0.00  0.00    +0.151 HD
BRANCH   6  12
ATOM     12  C   UNL     1       1.643   6.927  -0.066  0.00  0.00    +0.141 C 
BRANCH  12  16
ATOM     13  C   UNL     1       2.324  10.866  -1.571  0.00  0.00    +0.000 A 
ATOM     14  C   UNL     1       3.173   9.834  -1.926  0.00  0.00    +0.000 A 
ATOM     15  C   UNL     1       2.952   8.559  -1.439  0.00  0.00    +0.005 A 
ATOM     16  C   UNL     1       1.883   8.316  -0.597  0.00  0.00    -0.030 A 
ATOM     17  C   UNL     1       1.031   9.347  -0.246  0.00  0.00    +0.005 A 
ATOM     18  C   UNL     1       1.255  10.623  -0.730  0.00  0.00    +0.000 A 
ENDBRANCH  12  16
ENDBRANCH   6  12
ENDBRANCH   1   9
BRANCH   1  19
ATOM     19  C   UNL     1       1.565   3.664   3.968  0.00  0.00    +0.237 C 
ATOM     20  O   UNL     1       1.272   2.493   3.853  0.00  0.00    -0.273 OA
ATOM     21  N   UNL     1       0.631   4.559   4.350  0.00  0.00    -0.312 N 
ATOM     22  H   UNL     1       0.877   5.630   4.383  0.00  0.00    +0.149 HD
BRANCH  21  23
ATOM     23  C   UNL     1      -0.711   4.103   4.721  0.00  0.00    +0.128 C 
BRANCH  23  24
ATOM     24  C   UNL     1      -1.569   5.309   5.111  0.00  0.00    +0.111 C 
BRANCH  24  25
ATOM     25  N   UNL     1      -1.564   6.287   4.015  0.00  0.00    -0.289 NA
ATOM     26  C   UNL     1      -1.937   5.654   2.741  0.00  0.00    +0.113 C 
ATOM     27  C   UNL     1      -1.863   6.694   1.620  0.00  0.00    +0.175 C 
ATOM     28  O   UNL     1      -2.709   7.800   1.944  0.00  0.00    -0.377 OA
ATOM     29  C   UNL     1      -2.373   8.440   3.178  0.00  0.00    +0.175 C 
ATOM     30  C   UNL     1      -2.454   7.418   4.316  0.00  0.00    +0.113 C 
ENDBRANCH  24  25
BRANCH  24  31
ATOM     31  C   UNL     1      -2.982   4.855   5.373  0.00  0.00    +0.008 A 
ATOM     32  C   UNL     1      -3.657   4.805   6.547  0.00  0.00    +0.013 A 
ATOM     33  C   UNL     1      -4.963   4.352   6.550  0.00  0.00    +0.008 A 
ATOM     34  C   UNL     1      -5.526   3.962   5.381  0.00  0.00    +0.045 A 
ATOM     35  S   UNL     1      -4.197   4.238   4.221  0.00  0.00    -0.100 S 
ENDBRANCH  24  31
ENDBRANCH  23  24
ENDBRANCH  21  23
ENDBRANCH   1  19
TORSDOF 8
