REMARK  Name = ZINC08836987
REMARK  16 active torsions:
REMARK  status: ('A' for Active; 'I' for Inactive)
REMARK    1  A    between atoms: C_1  and  C_2
REMARK    2  A    between atoms: C_2  and  C_3
REMARK    3  A    between atoms: C_2  and  O_4
REMARK    4  A    between atoms: O_4  and  C_5
REMARK    5  A    between atoms: C_8  and  C_11
REMARK    6  A    between atoms: C_14  and  C_15
REMARK    7  A    between atoms: C_14  and  O_25
REMARK    8  A    between atoms: C_18  and  O_21
REMARK    9  A    between atoms: O_21  and  C_22
REMARK   10  A    between atoms: C_22  and  C_23
REMARK   11  A    between atoms: C_22  and  C_24
REMARK   12  A    between atoms: N_30  and  C_31
REMARK   13  A    between atoms: C_31  and  C_32
REMARK   14  A    between atoms: C_32  and  N_68
REMARK   15  A    between atoms: C_33  and  N_68
REMARK   16  A    between atoms: C_34  and  N_68
REMARK                            x       y       z     vdW  Elec       q    Type
REMARK                         _______ _______ _______ _____ _____    ______ ____
ROOT
ATOM      1  C   UNL     1      -5.644   1.347  -0.852  0.00  0.00    +0.144 C 
ATOM      2  C   UNL     1      -4.550   1.956  -0.004  0.00  0.00    +0.071 C 
ATOM      3  C   UNL     1      -3.527   1.286   0.637  0.00  0.00    +0.133 C 
ATOM      4  C   UNL     1      -4.787   3.338   0.004  0.00  0.00    +0.249 C 
ATOM      5  O   UNL     1      -4.119   4.174   0.586  0.00  0.00    -0.282 OA
ATOM      6  C   UNL     1      -5.994   3.607  -0.824  0.00  0.00    +0.288 C 
ATOM      7  O   UNL     1      -6.469   4.706  -1.025  0.00  0.00    -0.266 OA
ATOM      8  N   UNL     1      -6.485   2.455  -1.311  0.00  0.00    -0.285 N 
ENDROOT
BRANCH   1  12
ATOM      9  C   UNL     1      -3.939  -0.683  -4.203  0.00  0.00    +0.121 A 
ATOM     10  C   UNL     1      -4.372  -1.405  -3.100  0.00  0.00    +0.046 A 
ATOM     11  C   UNL     1      -4.923  -0.746  -2.018  0.00  0.00    +0.009 A 
ATOM     12  C   UNL     1      -5.043   0.631  -2.034  0.00  0.00    -0.022 A 
ATOM     13  C   UNL     1      -4.617   1.352  -3.134  0.00  0.00    +0.009 A 
ATOM     14  C   UNL     1      -4.060   0.699  -4.216  0.00  0.00    +0.046 A 
BRANCH   9  15
ATOM     15  O   UNL     1      -3.397  -1.329  -5.269  0.00  0.00    -0.489 OA
BRANCH  15  17
ATOM     16  C   UNL     1      -4.539  -3.445  -5.507  0.00  0.00    +0.051 C 
ATOM     17  C   UNL     1      -3.226  -2.743  -5.153  0.00  0.00    +0.167 C 
ATOM     18  C   UNL     1      -2.127  -3.205  -6.112  0.00  0.00    +0.051 C 
ENDBRANCH  15  17
ENDBRANCH   9  15
ENDBRANCH   1  12
BRANCH   3  19
ATOM     19  C   UNL     1      -2.462   2.042   1.314  0.00  0.00    +0.017 A 
ATOM     20  C   UNL     1      -1.824   3.099   0.654  0.00  0.00    +0.015 A 
ATOM     21  C   UNL     1      -0.832   3.808   1.293  0.00  0.00    +0.046 A 
ATOM     22  C   UNL     1      -0.460   3.472   2.591  0.00  0.00    +0.121 A 
ATOM     23  C   UNL     1      -1.088   2.420   3.248  0.00  0.00    +0.046 A 
ATOM     24  C   UNL     1      -2.081   1.705   2.618  0.00  0.00    +0.015 A 
BRANCH  22  25
ATOM     25  O   UNL     1       0.518   4.174   3.217  0.00  0.00    -0.489 OA
BRANCH  25  26
ATOM     26  C   UNL     1       1.117   5.245   2.486  0.00  0.00    +0.167 C 
ATOM     27  C   UNL     1       1.738   6.245   3.463  0.00  0.00    +0.051 C 
ATOM     28  C   UNL     1       2.205   4.689   1.565  0.00  0.00    +0.051 C 
ENDBRANCH  25  26
ENDBRANCH  22  25
ENDBRANCH   3  19
BRANCH   3  29
ATOM     29  O   UNL     1      -3.503  -0.065   0.643  0.00  0.00    -0.506 OA
ATOM     30  H   UNL     1      -2.700  -0.382   1.148  0.00  0.00    +0.292 HD
ENDBRANCH   3  29
BRANCH   8  31
ATOM     31  C   UNL     1      -7.670   2.328  -2.163  0.00  0.00    +0.090 C 
BRANCH  31  32
ATOM     32  C   UNL     1      -8.911   2.141  -1.287  0.00  0.00    -0.060 C 
BRANCH  32  35
ATOM     33  C   UNL     1     -11.269   1.598  -1.358  0.00  0.00    -0.097 C 
ATOM     34  C   UNL     1     -10.365   3.265  -2.863  0.00  0.00    -0.097 C 
ATOM     35  N   UNL     1     -10.093   1.993  -2.161  0.00  0.00    +0.377 N 
ATOM     36  H   UNL     1      -9.904   1.262  -2.857  0.00  0.00    -0.083 HD
ENDBRANCH  32  35
ENDBRANCH  31  32
ENDBRANCH   8  31
TORSDOF 10
