REMARK  Name = ZINC41498311
REMARK  5 active torsions:
REMARK  status: ('A' for Active; 'I' for Inactive)
REMARK    1  A    between atoms: C_1  and  C_2
REMARK    2  A    between atoms: C_3  and  O_20
REMARK    3  A    between atoms: C_10  and  C_11
REMARK    4  A    between atoms: O_20  and  C_21
REMARK    5  A    between atoms: C_21  and  C_22
REMARK                            x       y       z     vdW  Elec       q    Type
REMARK                         _______ _______ _______ _____ _____    ______ ____
ROOT
ATOM      1  C   UNL     1       0.982   1.400   0.041  0.00  0.00    +0.051 C 
ATOM      2  C   UNL     1       0.924  -0.106   0.055  0.00  0.00    +0.034 A 
ATOM      3  C   UNL     1       1.110  -0.818  -1.119  0.00  0.00    +0.128 A 
ATOM      4  C   UNL     1       1.058  -2.209  -1.120  0.00  0.00    +0.047 A 
ATOM      5  C   UNL     1       0.822  -2.888   0.043  0.00  0.00    +0.019 A 
ATOM      6  C   UNL     1       0.633  -2.184   1.232  0.00  0.00    +0.068 A 
ATOM      7  C   UNL     1       0.689  -0.781   1.246  0.00  0.00    +0.146 A 
ATOM      8  O   UNL     1       0.485  -0.329   2.503  0.00  0.00    -0.451 OA
ATOM      9  C   UNL     1       0.294  -1.345   3.378  0.00  0.00    +0.176 C 
ATOM     10  C   UNL     1       0.064  -1.223   4.710  0.00  0.00    +0.061 C 
ATOM     11  C   UNL     1       0.366  -2.603   2.620  0.00  0.00    +0.231 C 
ATOM     12  O   UNL     1       0.245  -3.739   3.046  0.00  0.00    -0.283 OA
ENDROOT
BRANCH  10  13
ATOM     13  C   UNL     1       0.164   0.093   5.355  0.00  0.00    +0.014 A 
ATOM     14  C   UNL     1       0.141   1.260   4.582  0.00  0.00    +0.011 A 
ATOM     15  C   UNL     1       0.235   2.490   5.194  0.00  0.00    +0.001 A 
ATOM     16  C   UNL     1       0.351   2.577   6.572  0.00  0.00    +0.003 A 
ATOM     17  C   UNL     1       0.375   1.431   7.346  0.00  0.00    +0.039 A 
ATOM     18  C   UNL     1       0.276   0.189   6.749  0.00  0.00    +0.131 A 
ATOM     19  F   UNL     1       0.292  -0.930   7.506  0.00  0.00    -0.205 F 
ENDBRANCH  10  13
BRANCH   3  20
ATOM     20  O   UNL     1       1.344  -0.153  -2.279  0.00  0.00    -0.482 OA
BRANCH  20  21
ATOM     21  C   UNL     1       1.528  -0.944  -3.455  0.00  0.00    +0.324 C 
BRANCH  21  22
ATOM     22  C   UNL     1       1.775  -0.040  -4.635  0.00  0.00    +0.248 C 
ATOM     23  O   UNL     1       1.792   1.163  -4.484  0.00  0.00    -0.272 OA
ATOM     24  N   UNL     1       1.976  -0.569  -5.858  0.00  0.00    -0.327 N 
ATOM     25  H   UNL     1       1.962  -1.531  -5.979  0.00  0.00    +0.145 HD
ATOM     26  H   UNL     1       2.135   0.013  -6.618  0.00  0.00    +0.145 HD
ENDBRANCH  21  22
ENDBRANCH  20  21
ENDBRANCH   3  20
TORSDOF 4
