REMARK  Name = ZINC05013660
REMARK  11 active torsions:
REMARK  status: ('A' for Active; 'I' for Inactive)
REMARK    1  A    between atoms: C_1  and  C_2
REMARK    2  A    between atoms: C_2  and  N_48
REMARK    3  A    between atoms: C_3  and  C_4
REMARK    4  A    between atoms: C_3  and  N_48
REMARK    5  A    between atoms: C_5  and  C_6
REMARK    6  A    between atoms: C_5  and  N_48
REMARK    7  A    between atoms: C_7  and  C_8
REMARK    8  A    between atoms: C_11  and  O_16
REMARK    9  A    between atoms: O_16  and  C_17
REMARK   10  A    between atoms: C_20  and  O_23
REMARK   11  A    between atoms: O_23  and  C_24
REMARK                            x       y       z     vdW  Elec       q    Type
REMARK                         _______ _______ _______ _____ _____    ______ ____
ROOT
ATOM      1  C   UNL     1      -2.206   5.721   0.022  0.00  0.00    +0.051 A 
ATOM      2  C   UNL     1      -2.330   5.087  -1.218  0.00  0.00    +0.172 A 
ATOM      3  C   UNL     1      -2.696   3.755  -1.277  0.00  0.00    +0.204 A 
ATOM      4  C   UNL     1      -2.941   3.047  -0.107  0.00  0.00    +0.204 A 
ATOM      5  C   UNL     1      -2.824   3.674   1.127  0.00  0.00    +0.204 A 
ATOM      6  C   UNL     1      -2.453   5.004   1.196  0.00  0.00    +0.172 A 
ATOM      7  F   UNL     1      -2.334   5.612   2.397  0.00  0.00    -0.202 F 
ATOM      8  F   UNL     1      -3.069   2.982   2.261  0.00  0.00    -0.198 F 
ATOM      9  F   UNL     1      -2.816   3.142  -2.475  0.00  0.00    -0.198 F 
ATOM     10  F   UNL     1      -2.093   5.775  -2.356  0.00  0.00    -0.202 F 
ENDROOT
BRANCH   1  12
ATOM     11  C   UNL     1      -2.524   7.992   0.823  0.00  0.00    -0.045 C 
ATOM     12  C   UNL     1      -1.815   7.143   0.090  0.00  0.00    +0.008 C 
BRANCH  11  13
ATOM     13  C   UNL     1      -2.125   9.443   0.893  0.00  0.00    -0.051 C 
BRANCH  13  14
ATOM     14  N   UNL     1      -3.288  10.276   0.520  0.00  0.00    +0.382 N 
ATOM     15  H   UNL     1      -4.097   9.991   1.085  0.00  0.00    -0.081 HD
BRANCH  14  17
ATOM     16  C   UNL     1      -3.126  11.957   2.288  0.00  0.00    -0.017 C 
ATOM     17  C   UNL     1      -2.995  11.700   0.785  0.00  0.00    -0.082 C 
ENDBRANCH  14  17
BRANCH  14  18
ATOM     18  C   UNL     1      -3.609  10.084  -0.910  0.00  0.00    -0.082 C 
ATOM     19  C   UNL     1      -5.007  10.643  -1.179  0.00  0.00    -0.017 C 
ENDBRANCH  14  18
ENDBRANCH  13  14
ENDBRANCH  11  13
ENDBRANCH   1  12
BRANCH   4  20
ATOM     20  O   UNL     1      -3.301   1.738  -0.170  0.00  0.00    -0.450 OA
BRANCH  20  21
ATOM     21  C   UNL     1      -2.315   0.802  -0.152  0.00  0.00    +0.129 A 
ATOM     22  C   UNL     1      -0.987   1.196  -0.077  0.00  0.00    +0.050 A 
ATOM     23  C   UNL     1       0.015   0.246  -0.065  0.00  0.00    +0.049 A 
ATOM     24  C   UNL     1      -0.306  -1.102  -0.127  0.00  0.00    +0.120 A 
ATOM     25  C   UNL     1      -1.633  -1.496  -0.202  0.00  0.00    +0.049 A 
ATOM     26  C   UNL     1      -2.636  -0.546  -0.215  0.00  0.00    +0.050 A 
BRANCH  24  27
ATOM     27  O   UNL     1       0.681  -2.037  -0.114  0.00  0.00    -0.495 OA
ATOM     28  C   UNL     1       2.026  -1.560  -0.035  0.00  0.00    +0.277 C 
ENDBRANCH  24  27
ENDBRANCH  20  21
ENDBRANCH   4  20
TORSDOF 8
