REMARK  Name = ZINC37522442
REMARK  9 active torsions:
REMARK  status: ('A' for Active; 'I' for Inactive)
REMARK    1  A    between atoms: C_1  and  O_2
REMARK    2  A    between atoms: O_2  and  C_3
REMARK    3  A    between atoms: C_5  and  O_30
REMARK    4  A    between atoms: C_6  and  C_11
REMARK    5  A    between atoms: C_7  and  O_9
REMARK    6  A    between atoms: O_9  and  C_10
REMARK    7  A    between atoms: C_11  and  N_12
REMARK    8  A    between atoms: C_21  and  C_23
REMARK    9  A    between atoms: O_30  and  C_31
REMARK                            x       y       z     vdW  Elec       q    Type
REMARK                         _______ _______ _______ _____ _____    ______ ____
ROOT
ATOM      1  N   UNL     1      -5.477  -2.803  -1.300  0.00  0.00    +0.391 N 
ATOM      2  C   UNL     1      -5.861  -1.535  -1.925  0.00  0.00    -0.075 C 
ATOM      3  C   UNL     1      -6.198  -1.731  -3.398  0.00  0.00    +0.003 C 
ATOM      4  C   UNL     1      -5.312  -2.831  -3.990  0.00  0.00    +0.119 C 
ATOM      5  N   UNL     1      -5.968  -4.128  -3.792  0.00  0.00    -0.352 N 
ATOM      6  C   UNL     1      -6.116  -5.110  -4.725  0.00  0.00    +0.086 A 
ATOM      7  C   UNL     1      -6.754  -6.148  -4.147  0.00  0.00    +0.019 A 
ATOM      8  C   UNL     1      -7.015  -5.791  -2.809  0.00  0.00    +0.021 A 
ATOM      9  C   UNL     1      -6.530  -4.548  -2.621  0.00  0.00    +0.009 A 
ATOM     10  C   UNL     1      -6.602  -3.747  -1.343  0.00  0.00    +0.011 C 
ATOM     11  H   UNL     1      -4.691  -3.194  -1.796  0.00  0.00    -0.080 HD
ENDROOT
BRANCH  10  12
ATOM     12  C   UNL     1      -6.524  -4.678  -0.161  0.00  0.00    -0.055 A 
ATOM     13  C   UNL     1      -7.576  -4.748   0.733  0.00  0.00    +0.005 A 
ATOM     14  C   UNL     1      -7.505  -5.601   1.818  0.00  0.00    +0.038 A 
ATOM     15  C   UNL     1      -6.381  -6.386   2.009  0.00  0.00    +0.123 A 
ATOM     16  C   UNL     1      -5.327  -6.315   1.113  0.00  0.00    +0.038 A 
ATOM     17  C   UNL     1      -5.402  -5.464   0.026  0.00  0.00    +0.005 A 
ATOM     18  F   UNL     1      -6.311  -7.220   3.070  0.00  0.00    -0.205 F 
ENDBRANCH  10  12
BRANCH   1  19
ATOM     19  C   UNL     1      -5.098  -2.561   0.099  0.00  0.00    -0.034 C 
BRANCH  19  23
ATOM     20  C   UNL     1      -1.667  -0.004   0.227  0.00  0.00    +0.127 A 
ATOM     21  C   UNL     1      -2.941   0.544   0.234  0.00  0.00    +0.091 A 
ATOM     22  C   UNL     1      -4.053  -0.284   0.192  0.00  0.00    +0.128 A 
ATOM     23  C   UNL     1      -3.890  -1.660   0.143  0.00  0.00    +0.020 A 
ATOM     24  C   UNL     1      -2.616  -2.208   0.136  0.00  0.00    +0.128 A 
ATOM     25  C   UNL     1      -1.505  -1.380   0.173  0.00  0.00    +0.091 A 
BRANCH  20  27
ATOM     26  C   UNL     1      -0.820   2.216   0.323  0.00  0.00    +0.277 C 
ATOM     27  O   UNL     1      -0.579   0.808   0.268  0.00  0.00    -0.495 OA
ENDBRANCH  20  27
BRANCH  24  28
ATOM     28  O   UNL     1      -2.457  -3.557   0.088  0.00  0.00    -0.495 OA
ATOM     29  C   UNL     1      -1.117  -4.052   0.084  0.00  0.00    +0.277 C 
ENDBRANCH  24  28
BRANCH  22  30
ATOM     30  O   UNL     1      -5.301   0.253   0.199  0.00  0.00    -0.495 OA
ATOM     31  C   UNL     1      -5.394   1.678   0.251  0.00  0.00    +0.277 C 
ENDBRANCH  22  30
ENDBRANCH  19  23
ENDBRANCH   1  19
TORSDOF 6
