REMARK  Name = ZINC64079286
REMARK  5 active torsions:
REMARK  status: ('A' for Active; 'I' for Inactive)
REMARK    1  A    between atoms: C_1  and  C_2
REMARK    2  A    between atoms: C_5  and  C_23
REMARK    3  A    between atoms: N_7  and  C_8
REMARK    4  A    between atoms: C_11  and  C_14
REMARK    5  A    between atoms: N_16  and  N_17
REMARK                            x       y       z     vdW  Elec       q    Type
REMARK                         _______ _______ _______ _____ _____    ______ ____
ROOT
ATOM      1  C   UNL     1       0.438  -0.318   2.509  0.00  0.00    +0.048 A 
ATOM      2  C   UNL     1      -0.682   0.429   2.864  0.00  0.00    +0.025 A 
ATOM      3  C   UNL     1      -0.988   0.625   4.191  0.00  0.00    +0.015 A 
ATOM      4  C   UNL     1      -0.172   0.074   5.184  0.00  0.00    +0.038 A 
ATOM      5  C   UNL     1       0.952  -0.675   4.824  0.00  0.00    +0.015 A 
ATOM      6  C   UNL     1       1.250  -0.873   3.495  0.00  0.00    +0.025 A 
ENDROOT
BRANCH   1  12
ATOM      7  C   UNL     1      -0.019   1.526   0.010  0.00  0.00    +0.035 C 
ATOM      8  C   UNL     1       0.002  -0.004   0.002  0.00  0.00    +0.129 C 
ATOM      9  C   UNL     1       0.771  -0.515  -1.196  0.00  0.00    +0.035 C 
ATOM     10  C   UNL     1       1.795  -1.208  -0.744  0.00  0.00    +0.031 C 
ATOM     11  N   UNL     1       1.826  -1.238   0.639  0.00  0.00    -0.267 N 
ATOM     12  N   UNL     1       0.745  -0.514   1.167  0.00  0.00    -0.246 N 
ATOM     13  C   UNL     1       2.810  -1.887  -1.627  0.00  0.00    +0.063 C 
ATOM     14 BR   UNL     1       0.340  -0.212  -3.012  0.00  0.00    -0.051 Br
ATOM     15  H   UNL     1       2.498  -1.695   1.168  0.00  0.00    +0.170 HD
ENDBRANCH   1  12
BRANCH   4  16
ATOM     16  C   UNL     1      -0.496   0.283   6.607  0.00  0.00    +0.260 C 
ATOM     17  O   UNL     1      -1.474   0.935   6.919  0.00  0.00    -0.269 OA
ATOM     18  N   UNL     1       0.291  -0.249   7.563  0.00  0.00    -0.227 N 
ATOM     19  H   UNL     1       1.071  -0.770   7.315  0.00  0.00    +0.173 HD
BRANCH  18  20
ATOM     20  N   UNL     1      -0.018  -0.051   8.915  0.00  0.00    -0.207 N 
ATOM     21  C   UNL     1       0.648   0.855   9.869  0.00  0.00    +0.290 C 
ATOM     22  N   UNL     1      -0.089   0.649  11.125  0.00  0.00    -0.198 NA
ATOM     23  N   UNL     1      -0.972  -0.188  10.919  0.00  0.00    -0.220 N 
ATOM     24  C   UNL     1      -0.995  -0.643   9.636  0.00  0.00    +0.171 C 
ATOM     25  S   UNL     1      -2.100  -1.799   9.026  0.00  0.00    -0.016 S 
ATOM     26  H   UNL     1      -1.591  -0.489  11.602  0.00  0.00    +0.176 HD
ENDBRANCH  18  20
ENDBRANCH   4  16
TORSDOF 3
