REMARK  Name = ZINC33589898
REMARK  8 active torsions:
REMARK  status: ('A' for Active; 'I' for Inactive)
REMARK    1  A    between atoms: C_6  and  C_7
REMARK    2  A    between atoms: N_11  and  C_15
REMARK    3  A    between atoms: C_15  and  C_16
REMARK    4  A    between atoms: C_16  and  C_17
REMARK    5  A    between atoms: N_19  and  C_20
REMARK    6  A    between atoms: C_20  and  C_21
REMARK    7  A    between atoms: C_21  and  C_22
REMARK    8  A    between atoms: C_22  and  N_23
REMARK                            x       y       z     vdW  Elec       q    Type
REMARK                         _______ _______ _______ _____ _____    ______ ____
ROOT
ATOM      1  C   UNL     1      -1.258  -0.759   0.011  0.00  0.00    +0.028 C 
ATOM      2  C   UNL     1      -1.240  -2.111  -0.099  0.00  0.00    +0.080 C 
ATOM      3  C   UNL     1      -2.364  -3.062  -0.220  0.00  0.00    +0.260 C 
ATOM      4  O   UNL     1      -3.521  -2.685  -0.233  0.00  0.00    -0.269 OA
ATOM      5  N   UNL     1      -2.049  -4.343  -0.313  0.00  0.00    -0.228 N 
ATOM      6  C   UNL     1      -0.765  -4.756  -0.297  0.00  0.00    +0.286 C 
ATOM      7  O   UNL     1      -0.336  -5.891  -0.374  0.00  0.00    -0.262 OA
ATOM      8  S   UNL     1       0.152  -3.232  -0.146  0.00  0.00    -0.026 S 
ENDROOT
BRANCH   1  14
ATOM      9  C   UNL     1       1.190  -0.642  -0.411  0.00  0.00    +0.011 A 
ATOM     10  C   UNL     1       2.364   0.077  -0.473  0.00  0.00    +0.039 A 
ATOM     11  C   UNL     1       2.365   1.434  -0.186  0.00  0.00    +0.123 A 
ATOM     12  C   UNL     1       1.188   2.077   0.164  0.00  0.00    +0.039 A 
ATOM     13  C   UNL     1       0.006   1.371   0.230  0.00  0.00    +0.011 A 
ATOM     14  C   UNL     1      -0.003   0.001  -0.058  0.00  0.00    -0.024 A 
ATOM     15  F   UNL     1       3.520   2.133  -0.249  0.00  0.00    -0.205 F 
ENDBRANCH   1  14
BRANCH   5  16
ATOM     16  C   UNL     1      -3.119  -5.336  -0.434  0.00  0.00    +0.127 C 
BRANCH  16  17
ATOM     17  C   UNL     1      -3.437  -5.564  -1.913  0.00  0.00    +0.115 C 
BRANCH  17  18
ATOM     18  C   UNL     1      -4.537  -6.586  -2.039  0.00  0.00    +0.215 C 
ATOM     19  O   UNL     1      -5.020  -7.083  -1.043  0.00  0.00    -0.276 OA
ATOM     20  N   UNL     1      -4.985  -6.948  -3.257  0.00  0.00    -0.315 N 
ATOM     21  H   UNL     1      -4.599  -6.551  -4.054  0.00  0.00    +0.149 HD
BRANCH  20  22
ATOM     22  C   UNL     1      -6.055  -7.941  -3.379  0.00  0.00    +0.106 C 
BRANCH  22  23
ATOM     23  C   UNL     1      -6.373  -8.170  -4.858  0.00  0.00    +0.040 C 
BRANCH  23  24
ATOM     24  C   UNL     1      -7.490  -9.207  -4.986  0.00  0.00    +0.124 C 
BRANCH  24  25
ATOM     25  N   UNL     1      -7.795  -9.426  -6.402  0.00  0.00    -0.338 N 
ATOM     26  C   UNL     1      -8.711  -8.738  -7.151  0.00  0.00    +0.104 A 
ATOM     27  C   UNL     1      -8.668  -9.258  -8.393  0.00  0.00    +0.101 A 
ATOM     28  N   UNL     1      -7.751 -10.237  -8.401  0.00  0.00    -0.352 N 
ATOM     29  C   UNL     1      -7.220 -10.339  -7.213  0.00  0.00    +0.173 A 
ATOM     30  H   UNL     1      -7.516 -10.780  -9.170  0.00  0.00    +0.166 HD
ENDBRANCH  24  25
ENDBRANCH  23  24
ENDBRANCH  22  23
ENDBRANCH  20  22
ENDBRANCH  17  18
ENDBRANCH  16  17
ENDBRANCH   5  16
TORSDOF 8
