REMARK  Name = ZINC43746755
REMARK  6 active torsions:
REMARK  status: ('A' for Active; 'I' for Inactive)
REMARK    1  A    between atoms: C_1  and  C_2
REMARK    2  A    between atoms: C_2  and  O_3
REMARK    3  A    between atoms: O_3  and  C_4
REMARK    4  A    between atoms: C_9  and  C_10
REMARK    5  A    between atoms: C_10  and  C_12
REMARK    6  A    between atoms: C_35  and  C_40
REMARK                            x       y       z     vdW  Elec       q    Type
REMARK                         _______ _______ _______ _____ _____    ______ ____
ROOT
ATOM      1  C   UNL     1      -5.304  -2.231  -0.005  0.00  0.00    +0.066 C 
ATOM      2  C   UNL     1      -5.713  -2.541  -1.456  0.00  0.00    -0.055 C 
ATOM      3  C   UNL     1      -5.332  -3.983  -1.819  0.00  0.00    -0.016 C 
ATOM      4  C   UNL     1      -6.669  -4.673  -2.172  0.00  0.00    -0.020 C 
ATOM      5  C   UNL     1      -7.710  -3.820  -1.409  0.00  0.00    -0.076 C 
ATOM      6  N   UNL     1      -7.187  -2.413  -1.522  0.00  0.00    +0.395 N 
ATOM      7  C   UNL     1      -7.639  -1.645  -0.352  0.00  0.00    +0.060 C 
ATOM      8  C   UNL     1      -6.417  -1.296   0.492  0.00  0.00    +0.085 C 
ATOM      9  C   UNL     1      -6.021   0.146   0.342  0.00  0.00    -0.011 A 
ATOM     10  C   UNL     1      -5.666   0.924  -0.737  0.00  0.00    +0.006 A 
ATOM     11  C   UNL     1      -5.343   2.257  -0.553  0.00  0.00    +0.000 A 
ATOM     12  C   UNL     1      -5.378   2.805   0.717  0.00  0.00    +0.002 A 
ATOM     13  C   UNL     1      -5.733   2.029   1.800  0.00  0.00    +0.023 A 
ATOM     14  C   UNL     1      -6.059   0.686   1.624  0.00  0.00    +0.038 A 
ATOM     15  N   UNL     1      -6.443  -0.289   2.548  0.00  0.00    -0.285 N 
ATOM     16  C   UNL     1      -6.670  -1.481   1.963  0.00  0.00    +0.228 C 
ATOM     17  O   UNL     1      -7.013  -2.505   2.515  0.00  0.00    -0.275 OA
ATOM     18  C   UNL     1      -8.645  -2.432   0.448  0.00  0.00    -0.026 A 
ATOM     19  C   UNL     1      -8.588  -3.641   1.105  0.00  0.00    +0.004 A 
ATOM     20  C   UNL     1      -9.703  -4.120   1.769  0.00  0.00    +0.001 A 
ATOM     21  C   UNL     1     -10.873  -3.382   1.771  0.00  0.00    +0.005 A 
ATOM     22  C   UNL     1     -10.933  -2.171   1.114  0.00  0.00    -0.029 A 
ATOM     23  C   UNL     1      -9.815  -1.681   0.443  0.00  0.00    +0.039 A 
ATOM     24  N   UNL     1      -9.629  -0.503  -0.283  0.00  0.00    -0.286 N 
ATOM     25  C   UNL     1      -8.383  -0.404  -0.781  0.00  0.00    +0.212 C 
ATOM     26  O   UNL     1      -7.941   0.508  -1.447  0.00  0.00    -0.277 OA
ATOM     27  C   UNL     1     -12.213  -1.375   1.122  0.00  0.00    +0.045 C 
ATOM     28  H   UNL     1      -6.535  -0.127   3.499  0.00  0.00    +0.155 HD
ATOM     29  H   UNL     1     -10.318   0.167  -0.413  0.00  0.00    +0.155 HD
ATOM     30  H   UNL     1      -7.474  -1.981  -2.388  0.00  0.00    -0.079 HD
ENDROOT
BRANCH   1  31
ATOM     31  C   UNL     1      -3.969  -1.533   0.032  0.00  0.00    +0.169 C 
ATOM     32  O   UNL     1      -3.559  -0.955  -0.952  0.00  0.00    -0.292 OA
BRANCH  31  38
ATOM     33  C   UNL     1      -1.973  -0.814   1.337  0.00  0.00    +0.131 A 
ATOM     34  C   UNL     1      -1.225  -0.836   2.505  0.00  0.00    +0.046 A 
ATOM     35  C   UNL     1      -1.648  -1.587   3.583  0.00  0.00    +0.004 A 
ATOM     36  C   UNL     1      -2.820  -2.324   3.510  0.00  0.00    +0.001 A 
ATOM     37  C   UNL     1      -3.576  -2.315   2.360  0.00  0.00    +0.015 A 
ATOM     38  C   UNL     1      -3.164  -1.553   1.260  0.00  0.00    +0.059 A 
BRANCH  33  39
ATOM     39  O   UNL     1      -1.559  -0.077   0.276  0.00  0.00    -0.492 OA
BRANCH  39  41
ATOM     40  C   UNL     1      -0.035   1.414  -0.862  0.00  0.00    +0.048 C 
ATOM     41  C   UNL     1      -0.337   0.649   0.428  0.00  0.00    +0.226 C 
ENDBRANCH  39  41
ENDBRANCH  33  39
ENDBRANCH  31  38
ENDBRANCH   1  31
TORSDOF 4
