REMARK  Name = ZINC06346062
REMARK  6 active torsions:
REMARK  status: ('A' for Active; 'I' for Inactive)
REMARK    1  A    between atoms: C_4  and  C_7
REMARK    2  A    between atoms: C_8  and  S_9
REMARK    3  A    between atoms: S_9  and  N_12
REMARK    4  A    between atoms: N_15  and  C_18
REMARK    5  A    between atoms: C_21  and  C_27
REMARK    6  A    between atoms: C_23  and  N_24
REMARK                            x       y       z     vdW  Elec       q    Type
REMARK                         _______ _______ _______ _____ _____    ______ ____
ROOT
ATOM      1  N   UNL     1       0.002  -0.004   0.002  0.00  0.00    -0.174 NA
ATOM      2  C   UNL     1      -0.018   1.467   0.010  0.00  0.00    +0.128 C 
ATOM      3  C   UNL     1       1.428   1.973  -0.001  0.00  0.00    +0.122 C 
ATOM      4  N   UNL     1       2.168   1.356   1.108  0.00  0.00    -0.326 N 
ATOM      5  C   UNL     1       2.246  -0.103   0.950  0.00  0.00    +0.122 C 
ATOM      6  C   UNL     1       0.833  -0.694   1.000  0.00  0.00    +0.128 C 
ENDROOT
BRANCH   4   7
ATOM      7  C   UNL     1       3.437   1.912   1.231  0.00  0.00    +0.060 A 
ATOM      8  C   UNL     1       4.366   1.755   0.206  0.00  0.00    +0.026 A 
ATOM      9  C   UNL     1       5.622   2.305   0.324  0.00  0.00    +0.015 A 
ATOM     10  C   UNL     1       5.965   3.021   1.475  0.00  0.00    +0.039 A 
ATOM     11  C   UNL     1       5.030   3.176   2.502  0.00  0.00    +0.047 A 
ATOM     12  C   UNL     1       3.773   2.628   2.376  0.00  0.00    +0.148 A 
BRANCH  10  13
ATOM     13  C   UNL     1       7.311   3.610   1.605  0.00  0.00    +0.242 C 
ATOM     14  O   UNL     1       7.607   4.233   2.607  0.00  0.00    -0.270 OA
ATOM     15  N   UNL     1       8.212   3.459   0.615  0.00  0.00    -0.325 N 
ATOM     16  H   UNL     1       7.975   2.963  -0.185  0.00  0.00    +0.145 HD
ATOM     17  H   UNL     1       9.097   3.847   0.700  0.00  0.00    +0.145 HD
ENDBRANCH  10  13
BRANCH  12  18
ATOM     18  N   UNL     1       2.780   2.797   3.460  0.00  0.00    +0.058 N 
ATOM     19  O   UNL     1       3.074   3.424   4.463  0.00  0.00    -0.126 OA
ATOM     20  O   UNL     1       1.670   2.309   3.351  0.00  0.00    -0.126 OA
ENDBRANCH  12  18
ENDBRANCH   4   7
BRANCH   1  21
ATOM     21  S   UNL     1      -0.888  -0.860  -1.101  0.00  0.00    +0.054 S 
ATOM     22  O   UNL     1      -1.112  -2.144  -0.534  0.00  0.00    -0.153 OA
ATOM     23  O   UNL     1      -1.952  -0.012  -1.510  0.00  0.00    -0.153 OA
BRANCH  21  25
ATOM     24  C   UNL     1       0.508  -2.331  -2.858  0.00  0.00    +0.028 C 
ATOM     25  C   UNL     1       0.133  -1.106  -2.516  0.00  0.00    +0.153 C 
BRANCH  24  29
ATOM     26  C   UNL     1       2.968  -2.923  -6.269  0.00  0.00    +0.000 A 
ATOM     27  C   UNL     1       2.560  -4.010  -5.517  0.00  0.00    +0.001 A 
ATOM     28  C   UNL     1       1.760  -3.825  -4.408  0.00  0.00    +0.008 A 
ATOM     29  C   UNL     1       1.364  -2.537  -4.045  0.00  0.00    -0.024 A 
ATOM     30  C   UNL     1       1.775  -1.445  -4.811  0.00  0.00    +0.008 A 
ATOM     31  C   UNL     1       2.579  -1.644  -5.915  0.00  0.00    +0.001 A 
ENDBRANCH  24  29
ENDBRANCH  21  25
ENDBRANCH   1  21
TORSDOF 6
