REMARK  Name = ZINC15954427
REMARK  8 active torsions:
REMARK  status: ('A' for Active; 'I' for Inactive)
REMARK    1  A    between atoms: C_1  and  O_2
REMARK    2  A    between atoms: O_2  and  C_3
REMARK    3  A    between atoms: C_6  and  C_9
REMARK    4  A    between atoms: C_9  and  C_10
REMARK    5  A    between atoms: C_10  and  N_11
REMARK    6  A    between atoms: C_31  and  C_33
REMARK    7  A    between atoms: C_38  and  O_39
REMARK    8  A    between atoms: O_39  and  C_40
REMARK                            x       y       z     vdW  Elec       q    Type
REMARK                         _______ _______ _______ _____ _____    ______ ____
ROOT
ATOM      1  N   UNL     1      -1.790   7.883  -1.268  0.00  0.00    -0.291 N 
ATOM      2  C   UNL     1      -2.516   7.011  -2.178  0.00  0.00    +0.203 C 
ATOM      3  C   UNL     1      -2.737   5.653  -1.596  0.00  0.00    +0.234 C 
ATOM      4  O   UNL     1      -3.313   4.833  -2.279  0.00  0.00    -0.274 OA
ATOM      5  N   UNL     1      -2.345   5.281  -0.376  0.00  0.00    -0.276 N 
ATOM      6  C   UNL     1      -1.715   6.197   0.574  0.00  0.00    +0.167 C 
ATOM      7  C   UNL     1      -1.426   7.530  -0.037  0.00  0.00    +0.237 C 
ATOM      8  O   UNL     1      -0.820   8.341   0.630  0.00  0.00    -0.274 OA
ATOM      9  C   UNL     1      -2.637   6.375   1.789  0.00  0.00    +0.069 C 
ATOM     10  C   UNL     1      -3.137   5.021   2.221  0.00  0.00    -0.015 A 
ATOM     11  C   UNL     1      -3.732   4.645   3.488  0.00  0.00    +0.003 A 
ATOM     12  C   UNL     1      -4.016   5.366   4.652  0.00  0.00    +0.010 A 
ATOM     13  C   UNL     1      -4.597   4.672   5.685  0.00  0.00    +0.001 A 
ATOM     14  C   UNL     1      -4.891   3.321   5.590  0.00  0.00    +0.002 A 
ATOM     15  C   UNL     1      -4.621   2.584   4.451  0.00  0.00    +0.026 A 
ATOM     16  C   UNL     1      -4.032   3.263   3.385  0.00  0.00    +0.047 A 
ATOM     17  N   UNL     1      -3.641   2.853   2.143  0.00  0.00    -0.356 N 
ATOM     18  H   UNL     1      -3.730   1.950   1.800  0.00  0.00    +0.166 HD
ATOM     19  C   UNL     1      -3.106   3.909   1.454  0.00  0.00    +0.046 A 
ATOM     20  C   UNL     1      -2.551   3.880   0.048  0.00  0.00    +0.157 C 
ENDROOT
BRANCH  20  21
ATOM     21  C   UNL     1      -1.239   3.141   0.031  0.00  0.00    +0.020 A 
ATOM     22  C   UNL     1      -0.554   2.920   1.211  0.00  0.00    +0.009 A 
ATOM     23  C   UNL     1       0.650   2.241   1.196  0.00  0.00    +0.001 A 
ATOM     24  C   UNL     1       1.173   1.782   0.001  0.00  0.00    +0.004 A 
ATOM     25  C   UNL     1       0.493   2.001  -1.181  0.00  0.00    +0.046 A 
ATOM     26  C   UNL     1      -0.713   2.687  -1.169  0.00  0.00    +0.125 A 
BRANCH  26  27
ATOM     27  O   UNL     1      -1.381   2.909  -2.332  0.00  0.00    -0.495 OA
ATOM     28  C   UNL     1      -0.784   2.407  -3.529  0.00  0.00    +0.277 C 
ENDBRANCH  26  27
ENDBRANCH  20  21
BRANCH   1  29
ATOM     29  C   UNL     1      -1.441   9.227  -1.733  0.00  0.00    +0.113 C 
BRANCH  29  30
ATOM     30  C   UNL     1      -2.569  10.199  -1.380  0.00  0.00    +0.054 C 
BRANCH  30  34
ATOM     31  C   UNL     1      -1.548  14.121  -2.735  0.00  0.00    +0.120 A 
ATOM     32  C   UNL     1      -2.240  13.255  -3.570  0.00  0.00    +0.046 A 
ATOM     33  C   UNL     1      -2.569  11.988  -3.129  0.00  0.00    +0.007 A 
ATOM     34  C   UNL     1      -2.209  11.582  -1.858  0.00  0.00    -0.046 A 
ATOM     35  C   UNL     1      -1.524  12.444  -1.022  0.00  0.00    +0.007 A 
ATOM     36  C   UNL     1      -1.188  13.711  -1.460  0.00  0.00    +0.046 A 
BRANCH  31  38
ATOM     37  C   UNL     1      -0.511  16.205  -2.253  0.00  0.00    +0.277 C 
ATOM     38  O   UNL     1      -1.224  15.368  -3.166  0.00  0.00    -0.495 OA
ENDBRANCH  31  38
ENDBRANCH  30  34
ENDBRANCH  29  30
ENDBRANCH   1  29
TORSDOF 6
