REMARK  Name = ZINC15675295
REMARK  8 active torsions:
REMARK  status: ('A' for Active; 'I' for Inactive)
REMARK    1  A    between atoms: C_12  and  C_14
REMARK    2  A    between atoms: C_14  and  C_15
REMARK    3  A    between atoms: C_17  and  O_37
REMARK    4  A    between atoms: C_19  and  O_36
REMARK    5  A    between atoms: C_21  and  C_24
REMARK    6  A    between atoms: C_24  and  N_25
REMARK    7  A    between atoms: N_25  and  S_26
REMARK    8  A    between atoms: S_26  and  C_29
REMARK                            x       y       z     vdW  Elec       q    Type
REMARK                         _______ _______ _______ _____ _____    ______ ____
ROOT
ATOM      1  C   UNL     1      -0.600  -5.338  -3.431  0.00  0.00    +0.158 C 
ATOM      2  C   UNL     1       0.283  -5.825  -4.596  0.00  0.00    +0.175 C 
ATOM      3  C   UNL     1       0.519  -7.325  -4.292  0.00  0.00    +0.175 C 
ATOM      4  C   UNL     1      -0.657  -7.651  -3.336  0.00  0.00    +0.165 C 
ATOM      5  O   UNL     1      -0.788  -6.452  -2.543  0.00  0.00    -0.366 OA
ENDROOT
BRANCH   3   6
ATOM      6  O   UNL     1       0.437  -8.106  -5.485  0.00  0.00    -0.387 OA
ATOM      7  H   UNL     1       1.098  -7.876  -6.152  0.00  0.00    +0.210 HD
ENDBRANCH   3   6
BRANCH   2   8
ATOM      8  O   UNL     1      -0.400  -5.669  -5.841  0.00  0.00    -0.387 OA
ATOM      9  H   UNL     1       0.110  -5.960  -6.609  0.00  0.00    +0.210 HD
ENDBRANCH   2   8
BRANCH   1  10
ATOM     10  C   UNL     1       0.099  -4.195  -2.692  0.00  0.00    +0.130 C 
BRANCH  10  22
ATOM     11  C   UNL     1       1.149   3.474   0.010  0.00  0.00    +0.005 A 
ATOM     12  C   UNL     1      -0.087   4.107   0.025  0.00  0.00    +0.018 A 
ATOM     13  C   UNL     1      -1.238   3.344   0.032  0.00  0.00    +0.084 A 
ATOM     14  C   UNL     1      -0.017   1.386   0.010  0.00  0.00    +0.099 A 
ATOM     15  C   UNL     1       1.182   2.092   0.002  0.00  0.00    +0.042 A 
ATOM     16  N   UNL     1       0.002  -0.004   0.002  0.00  0.00    -0.314 N 
ATOM     17  C   UNL     1       0.771  -0.514  -1.141  0.00  0.00    +0.125 C 
ATOM     18  C   UNL     1       0.921  -2.034  -1.014  0.00  0.00    +0.126 C 
ATOM     19  N   UNL     1      -0.416  -2.623  -0.852  0.00  0.00    -0.298 N 
ATOM     20  C   UNL     1      -1.299  -2.070   0.186  0.00  0.00    +0.126 C 
ATOM     21  C   UNL     1      -1.362  -0.549   0.012  0.00  0.00    +0.125 C 
ATOM     22  C   UNL     1      -0.822  -3.643  -1.634  0.00  0.00    +0.218 C 
ATOM     23  O   UNL     1      -1.929  -4.118  -1.486  0.00  0.00    -0.276 OA
ATOM     24  N   UNL     1      -1.243   1.984   0.018  0.00  0.00    -0.350 N 
ATOM     25  H   UNL     1      -2.115   1.442   0.015  0.00  0.00    +0.166 HD
ENDBRANCH  10  22
ENDBRANCH   1  10
BRANCH   4  26
ATOM     26  C   UNL     1      -0.314  -8.849  -2.449  0.00  0.00    +0.140 C 
BRANCH  26  27
ATOM     27  N   UNL     1      -1.483  -9.209  -1.642  0.00  0.00    -0.187 NA
ATOM     28  H   UNL     1      -2.225  -8.590  -1.559  0.00  0.00    +0.148 HD
BRANCH  27  29
ATOM     29  S   UNL     1      -1.537 -10.674  -0.871  0.00  0.00    +0.058 S 
ATOM     30  O   UNL     1      -2.766 -10.714  -0.160  0.00  0.00    -0.153 OA
ATOM     31  O   UNL     1      -1.183 -11.654  -1.837  0.00  0.00    -0.153 OA
BRANCH  29  32
ATOM     32  C   UNL     1      -0.255 -10.674   0.339  0.00  0.00    +0.105 A 
ATOM     33  C   UNL     1       1.007 -11.131   0.008  0.00  0.00    +0.030 A 
ATOM     34  C   UNL     1       2.014 -11.126   0.955  0.00  0.00    +0.022 A 
ATOM     35  C   UNL     1       1.755 -10.673   2.237  0.00  0.00    +0.041 A 
ATOM     36  C   UNL     1       0.490 -10.221   2.568  0.00  0.00    +0.022 A 
ATOM     37  C   UNL     1      -0.514 -10.221   1.619  0.00  0.00    +0.030 A 
ATOM     38 CL   UNL     1       3.018 -10.673   3.428  0.00  0.00    -0.084 Cl
ENDBRANCH  29  32
ENDBRANCH  27  29
ENDBRANCH  26  27
ENDBRANCH   4  26
TORSDOF 8
