REMARK  Name = ZINC04412609
REMARK  9 active torsions:
REMARK  status: ('A' for Active; 'I' for Inactive)
REMARK    1  A    between atoms: C_1  and  C_2
REMARK    2  A    between atoms: C_7  and  C_17
REMARK    3  A    between atoms: C_20  and  O_23
REMARK    4  A    between atoms: O_23  and  C_24
REMARK    5  A    between atoms: C_24  and  C_25
REMARK    6  A    between atoms: C_24  and  C_26
REMARK    7  A    between atoms: C_29  and  C_31
REMARK    8  A    between atoms: C_31  and  O_33
REMARK    9  A    between atoms: O_33  and  C_34
REMARK                            x       y       z     vdW  Elec       q    Type
REMARK                         _______ _______ _______ _____ _____    ______ ____
ROOT
ATOM      1  C   UNL     1      -0.550   2.535   2.961  0.00  0.00    +0.009 C 
ATOM      2  C   UNL     1       0.233   2.669   1.654  0.00  0.00    +0.013 C 
ATOM      3  C   UNL     1      -0.534   3.559   0.679  0.00  0.00    +0.055 C 
ATOM      4  C   UNL     1      -1.898   2.953   0.388  0.00  0.00    +0.017 C 
ATOM      5  C   UNL     1      -2.058   1.620   0.369  0.00  0.00    +0.037 C 
ATOM      6  C   UNL     1      -3.344   0.886   0.069  0.00  0.00    +0.136 C 
ATOM      7  N   UNL     1      -4.521   1.728   0.039  0.00  0.00    -0.331 N 
ATOM      8  C   UNL     1      -4.668   2.726  -0.923  0.00  0.00    +0.049 A 
ATOM      9  C   UNL     1      -5.669   2.667  -1.881  0.00  0.00    +0.025 A 
ATOM     10  C   UNL     1      -5.748   3.657  -2.844  0.00  0.00    +0.002 A 
ATOM     11  C   UNL     1      -4.836   4.697  -2.855  0.00  0.00    +0.002 A 
ATOM     12  C   UNL     1      -3.845   4.768  -1.891  0.00  0.00    +0.025 A 
ATOM     13  C   UNL     1      -3.779   3.790  -0.914  0.00  0.00    +0.052 A 
ATOM     14  N   UNL     1      -2.882   3.858   0.154  0.00  0.00    -0.316 N 
ATOM     15  C   UNL     1      -0.967   0.765   0.654  0.00  0.00    +0.177 C 
ATOM     16  O   UNL     1      -1.137  -0.437   0.611  0.00  0.00    -0.291 OA
ATOM     17  C   UNL     1       0.394   1.291   1.001  0.00  0.00    +0.171 C 
ATOM     18  H   UNL     1      -5.219   1.596   0.700  0.00  0.00    +0.147 HD
ATOM     19  H   UNL     1      -2.960   4.606   0.766  0.00  0.00    +0.152 HD
ENDROOT
BRANCH   6  20
ATOM     20  C   UNL     1      -3.207   0.209  -1.271  0.00  0.00    -0.023 A 
ATOM     21  C   UNL     1      -3.223  -1.171  -1.352  0.00  0.00    +0.009 A 
ATOM     22  C   UNL     1      -3.103  -1.793  -2.579  0.00  0.00    +0.046 A 
ATOM     23  C   UNL     1      -2.954  -1.033  -3.730  0.00  0.00    +0.121 A 
ATOM     24  C   UNL     1      -2.932   0.352  -3.645  0.00  0.00    +0.046 A 
ATOM     25  C   UNL     1      -3.059   0.970  -2.416  0.00  0.00    +0.009 A 
BRANCH  23  26
ATOM     26  O   UNL     1      -2.829  -1.643  -4.938  0.00  0.00    -0.489 OA
BRANCH  26  27
ATOM     27  C   UNL     1      -2.738  -3.069  -4.938  0.00  0.00    +0.167 C 
ATOM     28  C   UNL     1      -4.145  -3.670  -4.908  0.00  0.00    +0.051 C 
ATOM     29  C   UNL     1      -2.012  -3.534  -6.202  0.00  0.00    +0.051 C 
ENDBRANCH  26  27
ENDBRANCH  23  26
ENDBRANCH   6  20
BRANCH  17  30
ATOM     30  C   UNL     1       1.070   0.347   1.962  0.00  0.00    +0.318 C 
ATOM     31  O   UNL     1       1.407   0.737   3.055  0.00  0.00    -0.250 OA
BRANCH  30  32
ATOM     32  O   UNL     1       1.298  -0.926   1.604  0.00  0.00    -0.467 OA
ATOM     33  C   UNL     1       1.954  -1.778   2.580  0.00  0.00    +0.280 C 
ENDBRANCH  30  32
ENDBRANCH  17  30
TORSDOF 5
