REMARK  Name = ZINC38634514
REMARK  9 active torsions:
REMARK  status: ('A' for Active; 'I' for Inactive)
REMARK    1  A    between atoms: C_1  and  C_2
REMARK    2  A    between atoms: C_2  and  N_3
REMARK    3  A    between atoms: N_3  and  C_4
REMARK    4  A    between atoms: N_3  and  S_6
REMARK    5  A    between atoms: C_4  and  C_5
REMARK    6  A    between atoms: S_6  and  C_9
REMARK    7  A    between atoms: C_12  and  C_15
REMARK    8  A    between atoms: N_23  and  S_27
REMARK    9  A    between atoms: S_27  and  C_30
REMARK                            x       y       z     vdW  Elec       q    Type
REMARK                         _______ _______ _______ _____ _____    ______ ____
ROOT
ATOM      1  C   UNL     1      -0.333   3.496  -5.802  0.00  0.00    +0.247 C 
ATOM      2  O   UNL     1      -0.013   2.520  -5.152  0.00  0.00    -0.270 OA
ATOM      3  N   UNL     1       0.439   3.904  -6.829  0.00  0.00    -0.297 N 
ATOM      4  C   UNL     1       1.615   3.123  -7.238  0.00  0.00    +0.112 C 
ATOM      5  C   UNL     1       1.507   2.817  -8.735  0.00  0.00    +0.072 C 
ATOM      6  C   UNL     1       1.314   4.124  -9.507  0.00  0.00    +0.145 C 
ATOM      7  C   UNL     1       0.026   4.813  -9.056  0.00  0.00    +0.072 C 
ATOM      8  C   UNL     1       0.117   5.134  -7.565  0.00  0.00    +0.112 C 
ATOM      9  N   UNL     1       2.461   5.013  -9.268  0.00  0.00    -0.143 NA
ATOM     10  C   UNL     1       3.092   5.232 -10.589  0.00  0.00    +0.140 C 
ATOM     11  C   UNL     1       2.588   4.021 -11.414  0.00  0.00    +0.179 C 
ATOM     12  O   UNL     1       1.242   3.844 -10.914  0.00  0.00    -0.356 OA
ENDROOT
BRANCH   1  16
ATOM     13  C   UNL     1      -3.882   5.621  -4.837  0.00  0.00    +0.106 A 
ATOM     14  C   UNL     1      -3.905   4.239  -4.915  0.00  0.00    +0.029 A 
ATOM     15  C   UNL     1      -2.756   3.543  -5.228  0.00  0.00    +0.015 A 
ATOM     16  C   UNL     1      -1.568   4.236  -5.466  0.00  0.00    +0.037 A 
ATOM     17  C   UNL     1      -1.551   5.629  -5.386  0.00  0.00    +0.015 A 
ATOM     18  C   UNL     1      -2.708   6.313  -5.078  0.00  0.00    +0.029 A 
BRANCH  13  19
ATOM     19  S   UNL     1      -5.354   6.502  -4.437  0.00  0.00    +0.061 S 
ATOM     20  O   UNL     1      -4.945   7.752  -3.897  0.00  0.00    -0.153 OA
ATOM     21  O   UNL     1      -6.186   5.599  -3.722  0.00  0.00    -0.153 OA
BRANCH  19  22
ATOM     22  N   UNL     1      -6.130   6.833  -5.862  0.00  0.00    -0.177 NA
BRANCH  22  24
ATOM     23  C   UNL     1      -6.415   4.965  -7.414  0.00  0.00    +0.022 C 
ATOM     24  C   UNL     1      -7.105   5.883  -6.403  0.00  0.00    +0.106 C 
ENDBRANCH  22  24
BRANCH  22  25
ATOM     25  C   UNL     1      -5.841   8.076  -6.582  0.00  0.00    +0.106 C 
ATOM     26  C   UNL     1      -6.871   9.139  -6.197  0.00  0.00    +0.022 C 
ENDBRANCH  22  25
ENDBRANCH  19  22
ENDBRANCH  13  19
ENDBRANCH   1  16
BRANCH   9  27
ATOM     27  S   UNL     1       2.948   5.642  -7.816  0.00  0.00    +0.070 S 
ATOM     28  O   UNL     1       3.119   7.038  -8.015  0.00  0.00    -0.152 OA
ATOM     29  O   UNL     1       2.070   5.115  -6.830  0.00  0.00    -0.152 OA
BRANCH  27  30
ATOM     30  C   UNL     1       4.545   4.983  -7.471  0.00  0.00    +0.143 A 
ATOM     31  C   UNL     1       5.758   5.419  -7.892  0.00  0.00    +0.036 A 
ATOM     32  C   UNL     1       6.891   4.738  -7.491  0.00  0.00    +0.010 A 
ATOM     33  C   UNL     1       6.757   3.654  -6.688  0.00  0.00    +0.047 A 
ATOM     34  S   UNL     1       4.987   3.572  -6.470  0.00  0.00    -0.077 S 
ENDBRANCH  27  30
ENDBRANCH   9  27
TORSDOF 7
