REMARK  Name = ZINC12561902
REMARK  5 active torsions:
REMARK  status: ('A' for Active; 'I' for Inactive)
REMARK    1  A    between atoms: C_4  and  N_7
REMARK    2  A    between atoms: C_8  and  C_21
REMARK    3  A    between atoms: C_10  and  C_12
REMARK    4  A    between atoms: C_13  and  C_14
REMARK    5  A    between atoms: C_26  and  O_27
REMARK                            x       y       z     vdW  Elec       q    Type
REMARK                         _______ _______ _______ _____ _____    ______ ____
ROOT
ATOM      1  N   UNL     1      -6.428  -0.683  -0.011  0.00  0.00    -0.212 N 
ATOM      2  C   UNL     1      -7.049   0.515  -0.202  0.00  0.00    +0.168 A 
ATOM      3  N   UNL     1      -6.146   1.465  -0.071  0.00  0.00    -0.207 NA
ATOM      4  C   UNL     1      -4.952   0.920   0.200  0.00  0.00    +0.175 A 
ATOM      5  N   UNL     1      -5.077  -0.393   0.241  0.00  0.00    -0.145 NA
ENDROOT
BRANCH   1   9
ATOM      6  C   UNL     1      -8.185  -4.458  -0.160  0.00  0.00    +0.000 A 
ATOM      7  C   UNL     1      -6.952  -4.247  -0.750  0.00  0.00    +0.002 A 
ATOM      8  C   UNL     1      -6.367  -2.997  -0.702  0.00  0.00    +0.028 A 
ATOM      9  C   UNL     1      -7.018  -1.951  -0.061  0.00  0.00    +0.068 A 
ATOM     10  C   UNL     1      -8.254  -2.167   0.535  0.00  0.00    +0.028 A 
ATOM     11  C   UNL     1      -8.836  -3.418   0.479  0.00  0.00    +0.002 A 
ENDBRANCH   1   9
BRANCH   2  12
ATOM     12  C   UNL     1      -8.482   0.714  -0.503  0.00  0.00    +0.061 A 
ATOM     13  C   UNL     1      -9.099  -0.037  -1.505  0.00  0.00    +0.015 A 
ATOM     14  C   UNL     1     -10.437   0.153  -1.781  0.00  0.00    +0.001 A 
ATOM     15  C   UNL     1     -11.171   1.085  -1.069  0.00  0.00    +0.004 A 
ATOM     16  C   UNL     1     -10.572   1.834  -0.074  0.00  0.00    +0.046 A 
ATOM     17  C   UNL     1      -9.230   1.652   0.219  0.00  0.00    +0.128 A 
BRANCH  17  18
ATOM     18  O   UNL     1      -8.641   2.383   1.200  0.00  0.00    -0.506 OA
ATOM     19  H   UNL     1      -8.260   3.217   0.894  0.00  0.00    +0.292 HD
ENDBRANCH  17  18
ENDBRANCH   2  12
BRANCH   4  20
ATOM     20  C   UNL     1      -3.700   1.667   0.413  0.00  0.00    +0.050 C 
ATOM     21  C   UNL     1      -2.561   1.007   0.680  0.00  0.00    +0.011 C 
BRANCH  21  22
ATOM     22  C   UNL     1      -1.309   1.754   0.892  0.00  0.00    -0.025 A 
ATOM     23  C   UNL     1      -0.122   1.070   1.170  0.00  0.00    +0.009 A 
ATOM     24  C   UNL     1       1.047   1.775   1.362  0.00  0.00    +0.016 A 
ATOM     25  C   UNL     1       1.047   3.157   1.286  0.00  0.00    +0.018 A 
ATOM     26  C   UNL     1      -0.127   3.842   1.016  0.00  0.00    +0.016 A 
ATOM     27  C   UNL     1      -1.304   3.149   0.823  0.00  0.00    +0.009 A 
ATOM     28 BR   UNL     1       2.655   4.115   1.550  0.00  0.00    -0.050 Br
ENDBRANCH  21  22
ENDBRANCH   4  20
TORSDOF 5
