REMARK  Name = ZINC17087207
REMARK  7 active torsions:
REMARK  status: ('A' for Active; 'I' for Inactive)
REMARK    1  A    between atoms: C_1  and  C_2
REMARK    2  A    between atoms: C_2  and  C_3
REMARK    3  A    between atoms: C_2  and  N_4
REMARK    4  A    between atoms: C_5  and  C_7
REMARK    5  A    between atoms: C_10  and  C_21
REMARK    6  A    between atoms: C_10  and  O_25
REMARK    7  A    between atoms: C_12  and  C_14
REMARK                            x       y       z     vdW  Elec       q    Type
REMARK                         _______ _______ _______ _____ _____    ______ ____
ROOT
ATOM      1  C   UNL     1      -1.083  -0.803   0.009  0.00  0.00    +0.323 C 
ATOM      2  O   UNL     1      -2.196  -0.316   0.022  0.00  0.00    -0.263 OA
ATOM      3  N   UNL     1       0.002  -0.004   0.002  0.00  0.00    -0.144 N 
ATOM      4  C   UNL     1      -0.018   1.467   0.010  0.00  0.00    +0.257 C 
ATOM      5  C   UNL     1       1.475   1.850  -0.002  0.00  0.00    +0.124 C 
ATOM      6  C   UNL     1       2.192   0.519  -0.016  0.00  0.00    +0.071 C 
ATOM      7  N   UNL     1       1.327  -0.437  -0.013  0.00  0.00    -0.178 NA
ENDROOT
BRANCH   6   8
ATOM      8  C   UNL     1       3.655   0.341  -0.031  0.00  0.00    -0.002 A 
ATOM      9  C   UNL     1       4.498   1.455  -0.038  0.00  0.00    +0.011 A 
ATOM     10  C   UNL     1       5.866   1.282  -0.046  0.00  0.00    +0.016 A 
ATOM     11  C   UNL     1       6.405   0.006  -0.059  0.00  0.00    +0.018 A 
ATOM     12  C   UNL     1       5.576  -1.103  -0.058  0.00  0.00    +0.016 A 
ATOM     13  C   UNL     1       4.206  -0.944  -0.044  0.00  0.00    +0.011 A 
ATOM     14 BR   UNL     1       8.282  -0.222  -0.079  0.00  0.00    -0.050 Br
ENDBRANCH   6   8
BRANCH   1  16
ATOM     15  N   UNL     1      -2.004  -3.084   0.005  0.00  0.00    -0.305 N 
ATOM     16  C   UNL     1      -0.919  -2.286  -0.001  0.00  0.00    +0.301 C 
ATOM     17  O   UNL     1       0.193  -2.773  -0.015  0.00  0.00    -0.265 OA
ATOM     18  H   UNL     1      -2.893  -2.695   0.016  0.00  0.00    +0.149 HD
BRANCH  15  20
ATOM     19  C   UNL     1      -1.647  -5.041   1.428  0.00  0.00    +0.027 C 
ATOM     20  C   UNL     1      -1.843  -4.540  -0.004  0.00  0.00    +0.067 C 
ATOM     21  C   UNL     1      -3.092  -5.188  -0.605  0.00  0.00    +0.027 C 
ENDBRANCH  15  20
ENDBRANCH   1  16
BRANCH   4  22
ATOM     22  C   UNL     1      -0.697   1.990   1.278  0.00  0.00    +0.438 C 
ATOM     23  F   UNL     1      -0.015   1.512   2.402  0.00  0.00    -0.166 F 
ATOM     24  F   UNL     1      -0.673   3.388   1.277  0.00  0.00    -0.166 F 
ATOM     25  F   UNL     1      -2.023   1.545   1.313  0.00  0.00    -0.166 F 
ENDBRANCH   4  22
BRANCH   4  26
ATOM     26  O   UNL     1      -0.675   1.968  -1.156  0.00  0.00    -0.363 OA
ATOM     27  H   UNL     1      -1.600   1.699  -1.232  0.00  0.00    +0.212 HD
ENDBRANCH   4  26
TORSDOF 5
