REMARK  Name = ZINC01668369
REMARK  11 active torsions:
REMARK  status: ('A' for Active; 'I' for Inactive)
REMARK    1  A    between atoms: C_1  and  C_2
REMARK    2  A    between atoms: C_2  and  C_3
REMARK    3  A    between atoms: C_3  and  C_5
REMARK    4  A    between atoms: C_3  and  C_13
REMARK    5  A    between atoms: C_8  and  O_12
REMARK    6  A    between atoms: C_9  and  O_11
REMARK    7  A    between atoms: C_13  and  C_15
REMARK    8  A    between atoms: C_13  and  C_17
REMARK    9  A    between atoms: C_15  and  C_16
REMARK   10  A    between atoms: C_20  and  O_24
REMARK   11  A    between atoms: C_21  and  O_23
REMARK                            x       y       z     vdW  Elec       q    Type
REMARK                         _______ _______ _______ _____ _____    ______ ____
ROOT
ATOM      1  C   UNL     1      -0.753   1.593  -1.232  0.00  0.00    +0.026 C 
ENDROOT
BRANCH   1   2
ATOM      2  C   UNL     1      -0.667   3.096  -1.288  0.00  0.00    -0.040 A 
ATOM      3  C   UNL     1       0.567   3.715  -1.353  0.00  0.00    +0.008 A 
ATOM      4  C   UNL     1       0.651   5.094  -1.410  0.00  0.00    +0.049 A 
ATOM      5  C   UNL     1      -0.504   5.859  -1.391  0.00  0.00    +0.158 A 
ATOM      6  C   UNL     1      -1.747   5.236  -1.320  0.00  0.00    +0.158 A 
ATOM      7  C   UNL     1      -1.823   3.854  -1.269  0.00  0.00    +0.053 A 
BRANCH   6   8
ATOM      8  O   UNL     1      -2.883   5.983  -1.302  0.00  0.00    -0.503 OA
ATOM      9  H   UNL     1      -3.177   6.230  -0.414  0.00  0.00    +0.292 HD
ENDBRANCH   6   8
BRANCH   5  10
ATOM     10  O   UNL     1      -0.424   7.216  -1.442  0.00  0.00    -0.503 OA
ATOM     11  H   UNL     1      -0.365   7.639  -0.574  0.00  0.00    +0.292 HD
ENDBRANCH   5  10
ENDBRANCH   1   2
BRANCH   1  13
ATOM     12  C   UNL     1      -0.729   1.579   1.267  0.00  0.00    +0.004 C 
ATOM     13  C   UNL     1      -0.013   1.086   0.008  0.00  0.00    +0.005 C 
ENDBRANCH   1  13
BRANCH   1  14
ATOM     14  C   UNL     1      -0.111   0.998  -2.487  0.00  0.00    +0.026 C 
BRANCH  14  15
ATOM     15  C   UNL     1      -0.840   1.497  -3.708  0.00  0.00    -0.040 A 
ATOM     16  C   UNL     1      -2.187   1.228  -3.865  0.00  0.00    +0.008 A 
ATOM     17  C   UNL     1      -2.861   1.688  -4.981  0.00  0.00    +0.049 A 
ATOM     18  C   UNL     1      -2.185   2.412  -5.949  0.00  0.00    +0.158 A 
ATOM     19  C   UNL     1      -0.828   2.679  -5.794  0.00  0.00    +0.158 A 
ATOM     20  C   UNL     1      -0.160   2.219  -4.670  0.00  0.00    +0.053 A 
BRANCH  19  21
ATOM     21  O   UNL     1      -0.160   3.390  -6.741  0.00  0.00    -0.503 OA
ATOM     22  H   UNL     1       0.230   2.845  -7.439  0.00  0.00    +0.292 HD
ENDBRANCH  19  21
BRANCH  18  23
ATOM     23  O   UNL     1      -2.846   2.861  -7.050  0.00  0.00    -0.503 OA
ATOM     24  H   UNL     1      -2.841   2.241  -7.792  0.00  0.00    +0.292 HD
ENDBRANCH  18  23
ENDBRANCH  14  15
BRANCH  14  25
ATOM     25  C   UNL     1      -0.198  -0.528  -2.430  0.00  0.00    +0.005 C 
ATOM     26  C   UNL     1       0.552  -1.127  -3.622  0.00  0.00    +0.004 C 
ENDBRANCH  14  25
ENDBRANCH   1  14
TORSDOF 9
