REMARK  Name = ZINC33318028
REMARK  11 active torsions:
REMARK  status: ('A' for Active; 'I' for Inactive)
REMARK    1  A    between atoms: C_1  and  C_2
REMARK    2  A    between atoms: C_2  and  C_3
REMARK    3  A    between atoms: N_5  and  C_6
REMARK    4  A    between atoms: C_9  and  C_37
REMARK    5  A    between atoms: C_11  and  C_12
REMARK    6  A    between atoms: N_15  and  C_23
REMARK    7  A    between atoms: C_23  and  C_25
REMARK    8  A    between atoms: C_23  and  C_26
REMARK    9  A    between atoms: N_28  and  C_29
REMARK   10  A    between atoms: C_33  and  C_36
REMARK   11  A    between atoms: C_34  and  C_35
REMARK                            x       y       z     vdW  Elec       q    Type
REMARK                         _______ _______ _______ _____ _____    ______ ____
ROOT
ATOM      1  C   UNL     1      -2.679   0.722   0.426  0.00  0.00    +0.138 A 
ATOM      2  C   UNL     1      -2.824  -0.742   0.542  0.00  0.00    +0.279 A 
ATOM      3  O   UNL     1      -1.854  -1.442   0.769  0.00  0.00    -0.265 OA
ATOM      4  N   UNL     1      -4.048  -1.295   0.393  0.00  0.00    -0.293 N 
ATOM      5  C   UNL     1      -5.129  -0.474   0.137  0.00  0.00    +0.071 A 
ATOM      6  C   UNL     1      -6.400  -1.018  -0.021  0.00  0.00    +0.028 A 
ATOM      7  C   UNL     1      -7.473  -0.193  -0.276  0.00  0.00    +0.002 A 
ATOM      8  C   UNL     1      -7.298   1.181  -0.378  0.00  0.00    +0.002 A 
ATOM      9  C   UNL     1      -6.061   1.738  -0.227  0.00  0.00    +0.030 A 
ATOM     10  C   UNL     1      -4.951   0.919   0.033  0.00  0.00    +0.088 A 
ATOM     11  N   UNL     1      -3.732   1.468   0.187  0.00  0.00    -0.240 NA
ENDROOT
BRANCH   1  17
ATOM     12  C   UNL     1      -0.337   1.100  -0.350  0.00  0.00    +0.043 A 
ATOM     13  C   UNL     1       0.909   1.688  -0.186  0.00  0.00    +0.024 A 
ATOM     14  C   UNL     1       1.146   2.518   0.892  0.00  0.00    +0.005 A 
ATOM     15  C   UNL     1       0.146   2.769   1.816  0.00  0.00    -0.050 A 
ATOM     16  C   UNL     1      -1.098   2.193   1.668  0.00  0.00    +0.015 A 
ATOM     17  C   UNL     1      -1.350   1.348   0.587  0.00  0.00    +0.027 A 
ATOM     18  C   UNL     1       0.418   3.677   2.988  0.00  0.00    +0.044 C 
BRANCH  12  21
ATOM     19  C   UNL     1       0.446  -0.377  -2.038  0.00  0.00    +0.217 C 
ATOM     20  O   UNL     1       1.563  -0.301  -1.573  0.00  0.00    -0.275 OA
ATOM     21  N   UNL     1      -0.579   0.261  -1.439  0.00  0.00    -0.285 N 
ATOM     22  H   UNL     1      -1.605   0.121  -1.808  0.00  0.00    +0.155 HD
BRANCH  19  24
ATOM     23  C   UNL     1       1.521  -1.801  -3.760  0.00  0.00    +0.013 C 
ATOM     24  C   UNL     1       0.203  -1.185  -3.287  0.00  0.00    +0.093 C 
ENDBRANCH  19  24
ENDBRANCH  12  21
ENDBRANCH   1  17
BRANCH   4  25
ATOM     25  C   UNL     1      -4.226  -2.745   0.503  0.00  0.00    +0.174 C 
ATOM     26  C   UNL     1      -3.290  -3.449  -0.482  0.00  0.00    +0.041 C 
BRANCH  25  27
ATOM     27  C   UNL     1      -3.901  -3.186   1.907  0.00  0.00    +0.240 C 
ATOM     28  O   UNL     1      -3.555  -2.370   2.735  0.00  0.00    -0.273 OA
ATOM     29  N   UNL     1      -3.995  -4.488   2.243  0.00  0.00    -0.284 N 
ATOM     30  H   UNL     1      -4.394  -5.215   1.520  0.00  0.00    +0.155 HD
BRANCH  29  31
ATOM     31  C   UNL     1      -3.587  -4.915   3.511  0.00  0.00    +0.037 A 
ATOM     32  C   UNL     1      -2.649  -4.179   4.224  0.00  0.00    +0.023 A 
ATOM     33  C   UNL     1      -2.247  -4.603   5.476  0.00  0.00    +0.002 A 
ATOM     34  C   UNL     1      -2.779  -5.758   6.019  0.00  0.00    +0.004 A 
ATOM     35  C   UNL     1      -3.713  -6.493   5.312  0.00  0.00    -0.046 A 
ATOM     36  C   UNL     1      -4.122  -6.071   4.062  0.00  0.00    -0.026 A 
ATOM     37  C   UNL     1      -5.145  -6.869   3.295  0.00  0.00    +0.046 C 
ATOM     38  C   UNL     1      -4.289  -7.751   5.909  0.00  0.00    +0.044 C 
ENDBRANCH  29  31
ENDBRANCH  25  27
ENDBRANCH   4  25
TORSDOF 6
