REMARK  Name = ZINC12570986
REMARK  9 active torsions:
REMARK  status: ('A' for Active; 'I' for Inactive)
REMARK    1  A    between atoms: C_1  and  C_2
REMARK    2  A    between atoms: C_5  and  O_9
REMARK    3  A    between atoms: O_9  and  C_10
REMARK    4  A    between atoms: C_10  and  C_11
REMARK    5  A    between atoms: N_13  and  C_14
REMARK    6  A    between atoms: C_14  and  N_16
REMARK    7  A    between atoms: N_16  and  N_17
REMARK    8  A    between atoms: C_18  and  C_20
REMARK    9  A    between atoms: C_23  and  O_26
REMARK                            x       y       z     vdW  Elec       q    Type
REMARK                         _______ _______ _______ _____ _____    ______ ____
ROOT
ATOM      1  C   UNL     1       3.627  -4.870  -0.058  0.00  0.00    +0.153 C 
ATOM      2  S   UNL     1       3.655  -6.581  -0.067  0.00  0.00    -0.017 S 
ENDROOT
BRANCH   1   5
ATOM      3  C   UNL     1       5.961  -4.830  -0.081  0.00  0.00    +0.256 C 
ATOM      4  O   UNL     1       5.981  -6.043  -0.087  0.00  0.00    -0.272 OA
ATOM      5  N   UNL     1       4.783  -4.176  -0.066  0.00  0.00    -0.264 N 
ATOM      6  H   UNL     1       4.766  -3.206  -0.061  0.00  0.00    +0.157 HD
BRANCH   3   7
ATOM      7  C   UNL     1       7.253  -4.055  -0.089  0.00  0.00    +0.325 C 
BRANCH   7   8
ATOM      8  O   UNL     1       8.355  -4.966  -0.105  0.00  0.00    -0.482 OA
BRANCH   8  13
ATOM      9  C   UNL     1      13.523  -2.725  -0.141  0.00  0.00    +0.044 C 
ATOM     10  C   UNL     1      12.140  -3.325  -0.132  0.00  0.00    -0.049 A 
ATOM     11  C   UNL     1      11.030  -2.500  -0.118  0.00  0.00    +0.007 A 
ATOM     12  C   UNL     1       9.762  -3.047  -0.109  0.00  0.00    +0.047 A 
ATOM     13  C   UNL     1       9.602  -4.425  -0.114  0.00  0.00    +0.135 A 
ATOM     14  C   UNL     1      10.717  -5.251  -0.123  0.00  0.00    +0.060 A 
ATOM     15  C   UNL     1      11.984  -4.699  -0.137  0.00  0.00    +0.022 A 
ATOM     16 BR   UNL     1      10.504  -7.130  -0.123  0.00  0.00    -0.047 Br
ENDBRANCH   8  13
ENDBRANCH   7   8
ENDBRANCH   3   7
ENDBRANCH   1   5
BRANCH   1  17
ATOM     17  N   UNL     1       2.449  -4.215  -0.043  0.00  0.00    -0.245 N 
ATOM     18  H   UNL     1       1.617  -4.714  -0.037  0.00  0.00    +0.172 HD
BRANCH  17  19
ATOM     19  N   UNL     1       2.425  -2.814  -0.036  0.00  0.00    -0.231 N 
ATOM     20  C   UNL     1       1.247  -2.160  -0.021  0.00  0.00    +0.260 C 
ATOM     21  O   UNL     1       0.204  -2.785  -0.014  0.00  0.00    -0.269 OA
ATOM     22  H   UNL     1       3.257  -2.315  -0.041  0.00  0.00    +0.173 HD
BRANCH  20  23
ATOM     23  C   UNL     1       1.223  -0.684  -0.013  0.00  0.00    +0.038 A 
ATOM     24  C   UNL     1       0.002  -0.004   0.002  0.00  0.00    +0.016 A 
ATOM     25  C   UNL     1      -0.017   1.373   0.010  0.00  0.00    +0.046 A 
ATOM     26  C   UNL     1       1.177   2.086   0.002  0.00  0.00    +0.117 A 
ATOM     27  C   UNL     1       2.393   1.413  -0.013  0.00  0.00    +0.046 A 
ATOM     28  C   UNL     1       2.420   0.036  -0.021  0.00  0.00    +0.016 A 
BRANCH  26  29
ATOM     29  O   UNL     1       1.154   3.443   0.009  0.00  0.00    -0.507 OA
ATOM     30  H   UNL     1       1.156   3.832   0.894  0.00  0.00    +0.292 HD
ENDBRANCH  26  29
ENDBRANCH  20  23
ENDBRANCH  17  19
ENDBRANCH   1  17
TORSDOF 8
