REMARK  Name = ZINC24715702
REMARK  8 active torsions:
REMARK  status: ('A' for Active; 'I' for Inactive)
REMARK    1  A    between atoms: C_1  and  C_2
REMARK    2  A    between atoms: C_2  and  O_3
REMARK    3  A    between atoms: O_3  and  C_4
REMARK    4  A    between atoms: C_4  and  C_6
REMARK    5  A    between atoms: C_6  and  C_8
REMARK    6  A    between atoms: C_6  and  N_15
REMARK    7  A    between atoms: C_21  and  C_23
REMARK    8  A    between atoms: C_24  and  C_25
REMARK                            x       y       z     vdW  Elec       q    Type
REMARK                         _______ _______ _______ _____ _____    ______ ____
ROOT
ATOM      1  N   UNL     1      -2.414   0.959   0.146  0.00  0.00    +0.393 N 
ATOM      2  C   UNL     1      -2.290   0.206   1.401  0.00  0.00    -0.058 C 
ATOM      3  C   UNL     1      -3.382  -0.867   1.459  0.00  0.00    +0.089 C 
ATOM      4  N   UNL     1      -3.304  -1.680   0.236  0.00  0.00    -0.302 N 
ATOM      5  C   UNL     1      -3.285  -0.986  -1.061  0.00  0.00    +0.089 C 
ATOM      6  C   UNL     1      -2.196   0.091  -1.020  0.00  0.00    -0.058 C 
ATOM      7  C   UNL     1      -3.252  -3.025   0.302  0.00  0.00    +0.239 C 
ATOM      8  O   UNL     1      -3.285  -3.687  -0.721  0.00  0.00    -0.271 OA
ATOM      9  H   UNL     1      -3.442   1.345   0.087  0.00  0.00    -0.080 HD
ENDROOT
BRANCH   7  10
ATOM     10  C   UNL     1      -3.160  -3.670   1.559  0.00  0.00    +0.071 C 
ATOM     11  C   UNL     1      -3.069  -5.021   1.623  0.00  0.00    +0.051 C 
BRANCH  11  12
ATOM     12  C   UNL     1      -2.977  -5.666   2.880  0.00  0.00    +0.128 A 
ATOM     13  C   UNL     1      -2.884  -7.026   3.092  0.00  0.00    +0.049 A 
ATOM     14  C   UNL     1      -2.812  -7.210   4.481  0.00  0.00    +0.042 A 
ATOM     15  C   UNL     1      -2.871  -5.985   5.050  0.00  0.00    +0.195 A 
ATOM     16  O   UNL     1      -2.970  -5.059   4.086  0.00  0.00    -0.464 OA
ENDBRANCH  11  12
ENDBRANCH   7  10
BRANCH   1  17
ATOM     17  C   UNL     1      -1.496   2.106   0.127  0.00  0.00    +0.073 C 
BRANCH  17  18
ATOM     18  C   UNL     1      -1.675   2.871  -1.159  0.00  0.00    -0.050 A 
ATOM     19  C   UNL     1      -2.944   3.211  -1.590  0.00  0.00    +0.004 A 
ATOM     20  C   UNL     1      -3.108   3.918  -2.766  0.00  0.00    +0.020 A 
ATOM     21  C   UNL     1      -2.004   4.276  -3.518  0.00  0.00    +0.041 A 
ATOM     22  C   UNL     1      -0.734   3.931  -3.089  0.00  0.00    +0.020 A 
ATOM     23  C   UNL     1      -0.571   3.229  -1.909  0.00  0.00    +0.004 A 
ATOM     24 CL   UNL     1      -2.210   5.157  -4.999  0.00  0.00    -0.084 Cl
ENDBRANCH  17  18
BRANCH  17  25
ATOM     25  C   UNL     1      -1.797   3.009   1.295  0.00  0.00    +0.298 C 
ATOM     26  O   UNL     1      -2.913   3.046   1.759  0.00  0.00    -0.252 OA
BRANCH  25  27
ATOM     27  O   UNL     1      -0.825   3.768   1.825  0.00  0.00    -0.466 OA
BRANCH  27  29
ATOM     28  C   UNL     1       0.043   5.394   3.416  0.00  0.00    +0.048 C 
ATOM     29  C   UNL     1      -1.185   4.609   2.952  0.00  0.00    +0.228 C 
ENDBRANCH  27  29
ENDBRANCH  25  27
ENDBRANCH  17  25
ENDBRANCH   1  17
TORSDOF 7
