REMARK  Name = ZINC39637365
REMARK  10 active torsions:
REMARK  status: ('A' for Active; 'I' for Inactive)
REMARK    1  A    between atoms: C_1  and  C_2
REMARK    2  A    between atoms: C_2  and  C_3
REMARK    3  A    between atoms: C_3  and  C_4
REMARK    4  A    between atoms: C_4  and  C_5
REMARK    5  A    between atoms: C_5  and  C_6
REMARK    6  A    between atoms: C_6  and  C_7
REMARK    7  A    between atoms: C_11  and  C_20
REMARK    8  A    between atoms: N_22  and  C_23
REMARK    9  A    between atoms: C_28  and  C_33
REMARK   10  A    between atoms: C_30  and  C_32
REMARK                            x       y       z     vdW  Elec       q    Type
REMARK                         _______ _______ _______ _____ _____    ______ ____
ROOT
ATOM      1  C   UNL     1       2.300  -4.595   3.829  0.00  0.00    +0.216 C 
ATOM      2  O   UNL     1       2.810  -3.826   4.616  0.00  0.00    -0.276 OA
ATOM      3  N   UNL     1       2.454  -5.924   3.989  0.00  0.00    -0.300 N 
ATOM      4  C   UNL     1       1.917  -7.009   3.135  0.00  0.00    +0.121 C 
ATOM      5  C   UNL     1       3.054  -8.054   3.071  0.00  0.00    +0.100 C 
ATOM      6  C   UNL     1       3.890  -7.802   4.336  0.00  0.00    -0.004 C 
ATOM      7  C   UNL     1       3.205  -6.630   5.054  0.00  0.00    +0.115 C 
ATOM      8  C   UNL     1       3.890  -9.041   5.226  0.00  0.00    -0.010 C 
ATOM      9  C   UNL     1       4.776  -8.786   6.449  0.00  0.00    -0.082 C 
ATOM     10  N   UNL     1       6.141  -8.474   6.010  0.00  0.00    +0.379 N 
ATOM     11  C   UNL     1       6.145  -7.229   5.232  0.00  0.00    -0.082 C 
ATOM     12  C   UNL     1       5.318  -7.419   3.958  0.00  0.00    -0.010 C 
ATOM     13  H   UNL     1       6.736  -8.366   6.818  0.00  0.00    -0.086 HD
ATOM     14  H   UNL     1       6.489  -9.228   5.438  0.00  0.00    -0.086 HD
ENDROOT
BRANCH   5  15
ATOM     15  C   UNL     1       2.485  -9.450   3.085  0.00  0.00    +0.218 C 
ATOM     16  O   UNL     1       1.448  -9.676   3.673  0.00  0.00    -0.275 OA
ATOM     17  N   UNL     1       3.128 -10.446   2.444  0.00  0.00    -0.312 N 
ATOM     18  H   UNL     1       3.957 -10.265   1.974  0.00  0.00    +0.149 HD
BRANCH  17  19
ATOM     19  C   UNL     1       2.575 -11.803   2.458  0.00  0.00    +0.076 C 
ATOM     20  C   UNL     1       3.027 -12.525   3.728  0.00  0.00    +0.022 C 
ATOM     21  C   UNL     1       2.450 -13.942   3.742  0.00  0.00    +0.002 C 
ATOM     22  C   UNL     1       2.948 -14.708   2.515  0.00  0.00    +0.003 C 
ATOM     23  C   UNL     1       2.495 -13.985   1.245  0.00  0.00    -0.009 C 
ATOM     24  C   UNL     1       3.073 -12.569   1.230  0.00  0.00    +0.009 C 
ATOM     25  C   UNL     1       4.601 -12.640   1.259  0.00  0.00    +0.009 C 
ATOM     26  C   UNL     1       2.993 -14.751   0.017  0.00  0.00    +0.008 C 
ENDBRANCH  17  19
ENDBRANCH   5  15
BRANCH   1  27
ATOM     27  C   UNL     1       1.493  -4.063   2.672  0.00  0.00    +0.096 C 
BRANCH  27  28
ATOM     28  C   UNL     1       1.475  -2.534   2.723  0.00  0.00    +0.009 C 
BRANCH  28  29
ATOM     29  C   UNL     1       0.656  -1.994   1.549  0.00  0.00    +0.000 C 
BRANCH  29  30
ATOM     30  C   UNL     1       0.639  -0.465   1.599  0.00  0.00    -0.000 C 
BRANCH  30  32
ATOM     31  C   UNL     1      -0.198   1.604   0.476  0.00  0.00    +0.004 C 
ATOM     32  C   UNL     1      -0.180   0.074   0.425  0.00  0.00    -0.003 C 
ENDBRANCH  30  32
ENDBRANCH  29  30
ENDBRANCH  28  29
ENDBRANCH  27  28
ENDBRANCH   1  27
TORSDOF 7
