REMARK  Name = ZINC32932917
REMARK  8 active torsions:
REMARK  status: ('A' for Active; 'I' for Inactive)
REMARK    1  A    between atoms: C_1  and  C_2
REMARK    2  A    between atoms: N_7  and  S_9
REMARK    3  A    between atoms: S_9  and  N_12
REMARK    4  A    between atoms: N_15  and  C_18
REMARK    5  A    between atoms: C_18  and  C_20
REMARK    6  A    between atoms: C_18  and  C_21
REMARK    7  A    between atoms: C_23  and  C_26
REMARK    8  A    between atoms: C_30  and  C_32
REMARK                            x       y       z     vdW  Elec       q    Type
REMARK                         _______ _______ _______ _____ _____    ______ ____
ROOT
ATOM      1  N   UNL     1       4.300   4.095   3.200  0.00  0.00    -0.170 NA
ATOM      2  C   UNL     1       4.638   4.660   1.884  0.00  0.00    +0.092 C 
ATOM      3  C   UNL     1       3.386   4.620   1.002  0.00  0.00    -0.060 C 
ATOM      4  N   UNL     1       2.855   3.251   0.972  0.00  0.00    +0.389 N 
ATOM      5  C   UNL     1       2.426   2.816   2.308  0.00  0.00    -0.060 C 
ATOM      6  C   UNL     1       3.639   2.782   3.244  0.00  0.00    +0.092 C 
ATOM      7  H   UNL     1       3.668   2.584   0.648  0.00  0.00    -0.081 HD
ENDROOT
BRANCH   1   8
ATOM      8  S   UNL     1       4.656   4.915   4.594  0.00  0.00    +0.099 S 
ATOM      9  O   UNL     1       4.742   3.942   5.626  0.00  0.00    -0.141 OA
ATOM     10  O   UNL     1       5.728   5.795   4.285  0.00  0.00    -0.141 OA
BRANCH   8  16
ATOM     11  C   UNL     1       0.809   5.891   7.757  0.00  0.00    +0.009 C 
ATOM     12  C   UNL     1       2.028   6.336   6.947  0.00  0.00    +0.002 C 
ATOM     13  C   UNL     1       1.785   7.738   6.383  0.00  0.00    +0.006 C 
ATOM     14  C   UNL     1       3.018   8.196   5.601  0.00  0.00    +0.017 C 
ATOM     15  C   UNL     1       3.261   7.241   4.433  0.00  0.00    +0.110 C 
ATOM     16  N   UNL     1       3.349   5.867   4.949  0.00  0.00    -0.166 NA
ATOM     17  C   UNL     1       2.257   5.358   5.790  0.00  0.00    +0.113 C 
ENDBRANCH   8  16
ENDBRANCH   1   8
BRANCH   4  18
ATOM     18  C   UNL     1       1.758   3.132   0.002  0.00  0.00    +0.019 C 
ATOM     19  C   UNL     1       2.270   3.491  -1.394  0.00  0.00    -0.003 C 
BRANCH  18  20
ATOM     20  C   UNL     1       1.240   1.717  -0.001  0.00  0.00    +0.214 A 
ATOM     21  N   UNL     1      -0.016   1.348   0.009  0.00  0.00    -0.193 NA
ATOM     22  C   UNL     1       0.002  -0.004   0.002  0.00  0.00    +0.202 A 
ATOM     23  N   UNL     1       1.256  -0.373  -0.012  0.00  0.00    -0.056 NA
ATOM     24  O   UNL     1       1.978   0.602  -0.014  0.00  0.00    -0.339 OA
BRANCH  22  25
ATOM     25  C   UNL     1      -1.180  -0.901   0.009  0.00  0.00    +0.023 A 
ATOM     26  C   UNL     1      -2.466  -0.364   0.025  0.00  0.00    +0.012 A 
ATOM     27  C   UNL     1      -3.562  -1.203   0.031  0.00  0.00    +0.001 A 
ATOM     28  C   UNL     1      -3.385  -2.575   0.022  0.00  0.00    +0.012 A 
ATOM     29  C   UNL     1      -2.112  -3.114   0.006  0.00  0.00    +0.055 A 
ATOM     30  C   UNL     1      -1.009  -2.284  -0.006  0.00  0.00    +0.024 A 
BRANCH  29  31
ATOM     31  C   UNL     1      -1.928  -4.609  -0.005  0.00  0.00    +0.417 C 
ATOM     32  F   UNL     1      -3.180  -5.233   0.004  0.00  0.00    -0.166 F 
ATOM     33  F   UNL     1      -1.228  -4.985  -1.157  0.00  0.00    -0.166 F 
ATOM     34  F   UNL     1      -1.205  -4.998   1.128  0.00  0.00    -0.166 F 
ENDBRANCH  29  31
ENDBRANCH  22  25
ENDBRANCH  18  20
ENDBRANCH   4  18
TORSDOF 6
