REMARK  Name = ZINC37241382
REMARK  7 active torsions:
REMARK  status: ('A' for Active; 'I' for Inactive)
REMARK    1  A    between atoms: C_1  and  C_2
REMARK    2  A    between atoms: C_2  and  C_4
REMARK    3  A    between atoms: C_2  and  N_10
REMARK    4  A    between atoms: N_10  and  C_11
REMARK    5  A    between atoms: C_15  and  N_17
REMARK    6  A    between atoms: N_17  and  S_18
REMARK    7  A    between atoms: S_18  and  C_21
REMARK                            x       y       z     vdW  Elec       q    Type
REMARK                         _______ _______ _______ _____ _____    ______ ____
ROOT
ATOM      1  C   UNL     1      -2.075  -0.647  -1.187  0.00  0.00    +0.029 A 
ATOM      2  C   UNL     1      -1.470  -0.308  -2.391  0.00  0.00    +0.023 A 
ATOM      3  C   UNL     1      -2.165  -0.442  -3.577  0.00  0.00    +0.004 A 
ATOM      4  C   UNL     1      -3.463  -0.914  -3.571  0.00  0.00    +0.024 A 
ATOM      5  C   UNL     1      -4.075  -1.256  -2.371  0.00  0.00    +0.049 A 
ATOM      6  C   UNL     1      -3.377  -1.128  -1.178  0.00  0.00    +0.047 A 
ENDROOT
BRANCH   1   7
ATOM      7  N   UNL     1      -1.372  -0.511   0.012  0.00  0.00    -0.337 N 
ATOM      8  H   UNL     1      -1.794  -0.752   0.852  0.00  0.00    +0.147 HD
BRANCH   7  10
ATOM      9  C   UNL     1      -0.019   1.526   0.010  0.00  0.00    +0.033 C 
ATOM     10  C   UNL     1       0.002  -0.004   0.002  0.00  0.00    +0.105 C 
BRANCH  10  11
ATOM     11  C   UNL     1       0.731  -0.503   1.223  0.00  0.00    +0.024 A 
ATOM     12  C   UNL     1       1.979  -1.024   1.319  0.00  0.00    +0.030 A 
ATOM     13  C   UNL     1       2.447  -1.420   2.558  0.00  0.00    +0.023 A 
ATOM     14  C   UNL     1       1.643  -1.276   3.640  0.00  0.00    +0.046 A 
ATOM     15  S   UNL     1       0.177  -0.556   2.919  0.00  0.00    -0.099 S 
ATOM     16 BR   UNL     1       3.064  -1.205  -0.219  0.00  0.00    -0.049 Br
ENDBRANCH  10  11
ENDBRANCH   7  10
ENDBRANCH   1   7
BRANCH   5  17
ATOM     17  N   UNL     1      -5.387  -1.732  -2.366  0.00  0.00    -0.221 N 
ATOM     18  H   UNL     1      -6.024  -1.393  -1.717  0.00  0.00    +0.173 HD
BRANCH  17  19
ATOM     19  S   UNL     1      -5.857  -2.876  -3.467  0.00  0.00    +0.040 S 
ATOM     20  O   UNL     1      -7.233  -3.103  -3.191  0.00  0.00    -0.155 OA
ATOM     21  O   UNL     1      -5.447  -2.359  -4.725  0.00  0.00    -0.155 OA
ATOM     22  C   UNL     1      -4.886  -4.351  -3.051  0.00  0.00    +0.218 C 
ENDBRANCH  17  19
ENDBRANCH   5  17
TORSDOF 5
