REMARK  Name = ZINC09309703
REMARK  7 active torsions:
REMARK  status: ('A' for Active; 'I' for Inactive)
REMARK    1  A    between atoms: C_1  and  C_2
REMARK    2  A    between atoms: C_5  and  C_34
REMARK    3  A    between atoms: C_6  and  N_8
REMARK    4  A    between atoms: C_9  and  C_33
REMARK    5  A    between atoms: C_11  and  C_14
REMARK    6  A    between atoms: C_12  and  C_13
REMARK    7  A    between atoms: C_24  and  C_26
REMARK                            x       y       z     vdW  Elec       q    Type
REMARK                         _______ _______ _______ _____ _____    ______ ____
ROOT
ATOM      1  C   UNL     1      -1.532  -4.403   5.258  0.00  0.00    +0.026 C 
ATOM      2  C   UNL     1      -1.013  -4.596   6.522  0.00  0.00    +0.081 C 
ATOM      3  C   UNL     1       0.334  -4.088   6.903  0.00  0.00    +0.153 C 
ATOM      4  N   UNL     1       0.848  -2.986   6.423  0.00  0.00    -0.283 NA
ATOM      5  N   UNL     1       1.001  -4.913   7.834  0.00  0.00    -0.152 N 
ATOM      6  C   UNL     1       0.226  -5.734   8.626  0.00  0.00    +0.181 C 
ATOM      7  N   UNL     1      -1.068  -5.918   8.557  0.00  0.00    -0.152 NA
ATOM      8  C   UNL     1      -1.770  -5.314   7.575  0.00  0.00    +0.273 C 
ATOM      9  O   UNL     1      -2.990  -5.359   7.552  0.00  0.00    -0.268 OA
ATOM     10  S   UNL     1       1.431  -6.460   9.705  0.00  0.00    -0.033 S 
ATOM     11  C   UNL     1       2.882  -5.712   8.977  0.00  0.00    +0.130 C 
ATOM     12  N   UNL     1       2.364  -4.965   8.032  0.00  0.00    -0.164 NA
ATOM     13  H   UNL     1       1.745  -2.718   6.679  0.00  0.00    +0.188 HD
ENDROOT
BRANCH   1  17
ATOM     14  N   UNL     1      -0.008  -3.002   2.324  0.00  0.00    -0.317 N 
ATOM     15  C   UNL     1       1.120  -3.346   3.016  0.00  0.00    +0.022 A 
ATOM     16  C   UNL     1       0.768  -3.907   4.184  0.00  0.00    +0.031 A 
ATOM     17  C   UNL     1      -0.702  -3.909   4.219  0.00  0.00    -0.003 A 
ATOM     18  C   UNL     1      -1.110  -3.326   3.030  0.00  0.00    +0.028 A 
ATOM     19  C   UNL     1      -2.536  -3.098   2.600  0.00  0.00    +0.064 C 
ATOM     20  C   UNL     1       2.534  -3.132   2.542  0.00  0.00    +0.064 C 
BRANCH  14  26
ATOM     21  C   UNL     1      -0.005   1.093  -0.400  0.00  0.00    +0.044 C 
ATOM     22  C   UNL     1      -0.018  -0.410  -0.286  0.00  0.00    -0.048 A 
ATOM     23  C   UNL     1      -0.039  -1.188  -1.429  0.00  0.00    +0.004 A 
ATOM     24  C   UNL     1      -0.049  -2.567  -1.329  0.00  0.00    +0.005 A 
ATOM     25  C   UNL     1      -0.039  -3.171  -0.087  0.00  0.00    -0.027 A 
ATOM     26  C   UNL     1      -0.018  -2.392   1.062  0.00  0.00    +0.050 A 
ATOM     27  C   UNL     1      -0.002  -1.007   0.958  0.00  0.00    +0.029 A 
ATOM     28  C   UNL     1      -0.052  -4.674   0.021  0.00  0.00    +0.046 C 
ENDBRANCH  14  26
ENDBRANCH   1  17
BRANCH  11  29
ATOM     29  C   UNL     1       4.303  -5.889   9.346  0.00  0.00    +0.009 A 
ATOM     30  C   UNL     1       5.299  -5.202   8.650  0.00  0.00    +0.013 A 
ATOM     31  C   UNL     1       6.622  -5.372   8.999  0.00  0.00    +0.039 A 
ATOM     32  C   UNL     1       6.965  -6.222  10.037  0.00  0.00    +0.123 A 
ATOM     33  C   UNL     1       5.980  -6.907  10.732  0.00  0.00    +0.039 A 
ATOM     34  C   UNL     1       4.653  -6.740  10.396  0.00  0.00    +0.013 A 
ATOM     35  F   UNL     1       8.263  -6.385  10.374  0.00  0.00    -0.205 F 
ENDBRANCH  11  29
TORSDOF 3
