REMARK  Name = ZINC09820876
REMARK  4 active torsions:
REMARK  status: ('A' for Active; 'I' for Inactive)
REMARK    1  A    between atoms: C_1  and  N_2
REMARK    2  A    between atoms: C_3  and  C_5
REMARK    3  A    between atoms: C_15  and  C_17
REMARK    4  A    between atoms: C_22  and  N_23
REMARK                            x       y       z     vdW  Elec       q    Type
REMARK                         _______ _______ _______ _____ _____    ______ ____
ROOT
ATOM      1  C   UNL     1       2.765   0.706   0.216  0.00  0.00    +0.172 C 
ATOM      2  C   UNL     1       3.006  -0.255  -0.960  0.00  0.00    +0.069 C 
ATOM      3  C   UNL     1       4.149   0.367  -1.731  0.00  0.00    -0.024 A 
ATOM      4  C   UNL     1       4.798  -0.045  -2.879  0.00  0.00    +0.005 A 
ATOM      5  C   UNL     1       5.833   0.708  -3.400  0.00  0.00    +0.000 A 
ATOM      6  C   UNL     1       6.219   1.877  -2.769  0.00  0.00    +0.002 A 
ATOM      7  C   UNL     1       5.574   2.292  -1.624  0.00  0.00    +0.024 A 
ATOM      8  C   UNL     1       4.528   1.536  -1.091  0.00  0.00    +0.041 A 
ATOM      9  N   UNL     1       3.752   1.776   0.047  0.00  0.00    -0.255 N 
ATOM     10  C   UNL     1       3.890   2.836   0.867  0.00  0.00    +0.254 C 
ATOM     11  O   UNL     1       4.789   3.633   0.683  0.00  0.00    -0.270 OA
ENDROOT
BRANCH  10  12
ATOM     12  C   UNL     1       2.949   3.029   1.990  0.00  0.00    +0.069 A 
ATOM     13  C   UNL     1       2.773   2.020   2.939  0.00  0.00    +0.035 A 
ATOM     14  C   UNL     1       1.892   2.208   3.985  0.00  0.00    +0.042 A 
ATOM     15  C   UNL     1       1.185   3.393   4.095  0.00  0.00    +0.022 A 
ATOM     16  C   UNL     1       1.355   4.396   3.157  0.00  0.00    +0.035 A 
ATOM     17  C   UNL     1       2.236   4.223   2.110  0.00  0.00    +0.138 A 
ATOM     18 CL   UNL     1       1.671   0.955   5.166  0.00  0.00    -0.084 Cl
BRANCH  17  19
ATOM     19  N   UNL     1       2.421   5.300   1.111  0.00  0.00    +0.057 N 
ATOM     20  O   UNL     1       1.889   6.383   1.278  0.00  0.00    -0.126 OA
ATOM     21  O   UNL     1       3.105   5.103   0.123  0.00  0.00    -0.126 OA
ENDBRANCH  17  19
ENDBRANCH  10  12
BRANCH   1  24
ATOM     22  C   UNL     1      -1.052   0.989   0.166  0.00  0.00    +0.128 C 
ATOM     23  N   UNL     1       0.306   0.443   0.232  0.00  0.00    -0.317 N 
ATOM     24  C   UNL     1       1.369   1.268   0.154  0.00  0.00    +0.234 C 
ATOM     25  O   UNL     1       1.201   2.463   0.034  0.00  0.00    -0.274 OA
ATOM     26  H   UNL     1       0.440  -0.513   0.328  0.00  0.00    +0.148 HD
ENDBRANCH   1  24
TORSDOF 3
