REMARK  Name = ZINC03058638
REMARK  10 active torsions:
REMARK  status: ('A' for Active; 'I' for Inactive)
REMARK    1  A    between atoms: C_1  and  N_2
REMARK    2  A    between atoms: N_2  and  C_3
REMARK    3  A    between atoms: N_2  and  C_11
REMARK    4  A    between atoms: C_3  and  C_4
REMARK    5  A    between atoms: C_4  and  C_5
REMARK    6  A    between atoms: C_11  and  C_12
REMARK    7  A    between atoms: C_12  and  N_13
REMARK    8  A    between atoms: C_14  and  C_16
REMARK    9  A    between atoms: C_16  and  N_17
REMARK   10  A    between atoms: C_26  and  C_27
REMARK                            x       y       z     vdW  Elec       q    Type
REMARK                         _______ _______ _______ _____ _____    ______ ____
ROOT
ATOM      1  N   UNL     1       0.708   3.977  -0.823  0.00  0.00    -0.253 N 
ATOM      2  C   UNL     1       0.944   2.596  -0.844  0.00  0.00    +0.080 A 
ATOM      3  C   UNL     1       2.199   2.110  -1.180  0.00  0.00    +0.027 A 
ATOM      4  C   UNL     1       2.429   0.748  -1.198  0.00  0.00    +0.002 A 
ATOM      5  C   UNL     1       1.413  -0.135  -0.882  0.00  0.00    +0.004 A 
ATOM      6  C   UNL     1       0.158   0.341  -0.547  0.00  0.00    +0.048 A 
ATOM      7  C   UNL     1      -0.081   1.705  -0.527  0.00  0.00    +0.150 A 
ATOM      8  O   UNL     1      -1.317   2.179  -0.205  0.00  0.00    -0.449 OA
ATOM      9  C   UNL     1      -1.353   3.439   0.331  0.00  0.00    +0.191 C 
ATOM     10  C   UNL     1      -2.201   3.756   1.335  0.00  0.00    +0.062 C 
ATOM     11  C   UNL     1      -0.424   4.437  -0.239  0.00  0.00    +0.287 C 
ATOM     12  O   UNL     1      -0.668   5.628  -0.186  0.00  0.00    -0.266 OA
ENDROOT
BRANCH  10  13
ATOM     13  C   UNL     1      -2.095   5.063   2.001  0.00  0.00    +0.014 A 
ATOM     14  C   UNL     1      -0.839   5.598   2.305  0.00  0.00    +0.011 A 
ATOM     15  C   UNL     1      -0.748   6.825   2.926  0.00  0.00    +0.001 A 
ATOM     16  C   UNL     1      -1.896   7.525   3.259  0.00  0.00    +0.003 A 
ATOM     17  C   UNL     1      -3.143   7.003   2.967  0.00  0.00    +0.039 A 
ATOM     18  C   UNL     1      -3.252   5.776   2.341  0.00  0.00    +0.131 A 
ATOM     19  F   UNL     1      -4.471   5.266   2.057  0.00  0.00    -0.205 F 
ENDBRANCH  10  13
BRANCH   1  20
ATOM     20  C   UNL     1       1.669   4.906  -1.422  0.00  0.00    +0.209 C 
BRANCH  20  22
ATOM     21  N   UNL     1       2.068   5.952  -3.628  0.00  0.00    -0.316 N 
ATOM     22  C   UNL     1       1.317   5.128  -2.870  0.00  0.00    +0.231 C 
ATOM     23  O   UNL     1       0.358   4.565  -3.355  0.00  0.00    -0.274 OA
ATOM     24  H   UNL     1       2.938   6.462  -3.189  0.00  0.00    +0.149 HD
BRANCH  21  25
ATOM     25  C   UNL     1       1.726   6.167  -5.036  0.00  0.00    +0.085 C 
BRANCH  25  26
ATOM     26  C   UNL     1       2.730   7.138  -5.662  0.00  0.00    -0.060 C 
BRANCH  26  28
ATOM     27  C   UNL     1       1.100   8.051  -7.202  0.00  0.00    -0.096 C 
ATOM     28  N   UNL     1       2.387   7.354  -7.074  0.00  0.00    +0.379 N 
ATOM     29  H   UNL     1       2.288   6.369  -7.552  0.00  0.00    -0.082 HD
BRANCH  28  30
ATOM     30  C   UNL     1       3.454   8.087  -7.768  0.00  0.00    -0.074 C 
BRANCH  30  31
ATOM     31  C   UNL     1       3.184   8.076  -9.274  0.00  0.00    +0.016 C 
BRANCH  31  32
ATOM     32  C   UNL     1       4.278   8.828  -9.987  0.00  0.00    -0.049 A 
ATOM     33  C   UNL     1       4.150  10.185 -10.213  0.00  0.00    +0.003 A 
ATOM     34  C   UNL     1       5.156  10.876 -10.862  0.00  0.00    +0.000 A 
ATOM     35  C   UNL     1       6.286  10.207 -11.294  0.00  0.00    +0.000 A 
ATOM     36  C   UNL     1       6.412   8.848 -11.073  0.00  0.00    +0.000 A 
ATOM     37  C   UNL     1       5.408   8.158 -10.419  0.00  0.00    +0.003 A 
ENDBRANCH  31  32
ENDBRANCH  30  31
ENDBRANCH  28  30
ENDBRANCH  26  28
ENDBRANCH  25  26
ENDBRANCH  21  25
ENDBRANCH  20  22
ENDBRANCH   1  20
TORSDOF 9
