REMARK  Name = ZINC47517049
REMARK  10 active torsions:
REMARK  status: ('A' for Active; 'I' for Inactive)
REMARK    1  A    between atoms: C_1  and  C_2
REMARK    2  A    between atoms: C_2  and  C_3
REMARK    3  A    between atoms: C_3  and  C_4
REMARK    4  A    between atoms: C_4  and  N_5
REMARK    5  A    between atoms: N_5  and  C_6
REMARK    6  A    between atoms: C_7  and  C_9
REMARK    7  A    between atoms: N_17  and  C_18
REMARK    8  A    between atoms: C_21  and  O_24
REMARK    9  A    between atoms: O_24  and  C_25
REMARK   10  A    between atoms: C_25  and  C_26
REMARK                            x       y       z     vdW  Elec       q    Type
REMARK                         _______ _______ _______ _____ _____    ______ ____
ROOT
ATOM      1  C   UNL     1       0.667  -3.157  -4.869  0.00  0.00    +0.078 C 
ATOM      2  C   UNL     1       1.406  -1.873  -5.253  0.00  0.00    +0.032 C 
ATOM      3  C   UNL     1       2.461  -2.194  -6.316  0.00  0.00    +0.110 C 
ATOM      4  N   UNL     1       1.806  -2.873  -7.442  0.00  0.00    -0.285 N 
ATOM      5  C   UNL     1       0.995  -4.068  -7.171  0.00  0.00    +0.110 C 
ATOM      6  C   UNL     1      -0.044  -3.726  -6.098  0.00  0.00    +0.032 C 
ATOM      7  C   UNL     1       1.946  -2.409  -8.700  0.00  0.00    +0.306 C 
ATOM      8  O   UNL     1       2.539  -1.367  -8.900  0.00  0.00    -0.252 OA
ATOM      9  N   UNL     1       1.429  -3.101  -9.735  0.00  0.00    -0.269 N 
ATOM     10  H   UNL     1       0.887  -3.887  -9.570  0.00  0.00    +0.156 HD
ENDROOT
BRANCH   9  11
ATOM     11  C   UNL     1       1.676  -2.683 -11.050  0.00  0.00    +0.035 A 
ATOM     12  C   UNL     1       2.889  -2.089 -11.373  0.00  0.00    +0.027 A 
ATOM     13  C   UNL     1       3.131  -1.677 -12.669  0.00  0.00    +0.047 A 
ATOM     14  C   UNL     1       2.164  -1.858 -13.647  0.00  0.00    +0.121 A 
ATOM     15  C   UNL     1       0.953  -2.451 -13.324  0.00  0.00    +0.047 A 
ATOM     16  C   UNL     1       0.711  -2.868 -12.030  0.00  0.00    +0.027 A 
BRANCH  14  17
ATOM     17  O   UNL     1       2.404  -1.453 -14.923  0.00  0.00    -0.483 OA
BRANCH  17  18
ATOM     18  C   UNL     1       1.364  -1.670 -15.879  0.00  0.00    +0.324 C 
BRANCH  18  19
ATOM     19  C   UNL     1       1.806  -1.161 -17.226  0.00  0.00    +0.248 C 
ATOM     20  O   UNL     1       2.904  -0.662 -17.356  0.00  0.00    -0.272 OA
ATOM     21  N   UNL     1       0.982  -1.261 -18.288  0.00  0.00    -0.327 N 
ATOM     22  H   UNL     1       0.104  -1.660 -18.184  0.00  0.00    +0.145 HD
ATOM     23  H   UNL     1       1.266  -0.934 -19.156  0.00  0.00    +0.145 HD
ENDBRANCH  18  19
ENDBRANCH  17  18
ENDBRANCH  14  17
ENDBRANCH   9  11
BRANCH   1  26
ATOM     24  N   UNL     1       0.055  -2.617  -2.534  0.00  0.00    -0.304 N 
ATOM     25  C   UNL     1       1.484  -2.540  -2.223  0.00  0.00    +0.132 C 
ATOM     26  C   UNL     1      -0.348  -2.851  -3.798  0.00  0.00    +0.219 C 
ATOM     27  O   UNL     1      -1.529  -2.816  -4.075  0.00  0.00    -0.275 OA
BRANCH  24  28
ATOM     28  C   UNL     1      -0.936  -2.440  -1.470  0.00  0.00    +0.107 C 
BRANCH  28  29
ATOM     29  C   UNL     1      -1.302  -0.959  -1.355  0.00  0.00    +0.019 C 
BRANCH  29  31
ATOM     30  C   UNL     1      -2.704   0.707  -0.129  0.00  0.00    +0.004 C 
ATOM     31  C   UNL     1      -2.338  -0.774  -0.244  0.00  0.00    -0.002 C 
ENDBRANCH  29  31
ENDBRANCH  28  29
ENDBRANCH  24  28
ENDBRANCH   1  26
TORSDOF 8
