REMARK  Name = ZINC32102723
REMARK  4 active torsions:
REMARK  status: ('A' for Active; 'I' for Inactive)
REMARK    1  A    between atoms: C_2  and  C_3
REMARK    2  A    between atoms: C_3  and  N_4
REMARK    3  A    between atoms: C_5  and  C_7
REMARK    4  A    between atoms: C_11  and  N_12
REMARK                            x       y       z     vdW  Elec       q    Type
REMARK                         _______ _______ _______ _____ _____    ______ ____
ROOT
ATOM      1  C   UNL     1       3.526   2.339  -0.025  0.00  0.00    +0.073 A 
ATOM      2  C   UNL     1       4.828   1.697  -0.034  0.00  0.00    -0.023 A 
ATOM      3  C   UNL     1       4.803   0.345  -0.042  0.00  0.00    -0.004 A 
ATOM      4  S   UNL     1       3.083  -0.074  -0.028  0.00  0.00    -0.073 S 
ATOM      5  C   UNL     1       2.407   1.522  -0.013  0.00  0.00    +0.119 A 
ATOM      6  C   UNL     1       5.981  -0.579  -0.059  0.00  0.00    +0.043 C 
ATOM      7  C   UNL     1       7.227   0.231  -0.445  0.00  0.00    +0.005 C 
ATOM      8  C   UNL     1       7.265   1.509   0.399  0.00  0.00    +0.005 C 
ATOM      9  C   UNL     1       6.149   2.457  -0.042  0.00  0.00    +0.037 C 
ENDROOT
BRANCH   5  10
ATOM     10  N   UNL     1       1.065   1.893   0.002  0.00  0.00    -0.193 N 
ATOM     11  C   UNL     1      -0.013   1.076   0.008  0.00  0.00    +0.251 A 
ATOM     12  N   UNL     1      -1.075   1.837   0.017  0.00  0.00    -0.116 NA
ATOM     13  N   UNL     1      -0.744   3.078   0.026  0.00  0.00    -0.023 NA
ATOM     14  N   UNL     1       0.539   3.196   0.014  0.00  0.00    -0.039 NA
ENDBRANCH   5  10
BRANCH   1  16
ATOM     15  N   UNL     1       3.328   4.473  -1.190  0.00  0.00    -0.308 N 
ATOM     16  C   UNL     1       3.400   3.802  -0.023  0.00  0.00    +0.247 C 
ATOM     17  O   UNL     1       3.359   4.408   1.031  0.00  0.00    -0.270 OA
ATOM     18  H   UNL     1       3.365   3.925  -2.143  0.00  0.00    +0.149 HD
BRANCH  15  19
ATOM     19  C   UNL     1       3.202   5.933  -1.188  0.00  0.00    +0.131 C 
BRANCH  19  21
ATOM     20  C   UNL     1       2.141   7.182  -2.998  0.00  0.00    +0.005 C 
ATOM     21  C   UNL     1       3.143   6.433  -2.609  0.00  0.00    -0.016 C 
ENDBRANCH  19  21
ENDBRANCH  15  19
ENDBRANCH   1  16
TORSDOF 4
