REMARK  Name = ZINC06281742
REMARK  11 active torsions:
REMARK  status: ('A' for Active; 'I' for Inactive)
REMARK    1  A    between atoms: C_1  and  C_2
REMARK    2  A    between atoms: C_5  and  C_9
REMARK    3  A    between atoms: C_6  and  C_8
REMARK    4  A    between atoms: N_11  and  C_12
REMARK    5  A    between atoms: C_12  and  N_14
REMARK    6  A    between atoms: N_14  and  C_15
REMARK    7  A    between atoms: C_17  and  C_23
REMARK    8  A    between atoms: C_20  and  O_21
REMARK    9  A    between atoms: C_23  and  C_24
REMARK   10  A    between atoms: C_23  and  C_25
REMARK   11  A    between atoms: C_23  and  C_26
REMARK                            x       y       z     vdW  Elec       q    Type
REMARK                         _______ _______ _______ _____ _____    ______ ____
ROOT
ATOM      1  N   UNL     1      -4.579   1.377   0.860  0.00  0.00    -0.294 N 
ATOM      2  H   UNL     1      -4.575   0.435   0.630  0.00  0.00    +0.154 HD
ENDROOT
BRANCH   1   3
ATOM      3  C   UNL     1      -5.795   2.064   0.975  0.00  0.00    +0.076 A 
ATOM      4  C   UNL     1      -5.911   3.357   0.486  0.00  0.00    +0.031 A 
ATOM      5  C   UNL     1      -7.111   4.034   0.600  0.00  0.00    -0.039 A 
ATOM      6  C   UNL     1      -8.197   3.425   1.201  0.00  0.00    +0.028 A 
ATOM      7  C   UNL     1      -8.089   2.136   1.692  0.00  0.00    +0.084 A 
ATOM      8  C   UNL     1      -6.891   1.449   1.575  0.00  0.00    +0.156 A 
ATOM      9 CL   UNL     1      -9.455   1.377   2.447  0.00  0.00    -0.080 Cl
BRANCH   5  10
ATOM     10  C   UNL     1      -7.236   5.438   0.068  0.00  0.00    -0.013 C 
ATOM     11  C   UNL     1      -6.949   5.441  -1.435  0.00  0.00    +0.015 C 
ATOM     12  C   UNL     1      -8.654   5.955   0.318  0.00  0.00    +0.015 C 
ATOM     13  C   UNL     1      -6.230   6.345   0.780  0.00  0.00    +0.015 C 
ENDBRANCH   5  10
BRANCH   8  14
ATOM     14  O   UNL     1      -6.784   0.179   2.051  0.00  0.00    -0.504 OA
ATOM     15  H   UNL     1      -6.500   0.128   2.974  0.00  0.00    +0.292 HD
ENDBRANCH   8  14
ENDBRANCH   1   3
BRANCH   1  16
ATOM     16  C   UNL     1      -3.416   2.025   1.070  0.00  0.00    +0.141 C 
ATOM     17  S   UNL     1      -3.427   3.651   1.606  0.00  0.00    -0.018 S 
BRANCH  16  20
ATOM     18  C   UNL     1      -1.082   2.041   1.068  0.00  0.00    +0.250 C 
ATOM     19  O   UNL     1      -1.090   3.195   1.448  0.00  0.00    -0.270 OA
ATOM     20  N   UNL     1      -2.245   1.393   0.858  0.00  0.00    -0.264 N 
ATOM     21  H   UNL     1      -2.239   0.472   0.555  0.00  0.00    +0.157 HD
BRANCH  18  26
ATOM     22  C   UNL     1       3.918  -0.653   0.145  0.00  0.00    +0.044 C 
ATOM     23  C   UNL     1       2.608   0.052   0.389  0.00  0.00    -0.050 A 
ATOM     24  C   UNL     1       1.421  -0.653   0.305  0.00  0.00    +0.004 A 
ATOM     25  C   UNL     1       0.219  -0.013   0.526  0.00  0.00    +0.013 A 
ATOM     26  C   UNL     1       0.202   1.348   0.836  0.00  0.00    +0.040 A 
ATOM     27  C   UNL     1       1.404   2.053   0.918  0.00  0.00    -0.038 A 
ATOM     28  C   UNL     1       2.599   1.402   0.694  0.00  0.00    +0.007 A 
ATOM     29  C   UNL     1       1.396   3.523   1.251  0.00  0.00    +0.044 C 
ENDBRANCH  18  26
ENDBRANCH  16  20
ENDBRANCH   1  16
TORSDOF 6
