REMARK  Name = ZINC02364424
REMARK  2 active torsions:
REMARK  status: ('A' for Active; 'I' for Inactive)
REMARK    1  A    between atoms: C_1  and  C_2
REMARK    2  A    between atoms: C_5  and  N_9
REMARK                            x       y       z     vdW  Elec       q    Type
REMARK                         _______ _______ _______ _____ _____    ______ ____
ROOT
ATOM      1  N   UNL     1       0.058  -4.173  -0.023  0.00  0.00    -0.209 N 
ATOM      2  C   UNL     1      -1.058  -4.912  -0.027  0.00  0.00    +0.228 C 
ATOM      3  O   UNL     1      -2.188  -4.473  -0.025  0.00  0.00    -0.275 OA
ATOM      4  C   UNL     1      -0.689  -6.378  -0.035  0.00  0.00    +0.074 C 
ATOM      5  C   UNL     1      -1.103  -7.002  -1.381  0.00  0.00    -0.054 C 
ATOM      6  C   UNL     1      -2.251  -6.176  -1.992  0.00  0.00    -0.016 C 
ATOM      7  C   UNL     1      -1.569  -5.114  -2.876  0.00  0.00    -0.020 C 
ATOM      8  C   UNL     1      -0.056  -5.362  -2.710  0.00  0.00    -0.076 C 
ATOM      9  N   UNL     1       0.071  -6.802  -2.284  0.00  0.00    +0.395 N 
ATOM     10  C   UNL     1       1.243  -6.969  -1.409  0.00  0.00    +0.053 C 
ATOM     11  C   UNL     1       0.864  -6.357  -0.039  0.00  0.00    +0.089 C 
ATOM     12  C   UNL     1       1.193  -4.882  -0.033  0.00  0.00    +0.229 C 
ATOM     13  O   UNL     1       2.311  -4.414  -0.034  0.00  0.00    -0.275 OA
ATOM     14  C   UNL     1       1.628  -8.415  -1.272  0.00  0.00    -0.026 A 
ATOM     15  C   UNL     1       0.967  -9.532  -0.811  0.00  0.00    +0.004 A 
ATOM     16  C   UNL     1       1.601 -10.761  -0.809  0.00  0.00    +0.002 A 
ATOM     17  C   UNL     1       2.901 -10.866  -1.270  0.00  0.00    +0.022 A 
ATOM     18  C   UNL     1       3.568  -9.750  -1.732  0.00  0.00    +0.062 A 
ATOM     19  C   UNL     1       2.936  -8.508  -1.737  0.00  0.00    +0.054 A 
ATOM     20  N   UNL     1       3.392  -7.253  -2.149  0.00  0.00    -0.285 N 
ATOM     21  C   UNL     1       2.459  -6.295  -1.989  0.00  0.00    +0.212 C 
ATOM     22  O   UNL     1       2.575  -5.119  -2.260  0.00  0.00    -0.277 OA
ATOM     23 CL   UNL     1       5.200  -9.893  -2.307  0.00  0.00    -0.082 Cl
ATOM     24  H   UNL     1       4.279  -7.090  -2.508  0.00  0.00    +0.155 HD
ATOM     25  H   UNL     1       0.071  -7.440  -3.066  0.00  0.00    -0.079 HD
ENDROOT
BRANCH   1  30
ATOM     26  C   UNL     1      -0.018   1.503   0.010  0.00  0.00    +0.044 C 
ATOM     27  C   UNL     1       0.002  -0.004   0.002  0.00  0.00    -0.049 A 
ATOM     28  C   UNL     1       0.006  -0.688  -1.200  0.00  0.00    +0.005 A 
ATOM     29  C   UNL     1       0.024  -2.068  -1.212  0.00  0.00    +0.025 A 
ATOM     30  C   UNL     1       0.040  -2.771  -0.014  0.00  0.00    +0.058 A 
ATOM     31  C   UNL     1       0.036  -2.082   1.192  0.00  0.00    +0.040 A 
ATOM     32  C   UNL     1       0.023  -0.700   1.196  0.00  0.00    +0.020 A 
ATOM     33 BR   UNL     1       0.056  -3.034   2.825  0.00  0.00    -0.048 Br
ENDBRANCH   1  30
TORSDOF 1
