REMARK  Name = ZINC19798772
REMARK  8 active torsions:
REMARK  status: ('A' for Active; 'I' for Inactive)
REMARK    1  A    between atoms: C_1  and  C_2
REMARK    2  A    between atoms: C_2  and  C_3
REMARK    3  A    between atoms: C_2  and  N_4
REMARK    4  A    between atoms: C_5  and  C_7
REMARK    5  A    between atoms: C_10  and  N_22
REMARK    6  A    between atoms: N_13  and  C_14
REMARK    7  A    between atoms: C_14  and  C_15
REMARK    8  A    between atoms: N_22  and  C_23
REMARK                            x       y       z     vdW  Elec       q    Type
REMARK                         _______ _______ _______ _____ _____    ______ ____
ROOT
ATOM      1  C   UNL     1       0.484   2.432   1.993  0.00  0.00    +0.142 C 
ATOM      2  C   UNL     1      -0.633   1.606   1.321  0.00  0.00    +0.014 C 
ATOM      3  C   UNL     1      -0.013   1.086   0.008  0.00  0.00    -0.055 C 
ATOM      4  C   UNL     1       1.427   1.642  -0.003  0.00  0.00    +0.070 C 
ATOM      5  N   UNL     1       1.745   1.887   1.428  0.00  0.00    -0.289 NA
ENDROOT
BRANCH   1   7
ATOM      6  N   UNL     1      -0.608   2.672   4.199  0.00  0.00    -0.312 N 
ATOM      7  C   UNL     1       0.454   2.244   3.488  0.00  0.00    +0.230 C 
ATOM      8  O   UNL     1       1.385   1.708   4.051  0.00  0.00    -0.274 OA
ATOM      9  H   UNL     1      -1.452   3.158   3.689  0.00  0.00    +0.149 HD
BRANCH   6  11
ATOM     10  C   UNL     1      -1.554   3.541   6.281  0.00  0.00    +0.027 C 
ATOM     11  C   UNL     1      -0.638   2.489   5.653  0.00  0.00    +0.067 C 
ATOM     12  C   UNL     1      -1.167   1.091   5.980  0.00  0.00    +0.027 C 
ENDBRANCH   6  11
ENDBRANCH   1   7
BRANCH   3  13
ATOM     13  N   UNL     1      -0.763   1.591  -1.149  0.00  0.00    +0.384 N 
ATOM     14  H   UNL     1      -1.835   1.630  -0.903  0.00  0.00    -0.085 HD
ATOM     15  H   UNL     1      -0.409   2.601  -1.403  0.00  0.00    -0.085 HD
BRANCH  13  16
ATOM     16  C   UNL     1      -0.580   0.720  -2.317  0.00  0.00    -0.071 C 
ATOM     17  C   UNL     1       0.731   1.111  -3.031  0.00  0.00    -0.016 C 
ATOM     18  C   UNL     1       1.180  -0.051  -3.875  0.00  0.00    -0.002 C 
ATOM     19  C   UNL     1       0.691   0.057  -5.332  0.00  0.00    -0.000 C 
ATOM     20  C   UNL     1      -0.766   0.545  -5.439  0.00  0.00    -0.000 C 
ATOM     21  C   UNL     1      -1.662  -0.089  -4.410  0.00  0.00    -0.002 C 
ATOM     22  C   UNL     1      -1.741   0.845  -3.186  0.00  0.00    -0.016 C 
ENDBRANCH  13  16
ENDBRANCH   3  13
BRANCH   5  23
ATOM     23  C   UNL     1       2.844   2.851   1.565  0.00  0.00    +0.121 C 
BRANCH  23  24
ATOM     24  C   UNL     1       4.130   2.216   1.102  0.00  0.00    -0.015 A 
ATOM     25  C   UNL     1       4.673   2.568  -0.120  0.00  0.00    +0.006 A 
ATOM     26  C   UNL     1       5.853   1.986  -0.545  0.00  0.00    +0.000 A 
ATOM     27  C   UNL     1       6.490   1.053   0.251  0.00  0.00    +0.001 A 
ATOM     28  C   UNL     1       5.948   0.701   1.472  0.00  0.00    +0.020 A 
ATOM     29  C   UNL     1       4.770   1.287   1.901  0.00  0.00    +0.045 A 
ATOM     30 CL   UNL     1       4.093   0.851   3.439  0.00  0.00    -0.083 Cl
ENDBRANCH  23  24
ENDBRANCH   5  23
TORSDOF 6
