REMARK  Name = ZINC09466746
REMARK  8 active torsions:
REMARK  status: ('A' for Active; 'I' for Inactive)
REMARK    1  A    between atoms: C_1  and  O_2
REMARK    2  A    between atoms: O_2  and  C_3
REMARK    3  A    between atoms: C_6  and  C_9
REMARK    4  A    between atoms: C_9  and  N_10
REMARK    5  A    between atoms: C_20  and  N_21
REMARK    6  A    between atoms: N_21  and  N_22
REMARK    7  A    between atoms: C_23  and  C_25
REMARK    8  A    between atoms: C_25  and  C_26
REMARK                            x       y       z     vdW  Elec       q    Type
REMARK                         _______ _______ _______ _____ _____    ______ ____
ROOT
ATOM      1  N   UNL     1       0.442  -1.243   5.991  0.00  0.00    -0.230 N 
ATOM      2  C   UNL     1       1.100  -2.366   5.660  0.00  0.00    +0.254 C 
ATOM      3  O   UNL     1       1.978  -2.319   4.820  0.00  0.00    -0.270 OA
ATOM      4  C   UNL     1       0.775  -3.650   6.295  0.00  0.00    +0.045 A 
ATOM      5  C   UNL     1       1.455  -4.821   5.955  0.00  0.00    +0.013 A 
ATOM      6  C   UNL     1       1.121  -6.007   6.574  0.00  0.00    +0.001 A 
ATOM      7  C   UNL     1       0.118  -6.049   7.531  0.00  0.00    +0.001 A 
ATOM      8  C   UNL     1      -0.567  -4.903   7.880  0.00  0.00    +0.009 A 
ATOM      9  C   UNL     1      -0.244  -3.698   7.268  0.00  0.00    +0.000 A 
ATOM     10  C   UNL     1      -0.945  -2.441   7.606  0.00  0.00    +0.060 C 
ATOM     11  C   UNL     1      -1.950  -2.421   8.548  0.00  0.00    +0.101 C 
ATOM     12  C   UNL     1      -0.535  -1.215   6.912  0.00  0.00    +0.255 C 
ATOM     13  O   UNL     1      -1.089  -0.162   7.170  0.00  0.00    -0.269 OA
ENDROOT
BRANCH  11  14
ATOM     14  N   UNL     1      -2.453  -1.235   8.979  0.00  0.00    -0.271 N 
ATOM     15  H   UNL     1      -2.050  -0.402   8.686  0.00  0.00    +0.169 HD
BRANCH  14  16
ATOM     16  N   UNL     1      -3.552  -1.214   9.847  0.00  0.00    -0.237 N 
ATOM     17  C   UNL     1      -4.051  -0.038  10.275  0.00  0.00    +0.230 C 
ATOM     18  O   UNL     1      -3.548   1.003   9.909  0.00  0.00    -0.274 OA
ATOM     19  H   UNL     1      -3.954  -2.047  10.140  0.00  0.00    +0.173 HD
BRANCH  17  20
ATOM     20  C   UNL     1      -5.234  -0.016  11.209  0.00  0.00    +0.104 C 
BRANCH  20  21
ATOM     21  C   UNL     1      -5.597   1.434  11.538  0.00  0.00    -0.020 C 
ATOM     22  C   UNL     1      -4.404   2.119  12.209  0.00  0.00    +0.011 C 
ATOM     23  C   UNL     1      -4.767   3.568  12.538  0.00  0.00    -0.010 C 
ATOM     24  C   UNL     1      -5.968   3.590  13.486  0.00  0.00    +0.007 C 
ATOM     25  C   UNL     1      -7.160   2.905  12.815  0.00  0.00    -0.010 C 
ATOM     26  C   UNL     1      -6.797   1.456  12.486  0.00  0.00    +0.011 C 
ATOM     27  C   UNL     1      -7.515   3.648  11.525  0.00  0.00    +0.007 C 
ATOM     28  C   UNL     1      -6.315   3.625  10.577  0.00  0.00    -0.010 C 
ATOM     29  C   UNL     1      -5.122   4.310  11.248  0.00  0.00    +0.007 C 
ATOM     30  C   UNL     1      -5.952   2.176  10.248  0.00  0.00    +0.011 C 
ENDBRANCH  20  21
ENDBRANCH  17  20
ENDBRANCH  14  16
ENDBRANCH  11  14
BRANCH   1  31
ATOM     31  C   UNL     1       0.811   0.007   5.323  0.00  0.00    +0.152 C 
BRANCH  31  35
ATOM     32  C   UNL     1      -1.545   0.484   1.790  0.00  0.00    +0.120 A 
ATOM     33  C   UNL     1      -0.330  -0.184   1.730  0.00  0.00    +0.046 A 
ATOM     34  C   UNL     1       0.432  -0.332   2.873  0.00  0.00    +0.009 A 
ATOM     35  C   UNL     1      -0.019   0.175   4.077  0.00  0.00    -0.029 A 
ATOM     36  C   UNL     1      -1.232   0.837   4.140  0.00  0.00    +0.009 A 
ATOM     37  C   UNL     1      -1.996   0.992   2.999  0.00  0.00    +0.046 A 
BRANCH  32  39
ATOM     38  C   UNL     1      -1.767   0.087  -0.544  0.00  0.00    +0.277 C 
ATOM     39  O   UNL     1      -2.294   0.636   0.666  0.00  0.00    -0.495 OA
ENDBRANCH  32  39
ENDBRANCH  31  35
ENDBRANCH   1  31
TORSDOF 7
