REMARK  Name = ZINC03613862
REMARK  9 active torsions:
REMARK  status: ('A' for Active; 'I' for Inactive)
REMARK    1  A    between atoms: C_1  and  C_2
REMARK    2  A    between atoms: C_2  and  C_4
REMARK    3  A    between atoms: C_2  and  N_24
REMARK    4  A    between atoms: N_6  and  N_7
REMARK    5  A    between atoms: C_8  and  C_10
REMARK    6  A    between atoms: C_10  and  O_11
REMARK    7  A    between atoms: O_11  and  C_12
REMARK    8  A    between atoms: C_17  and  C_18
REMARK    9  A    between atoms: C_25  and  C_27
REMARK                            x       y       z     vdW  Elec       q    Type
REMARK                         _______ _______ _______ _____ _____    ______ ____
ROOT
ATOM      1  N   UNL     1       0.887  -0.616  -3.608  0.00  0.00    -0.232 N 
ATOM      2  C   UNL     1       0.410  -0.290  -4.826  0.00  0.00    +0.267 C 
ATOM      3  O   UNL     1      -0.586   0.394  -4.924  0.00  0.00    -0.271 OA
ATOM      4  H   UNL     1       1.684  -1.163  -3.530  0.00  0.00    +0.173 HD
ENDROOT
BRANCH   1   7
ATOM      5  C   UNL     1       0.707  -0.490  -1.238  0.00  0.00    +0.249 C 
ATOM      6  O   UNL     1       1.704  -1.174  -1.140  0.00  0.00    -0.272 OA
ATOM      7  N   UNL     1       0.231  -0.164  -2.456  0.00  0.00    -0.233 N 
ATOM      8  H   UNL     1      -0.566   0.383  -2.534  0.00  0.00    +0.173 HD
BRANCH   5  10
ATOM      9  C   UNL     1      -0.019   1.526   0.010  0.00  0.00    +0.038 C 
ATOM     10  C   UNL     1       0.002  -0.004   0.002  0.00  0.00    +0.158 C 
BRANCH  10  11
ATOM     11  N   UNL     1       0.711  -0.489   1.189  0.00  0.00    -0.300 N 
ATOM     12  C   UNL     1       0.051  -0.633   2.355  0.00  0.00    +0.246 C 
ATOM     13  O   UNL     1      -1.131  -0.361   2.423  0.00  0.00    -0.270 OA
ATOM     14  H   UNL     1       1.654  -0.707   1.135  0.00  0.00    +0.150 HD
BRANCH  12  15
ATOM     15  C   UNL     1       0.766  -1.123   3.553  0.00  0.00    +0.055 A 
ATOM     16  C   UNL     1       2.126  -1.432   3.480  0.00  0.00    +0.014 A 
ATOM     17  C   UNL     1       2.787  -1.888   4.601  0.00  0.00    +0.001 A 
ATOM     18  C   UNL     1       2.106  -2.040   5.797  0.00  0.00    +0.001 A 
ATOM     19  C   UNL     1       0.759  -1.737   5.877  0.00  0.00    +0.021 A 
ATOM     20  C   UNL     1       0.086  -1.274   4.763  0.00  0.00    +0.053 A 
ATOM     21 CL   UNL     1      -1.603  -0.886   4.867  0.00  0.00    -0.083 Cl
ENDBRANCH  12  15
ENDBRANCH  10  11
ENDBRANCH   5  10
ENDBRANCH   1   7
BRANCH   2  22
ATOM     22  C   UNL     1       1.116  -0.776  -6.066  0.00  0.00    +0.326 C 
BRANCH  22  23
ATOM     23  O   UNL     1       0.424  -0.303  -7.224  0.00  0.00    -0.482 OA
BRANCH  23  24
ATOM     24  C   UNL     1       0.934  -0.654  -8.433  0.00  0.00    +0.129 A 
ATOM     25  C   UNL     1       2.071  -1.443  -8.506  0.00  0.00    +0.046 A 
ATOM     26  C   UNL     1       2.589  -1.799  -9.736  0.00  0.00    +0.004 A 
ATOM     27  C   UNL     1       1.976  -1.373 -10.902  0.00  0.00    +0.001 A 
ATOM     28  C   UNL     1       0.843  -0.587 -10.844  0.00  0.00    +0.012 A 
ATOM     29  C   UNL     1       0.310  -0.227  -9.608  0.00  0.00    +0.024 A 
BRANCH  29  30
ATOM     30  C   UNL     1      -0.912   0.612  -9.541  0.00  0.00    -0.014 A 
ATOM     31  C   UNL     1      -1.979   0.229  -8.729  0.00  0.00    +0.008 A 
ATOM     32  C   UNL     1      -3.113   1.014  -8.670  0.00  0.00    +0.001 A 
ATOM     33  C   UNL     1      -3.192   2.178  -9.413  0.00  0.00    +0.000 A 
ATOM     34  C   UNL     1      -2.136   2.562 -10.220  0.00  0.00    +0.001 A 
ATOM     35  C   UNL     1      -0.995   1.788 -10.283  0.00  0.00    +0.008 A 
ENDBRANCH  29  30
ENDBRANCH  23  24
ENDBRANCH  22  23
ENDBRANCH   2  22
TORSDOF 8
