REMARK  Name = ZINC63279957
REMARK  6 active torsions:
REMARK  status: ('A' for Active; 'I' for Inactive)
REMARK    1  A    between atoms: C_1  and  C_2
REMARK    2  A    between atoms: C_4  and  C_12
REMARK    3  A    between atoms: C_12  and  C_13
REMARK    4  A    between atoms: C_13  and  N_14
REMARK    5  A    between atoms: C_15  and  C_17
REMARK    6  A    between atoms: C_23  and  C_25
REMARK                            x       y       z     vdW  Elec       q    Type
REMARK                         _______ _______ _______ _____ _____    ______ ____
ROOT
ATOM      1  N   UNL     1       0.977  -0.646  -5.003  0.00  0.00    -0.315 N 
ATOM      2  C   UNL     1       1.734  -1.179  -5.982  0.00  0.00    +0.216 C 
ATOM      3  O   UNL     1       2.714  -1.836  -5.702  0.00  0.00    -0.276 OA
ATOM      4  H   UNL     1       0.194  -0.120  -5.227  0.00  0.00    +0.149 HD
ENDROOT
BRANCH   2   5
ATOM      5  C   UNL     1       1.362  -0.958  -7.426  0.00  0.00    +0.078 C 
ATOM      6  C   UNL     1      -0.035  -1.527  -7.685  0.00  0.00    +0.032 C 
ATOM      7  C   UNL     1      -0.424  -1.270  -9.145  0.00  0.00    +0.109 C 
ATOM      8  N   UNL     1       0.623  -1.821 -10.016  0.00  0.00    -0.297 N 
ATOM      9  C   UNL     1       2.016  -1.409  -9.794  0.00  0.00    +0.109 C 
ATOM     10  C   UNL     1       2.377  -1.665  -8.328  0.00  0.00    +0.032 C 
ATOM     11  C   UNL     1       0.311  -2.686 -11.001  0.00  0.00    +0.248 C 
ATOM     12  O   UNL     1      -0.827  -3.099 -11.110  0.00  0.00    -0.270 OA
BRANCH  11  13
ATOM     13  C   UNL     1       1.353  -3.134 -11.949  0.00  0.00    +0.051 A 
ATOM     14  C   UNL     1       2.109  -2.196 -12.654  0.00  0.00    +0.014 A 
ATOM     15  C   UNL     1       3.080  -2.620 -13.537  0.00  0.00    +0.001 A 
ATOM     16  C   UNL     1       3.307  -3.972 -13.725  0.00  0.00    +0.001 A 
ATOM     17  C   UNL     1       2.562  -4.908 -13.030  0.00  0.00    +0.016 A 
ATOM     18  C   UNL     1       1.590  -4.497 -12.139  0.00  0.00    +0.030 A 
ATOM     19 BR   UNL     1       0.578  -5.777 -11.183  0.00  0.00    -0.050 Br
ENDBRANCH  11  13
ENDBRANCH   2   5
BRANCH   1  20
ATOM     20  C   UNL     1       1.339  -0.860  -3.599  0.00  0.00    +0.108 C 
BRANCH  20  21
ATOM     21  C   UNL     1       0.324  -0.154  -2.697  0.00  0.00    +0.052 C 
BRANCH  21  24
ATOM     22  C   UNL     1      -0.057   1.676  -0.049  0.00  0.00    +0.035 C 
ATOM     23  C   UNL     1      -0.035   0.146  -0.037  0.00  0.00    +0.103 C 
ATOM     24  C   UNL     1       0.696  -0.375  -1.254  0.00  0.00    -0.037 C 
ATOM     25  C   UNL     1       1.751  -1.079  -0.784  0.00  0.00    -0.001 A 
ATOM     26  C   UNL     1       2.827  -1.821  -1.452  0.00  0.00    +0.010 A 
ATOM     27  C   UNL     1       3.764  -2.439  -0.697  0.00  0.00    +0.001 A 
ATOM     28  C   UNL     1       3.733  -2.388   0.704  0.00  0.00    +0.002 A 
ATOM     29  C   UNL     1       2.776  -1.726   1.389  0.00  0.00    +0.026 A 
ATOM     30  C   UNL     1       1.741  -1.040   0.696  0.00  0.00    +0.043 A 
ATOM     31  N   UNL     1       0.718  -0.339   1.125  0.00  0.00    -0.378 N 
ATOM     32  H   UNL     1       0.496  -0.170   2.054  0.00  0.00    +0.160 HD
ENDBRANCH  21  24
ENDBRANCH  20  21
ENDBRANCH   1  20
TORSDOF 5
