REMARK  Name = ZINC59678663
REMARK  8 active torsions:
REMARK  status: ('A' for Active; 'I' for Inactive)
REMARK    1  A    between atoms: C_1  and  C_2
REMARK    2  A    between atoms: C_5  and  N_8
REMARK    3  A    between atoms: C_9  and  C_11
REMARK    4  A    between atoms: C_15  and  N_16
REMARK    5  A    between atoms: C_17  and  C_30
REMARK    6  A    between atoms: C_19  and  C_22
REMARK    7  A    between atoms: C_20  and  C_21
REMARK    8  A    between atoms: N_23  and  C_24
REMARK                            x       y       z     vdW  Elec       q    Type
REMARK                         _______ _______ _______ _____ _____    ______ ____
ROOT
ATOM      1  C   UNL     1      -0.232  -7.670   1.974  0.00  0.00    +0.072 A 
ATOM      2  C   UNL     1       1.112  -8.126   1.670  0.00  0.00    -0.023 A 
ATOM      3  C   UNL     1       1.526  -7.828   0.418  0.00  0.00    -0.004 A 
ATOM      4  S   UNL     1       0.161  -6.973  -0.314  0.00  0.00    -0.075 S 
ATOM      5  C   UNL     1      -0.919  -7.006   0.972  0.00  0.00    +0.097 A 
ATOM      6  C   UNL     1       2.853  -8.159  -0.193  0.00  0.00    +0.043 C 
ATOM      7  C   UNL     1       3.817  -8.555   0.935  0.00  0.00    +0.005 C 
ATOM      8  C   UNL     1       3.122  -9.567   1.849  0.00  0.00    +0.005 C 
ATOM      9  C   UNL     1       2.011  -8.875   2.642  0.00  0.00    +0.037 C 
ENDROOT
BRANCH   5  10
ATOM     10  N   UNL     1      -2.207  -6.484   1.019  0.00  0.00    -0.311 N 
ATOM     11  C   UNL     1      -2.510  -5.155   1.133  0.00  0.00    +0.022 A 
ATOM     12  C   UNL     1      -3.848  -5.014   1.147  0.00  0.00    +0.032 A 
ATOM     13  C   UNL     1      -4.412  -6.363   1.034  0.00  0.00    +0.012 A 
ATOM     14  C   UNL     1      -3.347  -7.218   0.954  0.00  0.00    +0.030 A 
ATOM     15  C   UNL     1      -3.426  -8.716   0.820  0.00  0.00    +0.064 C 
ATOM     16  C   UNL     1      -1.510  -4.032   1.226  0.00  0.00    +0.064 C 
BRANCH  13  17
ATOM     17  C   UNL     1      -5.838  -6.725   1.007  0.00  0.00    +0.088 C 
ATOM     18  N   UNL     1      -6.190  -7.972   0.986  0.00  0.00    -0.387 N 
ATOM     19  H   UNL     1      -5.521  -8.666   1.092  0.00  0.00    +0.159 HD
BRANCH  18  20
ATOM     20  C   UNL     1      -7.598  -8.332   0.804  0.00  0.00    +0.079 C 
ATOM     21  C   UNL     1      -8.082  -9.130   2.017  0.00  0.00    +0.024 C 
ATOM     22  C   UNL     1      -9.553  -9.506   1.827  0.00  0.00    +0.002 C 
ATOM     23  C   UNL     1      -9.702 -10.357   0.564  0.00  0.00    +0.000 C 
ATOM     24  C   UNL     1      -9.218  -9.560  -0.649  0.00  0.00    +0.002 C 
ATOM     25  C   UNL     1      -7.748  -9.184  -0.459  0.00  0.00    +0.024 C 
ENDBRANCH  18  20
ENDBRANCH  13  17
ENDBRANCH   5  10
BRANCH   1  27
ATOM     26  N   UNL     1      -0.805  -6.946   4.232  0.00  0.00    -0.281 N 
ATOM     27  C   UNL     1      -0.840  -7.908   3.288  0.00  0.00    +0.251 C 
ATOM     28  O   UNL     1      -1.375  -8.975   3.527  0.00  0.00    -0.270 OA
ATOM     29  H   UNL     1      -0.426  -6.077   4.025  0.00  0.00    +0.155 HD
BRANCH  26  34
ATOM     30  C   UNL     1      -2.877  -7.974   9.411  0.00  0.00    +0.044 C 
ATOM     31  C   UNL     1      -2.327  -7.701   8.035  0.00  0.00    -0.050 A 
ATOM     32  C   UNL     1      -1.176  -6.948   7.889  0.00  0.00    +0.005 A 
ATOM     33  C   UNL     1      -0.669  -6.696   6.630  0.00  0.00    +0.023 A 
ATOM     34  C   UNL     1      -1.316  -7.199   5.509  0.00  0.00    +0.034 A 
ATOM     35  C   UNL     1      -2.472  -7.955   5.658  0.00  0.00    +0.023 A 
ATOM     36  C   UNL     1      -2.971  -8.207   6.921  0.00  0.00    +0.005 A 
ENDBRANCH  26  34
ENDBRANCH   1  27
TORSDOF 5
