REMARK  Name = ZINC33936436
REMARK  11 active torsions:
REMARK  status: ('A' for Active; 'I' for Inactive)
REMARK    1  A    between atoms: C_1  and  C_2
REMARK    2  A    between atoms: C_2  and  C_3
REMARK    3  A    between atoms: C_3  and  O_4
REMARK    4  A    between atoms: O_4  and  C_5
REMARK    5  A    between atoms: C_5  and  C_7
REMARK    6  A    between atoms: C_8  and  C_35
REMARK    7  A    between atoms: C_12  and  C_14
REMARK    8  A    between atoms: C_25  and  C_31
REMARK    9  A    between atoms: C_27  and  C_30
REMARK   10  A    between atoms: C_31  and  O_33
REMARK   11  A    between atoms: O_33  and  C_34
REMARK                            x       y       z     vdW  Elec       q    Type
REMARK                         _______ _______ _______ _____ _____    ______ ____
ROOT
ATOM      1  C   UNL     1      -2.946  -3.915   0.111  0.00  0.00    +0.065 C 
ATOM      2  C   UNL     1      -4.138  -4.537   0.134  0.00  0.00    +0.016 C 
ATOM      3  N   UNL     1      -4.207  -5.901   0.188  0.00  0.00    -0.321 N 
ATOM      4  C   UNL     1      -3.132  -6.669  -0.172  0.00  0.00    +0.016 C 
ATOM      5  C   UNL     1      -1.893  -6.136  -0.213  0.00  0.00    +0.025 C 
ATOM      6  C   UNL     1      -1.663  -4.691   0.146  0.00  0.00    +0.092 C 
ATOM      7  C   UNL     1      -0.783  -6.910  -0.597  0.00  0.00    +0.176 C 
ATOM      8  O   UNL     1       0.321  -6.402  -0.615  0.00  0.00    -0.291 OA
ATOM      9  C   UNL     1      -0.937  -8.355  -0.985  0.00  0.00    +0.171 C 
ATOM     10  C   UNL     1      -2.341  -8.570  -1.560  0.00  0.00    +0.013 C 
ATOM     11  C   UNL     1      -3.367  -8.119  -0.518  0.00  0.00    +0.055 C 
ATOM     12  C   UNL     1      -2.505  -7.748  -2.839  0.00  0.00    +0.009 C 
ATOM     13  C   UNL     1      -5.407  -3.724   0.100  0.00  0.00    +0.061 C 
ATOM     14  H   UNL     1      -5.025  -6.329   0.485  0.00  0.00    +0.152 HD
ENDROOT
BRANCH   6  15
ATOM     15  C   UNL     1      -1.077  -4.618   1.532  0.00  0.00    -0.032 A 
ATOM     16  C   UNL     1      -1.792  -5.106   2.610  0.00  0.00    +0.008 A 
ATOM     17  C   UNL     1      -1.258  -5.041   3.884  0.00  0.00    +0.050 A 
ATOM     18  C   UNL     1      -0.004  -4.486   4.083  0.00  0.00    +0.166 A 
ATOM     19  C   UNL     1       0.716  -3.994   2.997  0.00  0.00    +0.167 A 
ATOM     20  C   UNL     1       0.177  -4.068   1.722  0.00  0.00    +0.054 A 
ATOM     21  O   UNL     1       1.907  -3.504   3.449  0.00  0.00    -0.453 OA
ATOM     22  C   UNL     1       1.736  -3.329   4.868  0.00  0.00    +0.466 C 
ATOM     23  O   UNL     1       0.735  -4.304   5.215  0.00  0.00    -0.453 OA
ENDBRANCH   6  15
BRANCH   1  24
ATOM     24  C   UNL     1      -2.902  -2.503   0.049  0.00  0.00    +0.338 C 
ATOM     25  O   UNL     1      -3.925  -1.869  -0.130  0.00  0.00    -0.245 OA
BRANCH  24  26
ATOM     26  O   UNL     1      -1.724  -1.858   0.186  0.00  0.00    -0.461 OA
BRANCH  26  27
ATOM     27  C   UNL     1      -1.753  -0.432   0.112  0.00  0.00    +0.232 C 
BRANCH  27  29
ATOM     28  C   UNL     1      -0.367   1.645   0.209  0.00  0.00    +0.007 C 
ATOM     29  C   UNL     1      -0.336   0.117   0.288  0.00  0.00    +0.038 C 
ENDBRANCH  27  29
ENDBRANCH  26  27
ENDBRANCH  24  26
ENDBRANCH   1  24
BRANCH   9  30
ATOM     30  C   UNL     1       0.095  -8.710  -2.025  0.00  0.00    +0.318 C 
ATOM     31  O   UNL     1       0.412  -7.900  -2.863  0.00  0.00    -0.250 OA
BRANCH  30  32
ATOM     32  O   UNL     1       0.662  -9.927  -2.019  0.00  0.00    -0.467 OA
ATOM     33  C   UNL     1       1.632 -10.195  -3.033  0.00  0.00    +0.280 C 
ENDBRANCH  30  32
ENDBRANCH   9  30
TORSDOF 7
