REMARK  Name = ZINC01272782
REMARK  6 active torsions:
REMARK  status: ('A' for Active; 'I' for Inactive)
REMARK    1  A    between atoms: C_1  and  C_2
REMARK    2  A    between atoms: C_2  and  C_28
REMARK    3  A    between atoms: C_6  and  C_10
REMARK    4  A    between atoms: C_21  and  C_23
REMARK    5  A    between atoms: C_23  and  S_24
REMARK    6  A    between atoms: S_24  and  C_25
REMARK                            x       y       z     vdW  Elec       q    Type
REMARK                         _______ _______ _______ _____ _____    ______ ____
ROOT
ATOM      1  C   UNL     1      -2.108   1.095  -1.375  0.00  0.00    +0.144 C 
ATOM      2  C   UNL     1      -2.857   1.131  -0.066  0.00  0.00    -0.019 A 
ATOM      3  C   UNL     1      -4.232   0.942  -0.102  0.00  0.00    +0.006 A 
ATOM      4  C   UNL     1      -4.971   0.954   1.063  0.00  0.00    +0.000 A 
ATOM      5  C   UNL     1      -4.337   1.155   2.275  0.00  0.00    +0.000 A 
ATOM      6  C   UNL     1      -2.972   1.348   2.311  0.00  0.00    +0.004 A 
ATOM      7  C   UNL     1      -2.226   1.342   1.139  0.00  0.00    -0.041 A 
ATOM      8  C   UNL     1      -0.743   1.586   1.254  0.00  0.00    +0.054 C 
ATOM      9  C   UNL     1      -0.013   1.086   0.008  0.00  0.00    +0.113 C 
ATOM     10  N   UNL     1      -0.739   1.581  -1.173  0.00  0.00    -0.289 N 
ATOM     11  C   UNL     1      -0.169   2.446  -2.035  0.00  0.00    +0.227 C 
ATOM     12  O   UNL     1      -0.789   2.838  -3.001  0.00  0.00    -0.275 OA
ENDROOT
BRANCH   1  18
ATOM     13  C   UNL     1      -3.231  -2.034  -4.781  0.00  0.00    +0.012 C 
ATOM     14  C   UNL     1      -3.451  -0.536  -4.566  0.00  0.00    -0.021 C 
ATOM     15  C   UNL     1      -4.261  -0.318  -3.285  0.00  0.00    +0.086 C 
ATOM     16  C   UNL     1      -3.477  -0.855  -2.109  0.00  0.00    +0.165 C 
ATOM     17  O   UNL     1      -3.961  -1.669  -1.360  0.00  0.00    -0.292 OA
ATOM     18  C   UNL     1      -2.067  -0.343  -1.897  0.00  0.00    +0.062 C 
ATOM     19  C   UNL     1      -1.364  -0.382  -3.239  0.00  0.00    +0.165 C 
ATOM     20  O   UNL     1      -0.251  -0.839  -3.344  0.00  0.00    -0.292 OA
ATOM     21  C   UNL     1      -2.096   0.166  -4.444  0.00  0.00    +0.086 C 
ATOM     22  C   UNL     1      -4.218   0.042  -5.758  0.00  0.00    +0.012 C 
ENDBRANCH   1  18
BRANCH  11  23
ATOM     23  C   UNL     1       1.240   2.926  -1.799  0.00  0.00    +0.173 C 
BRANCH  23  24
ATOM     24  S   UNL     1       1.717   4.069  -3.119  0.00  0.00    -0.084 S 
BRANCH  24  25
ATOM     25  C   UNL     1       3.357   4.461  -2.606  0.00  0.00    +0.123 C 
ATOM     26  N   UNL     1       3.847   3.927  -1.522  0.00  0.00    -0.382 N 
ATOM     27  N   UNL     1       4.120   5.332  -3.349  0.00  0.00    -0.340 N 
ATOM     28  H   UNL     1       4.870   4.171  -1.202  0.00  0.00    +0.158 HD
ATOM     29  H   UNL     1       5.144   5.577  -3.029  0.00  0.00    +0.144 HD
ATOM     30  H   UNL     1       3.707   5.783  -4.263  0.00  0.00    +0.144 HD
ATOM     31  H   UNL     1       3.236   3.231  -0.928  0.00  0.00    +0.158 HD
ENDBRANCH  24  25
ENDBRANCH  23  24
ENDBRANCH  11  23
TORSDOF 4
