REMARK  Name = ZINC36316477
REMARK  17 active torsions:
REMARK  status: ('A' for Active; 'I' for Inactive)
REMARK    1  A    between atoms: C_1  and  C_2
REMARK    2  A    between atoms: C_2  and  C_3
REMARK    3  A    between atoms: C_3  and  N_4
REMARK    4  A    between atoms: N_4  and  C_5
REMARK    5  A    between atoms: N_4  and  C_27
REMARK    6  A    between atoms: C_5  and  C_6
REMARK    7  A    between atoms: C_7  and  C_25
REMARK    8  A    between atoms: N_9  and  C_19
REMARK    9  A    between atoms: C_10  and  O_11
REMARK   10  A    between atoms: O_11  and  C_12
REMARK   11  A    between atoms: C_25  and  C_26
REMARK   12  A    between atoms: C_27  and  C_28
REMARK   13  A    between atoms: C_28  and  C_30
REMARK   14  A    between atoms: C_28  and  O_35
REMARK   15  A    between atoms: C_30  and  O_31
REMARK   16  A    between atoms: O_31  and  C_32
REMARK   17  A    between atoms: C_32  and  C_33
REMARK                            x       y       z     vdW  Elec       q    Type
REMARK                         _______ _______ _______ _____ _____    ______ ____
ROOT
ATOM      1  C   UNL     1       2.948  -1.554  -2.586  0.00  0.00    +0.021 A 
ATOM      2  C   UNL     1       3.161  -0.206  -2.890  0.00  0.00    +0.068 A 
ATOM      3  N   UNL     1       4.420   0.075  -2.669  0.00  0.00    -0.168 NA
ATOM      4  N   UNL     1       5.058  -1.086  -2.214  0.00  0.00    -0.200 N 
ATOM      5  C   UNL     1       4.130  -2.078  -2.165  0.00  0.00    +0.225 A 
ENDROOT
BRANCH   4   6
ATOM      6  C   UNL     1       6.411  -1.202  -1.866  0.00  0.00    +0.069 A 
ATOM      7  C   UNL     1       6.787  -1.996  -0.791  0.00  0.00    +0.028 A 
ATOM      8  C   UNL     1       8.121  -2.109  -0.451  0.00  0.00    +0.002 A 
ATOM      9  C   UNL     1       9.081  -1.431  -1.179  0.00  0.00    +0.000 A 
ATOM     10  C   UNL     1       8.710  -0.640  -2.251  0.00  0.00    +0.002 A 
ATOM     11  C   UNL     1       7.378  -0.528  -2.599  0.00  0.00    +0.028 A 
ENDBRANCH   4   6
BRANCH   2  12
ATOM     12  C   UNL     1       2.118   0.760  -3.390  0.00  0.00    +0.054 C 
ATOM     13  C   UNL     1       1.533   1.536  -2.207  0.00  0.00    +0.010 C 
ENDBRANCH   2  12
BRANCH   1  14
ATOM     14  C   UNL     1       1.639  -2.292  -2.698  0.00  0.00    -0.036 C 
BRANCH  14  15
ATOM     15  N   UNL     1       1.441  -2.729  -4.086  0.00  0.00    +0.384 N 
ATOM     16  H   UNL     1       1.539  -1.938  -4.705  0.00  0.00    -0.081 HD
BRANCH  15  17
ATOM     17  C   UNL     1       2.446  -3.745  -4.428  0.00  0.00    -0.079 C 
BRANCH  17  19
ATOM     18  C   UNL     1       3.255  -6.058  -3.941  0.00  0.00    +0.002 C 
ATOM     19  C   UNL     1       2.220  -4.993  -3.572  0.00  0.00    -0.022 C 
ENDBRANCH  17  19
ENDBRANCH  15  17
BRANCH  15  20
ATOM     20  C   UNL     1       0.096  -3.302  -4.232  0.00  0.00    -0.044 C 
BRANCH  20  21
ATOM     21  C   UNL     1      -0.179  -3.587  -5.710  0.00  0.00    +0.124 C 
BRANCH  21  22
ATOM     22  O   UNL     1       0.670  -4.646  -6.157  0.00  0.00    -0.391 OA
ATOM     23  H   UNL     1       0.588  -5.460  -5.643  0.00  0.00    +0.210 HD
ENDBRANCH  21  22
BRANCH  21  24
ATOM     24  C   UNL     1      -1.642  -3.999  -5.886  0.00  0.00    +0.189 C 
BRANCH  24  25
ATOM     25  O   UNL     1      -1.930  -4.153  -7.277  0.00  0.00    -0.373 OA
BRANCH  25  26
ATOM     26  C   UNL     1      -3.278  -4.538  -7.552  0.00  0.00    +0.186 C 
BRANCH  26  27
ATOM     27  C   UNL     1      -3.469  -4.670  -9.041  0.00  0.00    -0.007 C 
ATOM     28  C   UNL     1      -4.106  -5.705  -9.531  0.00  0.00    +0.006 C 
ENDBRANCH  26  27
ENDBRANCH  25  26
ENDBRANCH  24  25
ENDBRANCH  21  24
ENDBRANCH  20  21
ENDBRANCH  15  20
ENDBRANCH  14  15
ENDBRANCH   1  14
BRANCH   5  29
ATOM     29  O   UNL     1       4.344  -3.359  -1.771  0.00  0.00    -0.435 OA
BRANCH  29  30
ATOM     30  C   UNL     1       4.100  -3.677  -0.472  0.00  0.00    +0.165 A 
ATOM     31  C   UNL     1       3.549  -2.733   0.382  0.00  0.00    +0.049 A 
ATOM     32  C   UNL     1       3.301  -3.058   1.702  0.00  0.00    +0.004 A 
ATOM     33  C   UNL     1       3.601  -4.323   2.173  0.00  0.00    +0.003 A 
ATOM     34  C   UNL     1       4.150  -5.267   1.325  0.00  0.00    +0.042 A 
ATOM     35  C   UNL     1       4.396  -4.949   0.001  0.00  0.00    +0.165 A 
ATOM     36  F   UNL     1       4.928  -5.873  -0.829  0.00  0.00    -0.202 F 
ENDBRANCH  29  30
ENDBRANCH   5  29
TORSDOF 15
