REMARK  Name = ZINC33289744
REMARK  6 active torsions:
REMARK  status: ('A' for Active; 'I' for Inactive)
REMARK    1  A    between atoms: C_1  and  C_2
REMARK    2  A    between atoms: N_4  and  C_5
REMARK    3  A    between atoms: C_8  and  C_11
REMARK    4  A    between atoms: C_13  and  C_16
REMARK    5  A    between atoms: C_23  and  C_25
REMARK    6  A    between atoms: C_26  and  C_27
REMARK                            x       y       z     vdW  Elec       q    Type
REMARK                         _______ _______ _______ _____ _____    ______ ____
ROOT
ATOM      1  C   UNL     1      -8.972  -0.396  -0.906  0.00  0.00    +0.202 A 
ATOM      2  N   UNL     1      -7.811  -0.033  -1.498  0.00  0.00    -0.191 NA
ATOM      3  C   UNL     1      -7.189   0.717  -0.623  0.00  0.00    +0.232 A 
ATOM      4  O   UNL     1      -7.969   0.787   0.461  0.00  0.00    -0.337 OA
ATOM      5  N   UNL     1      -8.986   0.151   0.282  0.00  0.00    -0.056 NA
ENDROOT
BRANCH   3   6
ATOM      6  C   UNL     1      -5.844   1.373  -0.802  0.00  0.00    +0.095 C 
ATOM      7  C   UNL     1      -5.994   2.890  -0.673  0.00  0.00    +0.016 C 
ATOM      8  C   UNL     1      -4.635   3.559  -0.887  0.00  0.00    +0.020 C 
ATOM      9  C   UNL     1      -3.658   3.077   0.190  0.00  0.00    +0.108 C 
ATOM     10  N   UNL     1      -3.618   1.609   0.169  0.00  0.00    -0.297 N 
ATOM     11  C   UNL     1      -4.881   0.866   0.271  0.00  0.00    +0.121 C 
ATOM     12  C   UNL     1      -2.445   0.955   0.054  0.00  0.00    +0.239 C 
ATOM     13  O   UNL     1      -2.432  -0.256  -0.059  0.00  0.00    -0.271 OA
BRANCH  12  14
ATOM     14  C   UNL     1      -1.186   1.703   0.063  0.00  0.00    +0.068 C 
ATOM     15  C   UNL     1      -0.010   1.044   0.049  0.00  0.00    +0.013 C 
BRANCH  15  16
ATOM     16  C   UNL     1       1.255   1.796   0.053  0.00  0.00    -0.025 A 
ATOM     17  C   UNL     1       1.242   3.195   0.071  0.00  0.00    +0.008 A 
ATOM     18  C   UNL     1       2.431   3.892   0.079  0.00  0.00    +0.001 A 
ATOM     19  C   UNL     1       3.636   3.212   0.059  0.00  0.00    +0.000 A 
ATOM     20  C   UNL     1       3.658   1.828   0.035  0.00  0.00    +0.001 A 
ATOM     21  C   UNL     1       2.477   1.117   0.032  0.00  0.00    +0.008 A 
ENDBRANCH  15  16
ENDBRANCH  12  14
ENDBRANCH   3   6
BRANCH   1  25
ATOM     22  C   UNL     1     -12.007  -2.853  -2.592  0.00  0.00    +0.033 A 
ATOM     23  C   UNL     1     -12.163  -2.339  -1.310  0.00  0.00    +0.024 A 
ATOM     24  C   UNL     1     -11.180  -1.543  -0.761  0.00  0.00    +0.013 A 
ATOM     25  C   UNL     1     -10.030  -1.252  -1.494  0.00  0.00    +0.023 A 
ATOM     26  C   UNL     1      -9.879  -1.764  -2.782  0.00  0.00    +0.013 A 
ATOM     27  C   UNL     1     -10.862  -2.564  -3.324  0.00  0.00    +0.024 A 
BRANCH  22  31
ATOM     28  C   UNL     1     -15.380  -4.219  -3.547  0.00  0.00    +0.109 C 
ATOM     29  C   UNL     1     -14.300  -3.416  -2.869  0.00  0.00    +0.214 C 
ATOM     30  O   UNL     1     -14.598  -2.550  -2.073  0.00  0.00    -0.276 OA
ATOM     31  N   UNL     1     -13.004  -3.660  -3.146  0.00  0.00    -0.286 N 
ATOM     32  H   UNL     1     -12.731  -4.495  -3.808  0.00  0.00    +0.155 HD
ENDBRANCH  22  31
ENDBRANCH   1  25
TORSDOF 5
