REMARK  Name = ZINC33522600
REMARK  13 active torsions:
REMARK  status: ('A' for Active; 'I' for Inactive)
REMARK    1  A    between atoms: C_1  and  C_2
REMARK    2  A    between atoms: C_2  and  C_3
REMARK    3  A    between atoms: C_3  and  O_4
REMARK    4  A    between atoms: O_4  and  C_5
REMARK    5  A    between atoms: C_9  and  C_11
REMARK    6  A    between atoms: C_13  and  C_24
REMARK    7  A    between atoms: N_17  and  C_18
REMARK    8  A    between atoms: C_18  and  C_19
REMARK    9  A    between atoms: C_19  and  N_20
REMARK   10  A    between atoms: N_20  and  C_21
REMARK   11  A    between atoms: N_20  and  C_22
REMARK   12  A    between atoms: C_24  and  C_26
REMARK   13  A    between atoms: C_27  and  C_38
REMARK                            x       y       z     vdW  Elec       q    Type
REMARK                         _______ _______ _______ _____ _____    ______ ____
ROOT
ATOM      1  C   UNL     1      -2.694   7.268   4.820  0.00  0.00    +0.145 C 
ATOM      2  C   UNL     1      -1.925   7.691   6.050  0.00  0.00    +0.077 C 
ATOM      3  C   UNL     1      -2.277   8.972   6.308  0.00  0.00    +0.249 C 
ATOM      4  C   UNL     1      -3.253   9.422   5.296  0.00  0.00    +0.288 C 
ATOM      5  O   UNL     1      -3.759  10.526   5.258  0.00  0.00    -0.266 OA
ATOM      6  N   UNL     1      -3.501   8.428   4.423  0.00  0.00    -0.285 N 
ATOM      7  O   UNL     1      -1.807   9.722   7.332  0.00  0.00    -0.282 OA
ENDROOT
BRANCH   1  12
ATOM      8  C   UNL     1      -0.732   5.237   2.309  0.00  0.00    +0.121 A 
ATOM      9  C   UNL     1       0.014   6.224   1.681  0.00  0.00    +0.045 A 
ATOM     10  C   UNL     1      -0.119   7.543   2.071  0.00  0.00    +0.004 A 
ATOM     11  C   UNL     1      -0.995   7.879   3.087  0.00  0.00    +0.006 A 
ATOM     12  C   UNL     1      -1.740   6.898   3.714  0.00  0.00    -0.019 A 
ATOM     13  C   UNL     1      -1.614   5.578   3.324  0.00  0.00    +0.051 A 
BRANCH   8  14
ATOM     14  O   UNL     1      -0.602   3.940   1.927  0.00  0.00    -0.492 OA
BRANCH  14  15
ATOM     15  C   UNL     1       0.320   3.663   0.872  0.00  0.00    +0.229 C 
BRANCH  15  17
ATOM     16  C   UNL     1       1.317   1.864  -0.547  0.00  0.00    +0.007 C 
ATOM     17  C   UNL     1       0.329   2.160   0.583  0.00  0.00    +0.038 C 
ENDBRANCH  15  17
ENDBRANCH  14  15
ENDBRANCH   8  14
ENDBRANCH   1  12
BRANCH   2  18
ATOM     18  C   UNL     1      -0.980   6.872   6.816  0.00  0.00    +0.203 C 
ATOM     19  O   UNL     1       0.196   7.187   6.870  0.00  0.00    -0.286 OA
BRANCH  18  20
ATOM     20  C   UNL     1      -1.450   5.672   7.517  0.00  0.00    +0.082 A 
ATOM     21  C   UNL     1      -0.745   4.785   8.262  0.00  0.00    +0.041 A 
ATOM     22  N   UNL     1      -1.367   3.719   8.842  0.00  0.00    -0.290 N 
ATOM     23  C   UNL     1      -1.018   2.625   9.649  0.00  0.00    +0.074 A 
ATOM     24  C   UNL     1       0.183   2.201  10.193  0.00  0.00    +0.028 A 
ATOM     25  C   UNL     1       0.219   1.058  10.966  0.00  0.00    +0.002 A 
ATOM     26  C   UNL     1      -0.940   0.333  11.202  0.00  0.00    +0.002 A 
ATOM     27  C   UNL     1      -2.143   0.742  10.669  0.00  0.00    +0.030 A 
ATOM     28  C   UNL     1      -2.194   1.898   9.884  0.00  0.00    +0.091 A 
ATOM     29  N   UNL     1      -3.199   2.541   9.237  0.00  0.00    -0.221 NA
ATOM     30  C   UNL     1      -2.722   3.592   8.636  0.00  0.00    +0.179 A 
ATOM     31  S   UNL     1      -3.103   5.002   7.620  0.00  0.00    -0.046 S 
ATOM     32  C   UNL     1       0.737   4.980   8.451  0.00  0.00    +0.065 C 
ENDBRANCH  18  20
ENDBRANCH   2  18
BRANCH   6  33
ATOM     33  C   UNL     1      -4.414   8.493   3.279  0.00  0.00    +0.090 C 
BRANCH  33  34
ATOM     34  C   UNL     1      -5.812   8.051   3.717  0.00  0.00    -0.060 C 
BRANCH  34  35
ATOM     35  N   UNL     1      -6.728   8.116   2.571  0.00  0.00    +0.377 N 
ATOM     36  C   UNL     1      -8.013   7.479   2.887  0.00  0.00    -0.097 C 
ATOM     37  C   UNL     1      -6.922   9.504   2.130  0.00  0.00    -0.097 C 
ATOM     38  H   UNL     1      -6.269   7.559   1.740  0.00  0.00    -0.083 HD
ENDBRANCH  34  35
ENDBRANCH  33  34
ENDBRANCH   6  33
TORSDOF 9
