REMARK  Name = ZINC14359412
REMARK  7 active torsions:
REMARK  status: ('A' for Active; 'I' for Inactive)
REMARK    1  A    between atoms: C_1  and  C_2
REMARK    2  A    between atoms: C_10  and  C_12
REMARK    3  A    between atoms: C_12  and  O_13
REMARK    4  A    between atoms: O_13  and  C_14
REMARK    5  A    between atoms: C_14  and  C_16
REMARK    6  A    between atoms: C_16  and  C_18
REMARK    7  A    between atoms: C_16  and  N_19
REMARK                            x       y       z     vdW  Elec       q    Type
REMARK                         _______ _______ _______ _____ _____    ______ ____
ROOT
ATOM      1  O   UNL     1       0.106  -6.376   3.268  0.00  0.00    -0.454 OA
ENDROOT
BRANCH   1   2
ATOM      2  C   UNL     1       0.123  -7.224   4.308  0.00  0.00    +0.328 C 
ATOM      3  O   UNL     1       0.123  -6.795   5.437  0.00  0.00    -0.249 OA
BRANCH   2   4
ATOM      4  C   UNL     1       0.143  -8.712   4.067  0.00  0.00    +0.189 C 
ATOM      5  C   UNL     1      -1.105  -9.117   3.279  0.00  0.00    +0.040 C 
BRANCH   4   6
ATOM      6  N   UNL     1       0.159  -9.415   5.352  0.00  0.00    -0.228 N 
ATOM      7  C   UNL     1      -0.827  -9.292   6.282  0.00  0.00    +0.226 C 
ATOM      8  O   UNL     1      -1.713  -8.466   6.302  0.00  0.00    -0.275 OA
ATOM      9  C   UNL     1      -0.593 -10.385   7.276  0.00  0.00    +0.087 C 
ATOM     10  C   UNL     1      -0.936 -10.162   8.729  0.00  0.00    +0.013 C 
ATOM     11  C   UNL     1      -0.527 -11.441   9.483  0.00  0.00    +0.001 C 
ATOM     12  C   UNL     1       0.944 -11.784   9.275  0.00  0.00    +0.001 C 
ATOM     13  C   UNL     1       1.314 -11.848   7.780  0.00  0.00    +0.013 C 
ATOM     14  C   UNL     1       0.958 -10.502   7.193  0.00  0.00    +0.087 C 
ATOM     15  C   UNL     1       1.157 -10.258   5.729  0.00  0.00    +0.226 C 
ATOM     16  O   UNL     1       2.031 -10.716   5.025  0.00  0.00    -0.275 OA
ENDBRANCH   4   6
ENDBRANCH   2   4
ENDBRANCH   1   2
BRANCH   1  17
ATOM     17  C   UNL     1       0.088  -4.980   3.570  0.00  0.00    +0.328 C 
BRANCH  17  27
ATOM     18  C   UNL     1      -0.018   1.503   0.010  0.00  0.00    +0.047 C 
ATOM     19  C   UNL     1       0.002  -0.004   0.002  0.00  0.00    -0.009 A 
ATOM     20  C   UNL     1       0.006  -0.708  -1.196  0.00  0.00    +0.063 A 
ATOM     21  C   UNL     1       0.025  -2.089  -1.168  0.00  0.00    +0.133 A 
ATOM     22  N   UNL     1       0.040  -2.743  -0.022  0.00  0.00    -0.237 NA
ATOM     23  C   UNL     1       0.037  -2.109   1.139  0.00  0.00    +0.144 A 
ATOM     24  C   UNL     1       0.023  -0.719   1.188  0.00  0.00    +0.085 A 
ATOM     25 CL   UNL     1       0.026   0.109   2.714  0.00  0.00    -0.080 Cl
ATOM     26  N   UNL     1       0.053  -2.841   2.327  0.00  0.00    -0.266 N 
ATOM     27  C   UNL     1       0.071  -4.189   2.287  0.00  0.00    +0.256 C 
ATOM     28  O   UNL     1       0.074  -4.764   1.220  0.00  0.00    -0.272 OA
ATOM     29 CL   UNL     1      -0.013   0.139  -2.711  0.00  0.00    -0.082 Cl
ATOM     30  H   UNL     1       0.050  -2.381   3.180  0.00  0.00    +0.156 HD
ENDBRANCH  17  27
ENDBRANCH   1  17
TORSDOF 5
