REMARK  Name = ZINC21010711
REMARK  6 active torsions:
REMARK  status: ('A' for Active; 'I' for Inactive)
REMARK    1  A    between atoms: C_1  and  C_2
REMARK    2  A    between atoms: C_5  and  C_8
REMARK    3  A    between atoms: C_10  and  C_13
REMARK    4  A    between atoms: C_13  and  C_15
REMARK    5  A    between atoms: C_13  and  N_22
REMARK    6  A    between atoms: C_15  and  C_16
REMARK                            x       y       z     vdW  Elec       q    Type
REMARK                         _______ _______ _______ _____ _____    ______ ____
ROOT
ATOM      1  C   UNL     1      -0.016   1.348   0.009  0.00  0.00    +0.202 A 
ATOM      2  N   UNL     1       0.002  -0.004   0.002  0.00  0.00    -0.193 NA
ATOM      3  C   UNL     1       1.268  -0.339  -0.012  0.00  0.00    +0.214 A 
ATOM      4  O   UNL     1       1.975   0.796  -0.013  0.00  0.00    -0.339 OA
ATOM      5  N   UNL     1       1.228   1.751  -0.000  0.00  0.00    -0.056 NA
ENDROOT
BRANCH   1  10
ATOM      6  C   UNL     1      -4.697   4.704   0.048  0.00  0.00    +0.044 C 
ATOM      7  C   UNL     1      -3.473   3.826   0.039  0.00  0.00    -0.050 A 
ATOM      8  C   UNL     1      -2.214   4.399   0.036  0.00  0.00    +0.004 A 
ATOM      9  C   UNL     1      -1.089   3.599   0.027  0.00  0.00    +0.012 A 
ATOM     10  C   UNL     1      -1.222   2.213   0.020  0.00  0.00    +0.022 A 
ATOM     11  C   UNL     1      -2.493   1.641   0.018  0.00  0.00    +0.012 A 
ATOM     12  C   UNL     1      -3.611   2.449   0.032  0.00  0.00    +0.004 A 
ENDBRANCH   1  10
BRANCH   3  13
ATOM     13  C   UNL     1       1.824  -1.739  -0.025  0.00  0.00    +0.021 C 
BRANCH  13  14
ATOM     14  N   UNL     1       2.924  -1.839   0.943  0.00  0.00    +0.386 N 
ATOM     15  H   UNL     1       3.329  -2.861   0.934  0.00  0.00    -0.089 HD
ATOM     16  H   UNL     1       2.549  -1.603   1.950  0.00  0.00    -0.089 HD
ATOM     17  H   UNL     1       3.717  -1.127   0.671  0.00  0.00    -0.089 HD
ENDBRANCH  13  14
BRANCH  13  18
ATOM     18  C   UNL     1       2.346  -2.068  -1.425  0.00  0.00    +0.050 C 
BRANCH  18  19
ATOM     19  C   UNL     1       2.788  -3.508  -1.472  0.00  0.00    +0.058 A 
ATOM     20  C   UNL     1       2.357  -4.441  -2.341  0.00  0.00    +0.107 A 
ATOM     21  N   UNL     1       3.013  -5.602  -2.034  0.00  0.00    -0.351 N 
ATOM     22  H   UNL     1       2.825  -6.512  -2.623  0.00  0.00    +0.166 HD
ATOM     23  C   UNL     1       3.817  -5.340  -0.981  0.00  0.00    +0.196 A 
ATOM     24  N   UNL     1       3.677  -4.086  -0.650  0.00  0.00    -0.241 NA
ENDBRANCH  18  19
ENDBRANCH  13  18
ENDBRANCH   3  13
TORSDOF 5
