REMARK  Name = ZINC05175378
REMARK  3 active torsions:
REMARK  status: ('A' for Active; 'I' for Inactive)
REMARK    1  A    between atoms: C_1  and  N_14
REMARK    2  A    between atoms: C_3  and  C_9
REMARK    3  A    between atoms: N_14  and  N_15
REMARK                            x       y       z     vdW  Elec       q    Type
REMARK                         _______ _______ _______ _____ _____    ______ ____
ROOT
ATOM      1  C   UNL     1       2.395   0.021  -0.021  0.00  0.00    +0.083 A 
ATOM      2  C   UNL     1       2.330   1.415  -0.013  0.00  0.00    +0.090 A 
ATOM      3  C   UNL     1       1.095   2.029   0.003  0.00  0.00    +0.114 A 
ATOM      4  N   UNL     1      -0.016   1.316   0.009  0.00  0.00    -0.233 NA
ATOM      5  C   UNL     1       0.002  -0.004   0.002  0.00  0.00    +0.150 A 
ATOM      6  C   UNL     1       1.198  -0.696  -0.013  0.00  0.00    +0.101 A 
ATOM      7 CL   UNL     1       1.212  -2.432  -0.023  0.00  0.00    -0.078 Cl
ATOM      8 CL   UNL     1      -1.496  -0.882   0.012  0.00  0.00    -0.060 Cl
ATOM      9 CL   UNL     1       3.785   2.362  -0.021  0.00  0.00    -0.080 Cl
ENDROOT
BRANCH   3  10
ATOM     10  C   UNL     1       1.014   3.534   0.011  0.00  0.00    +0.234 C 
ATOM     11 CL   UNL     1      -0.708   4.042   0.178  0.00  0.00    -0.077 Cl
ATOM     12 CL   UNL     1       1.968   4.180   1.398  0.00  0.00    -0.077 Cl
ATOM     13 CL   UNL     1       1.684   4.181  -1.533  0.00  0.00    -0.077 Cl
ENDBRANCH   3  10
BRANCH   1  14
ATOM     14  N   UNL     1       3.622  -0.638  -0.035  0.00  0.00    -0.280 N 
ATOM     15  H   UNL     1       4.271  -0.180  -0.658  0.00  0.00    +0.166 HD
BRANCH  14  16
ATOM     16  N   UNL     1       3.458  -2.038  -0.392  0.00  0.00    -0.256 NA
ATOM     17  H   UNL     1       2.986  -2.132  -1.279  0.00  0.00    +0.140 HD
ATOM     18  H   UNL     1       4.347  -2.515  -0.403  0.00  0.00    +0.140 HD
ENDBRANCH  14  16
ENDBRANCH   1  14
TORSDOF 3
