REMARK  Name = ZINC20982363
REMARK  10 active torsions:
REMARK  status: ('A' for Active; 'I' for Inactive)
REMARK    1  A    between atoms: C_1  and  C_2
REMARK    2  A    between atoms: C_2  and  O_3
REMARK    3  A    between atoms: O_3  and  C_4
REMARK    4  A    between atoms: C_4  and  C_6
REMARK    5  A    between atoms: C_7  and  C_33
REMARK    6  A    between atoms: C_10  and  C_32
REMARK    7  A    between atoms: C_11  and  S_12
REMARK    8  A    between atoms: S_12  and  N_15
REMARK    9  A    between atoms: C_18  and  C_21
REMARK   10  A    between atoms: C_21  and  N_22
REMARK                            x       y       z     vdW  Elec       q    Type
REMARK                         _______ _______ _______ _____ _____    ______ ____
ROOT
ATOM      1  N   UNL     1      -2.789  -2.316   3.359  0.00  0.00    -0.176 NA
ATOM      2  C   UNL     1      -3.453  -1.011   3.242  0.00  0.00    +0.109 C 
ATOM      3  C   UNL     1      -4.021  -0.618   4.605  0.00  0.00    +0.019 C 
ATOM      4  C   UNL     1      -4.925  -1.740   5.121  0.00  0.00    -0.025 C 
ATOM      5  C   UNL     1      -4.105  -3.022   5.288  0.00  0.00    +0.019 C 
ATOM      6  C   UNL     1      -3.540  -3.443   3.928  0.00  0.00    +0.109 C 
ENDROOT
BRANCH   1   7
ATOM      7  S   UNL     1      -1.220  -2.511   2.864  0.00  0.00    +0.063 S 
ATOM      8  O   UNL     1      -0.702  -3.619   3.587  0.00  0.00    -0.153 OA
ATOM      9  O   UNL     1      -0.618  -1.225   2.906  0.00  0.00    -0.153 OA
BRANCH   7  15
ATOM     10  C   UNL     1      -1.248  -2.102   0.003  0.00  0.00    +0.106 A 
ATOM     11  C   UNL     1      -1.290  -2.926  -1.102  0.00  0.00    +0.029 A 
ATOM     12  N   UNL     1      -1.335  -4.201  -0.674  0.00  0.00    -0.360 N 
ATOM     13  H   UNL     1      -1.374  -5.025  -1.403  0.00  0.00    +0.165 HD
ATOM     14  C   UNL     1      -1.324  -4.246   0.689  0.00  0.00    +0.041 A 
ATOM     15  C   UNL     1      -1.265  -2.992   1.170  0.00  0.00    +0.140 A 
ATOM     16  C   UNL     1      -1.365  -5.500   1.524  0.00  0.00    +0.065 C 
ATOM     17  C   UNL     1      -1.285  -2.476  -2.540  0.00  0.00    +0.064 C 
BRANCH  10  18
ATOM     18  C   UNL     1      -1.190  -0.632   0.010  0.00  0.00    +0.343 C 
ATOM     19  O   UNL     1      -2.219   0.016   0.023  0.00  0.00    -0.245 OA
BRANCH  18  20
ATOM     20  O   UNL     1       0.002  -0.004   0.002  0.00  0.00    -0.461 OA
BRANCH  20  22
ATOM     21  C   UNL     1       1.418   1.977  -0.001  0.00  0.00    +0.048 C 
ATOM     22  C   UNL     1      -0.018   1.448   0.010  0.00  0.00    +0.229 C 
ENDBRANCH  20  22
ENDBRANCH  18  20
ENDBRANCH  10  18
ENDBRANCH   7  15
ENDBRANCH   1   7
BRANCH   4  23
ATOM     23  C   UNL     1      -5.520  -1.335   6.471  0.00  0.00    -0.075 C 
BRANCH  23  24
ATOM     24  N   UNL     1      -6.403  -0.176   6.290  0.00  0.00    +0.383 N 
ATOM     25  C   UNL     1      -6.823   0.376   7.588  0.00  0.00    -0.074 C 
ATOM     26  C   UNL     1      -7.419   1.764   7.355  0.00  0.00    +0.017 C 
ATOM     27  C   UNL     1      -8.454   1.703   6.261  0.00  0.00    -0.048 A 
ATOM     28  C   UNL     1      -9.350   2.754   6.139  0.00  0.00    +0.004 A 
ATOM     29  C   UNL     1     -10.308   2.742   5.145  0.00  0.00    +0.000 A 
ATOM     30  C   UNL     1     -10.375   1.676   4.267  0.00  0.00    +0.000 A 
ATOM     31  C   UNL     1      -9.485   0.628   4.389  0.00  0.00    +0.002 A 
ATOM     32  C   UNL     1      -8.522   0.638   5.388  0.00  0.00    -0.061 A 
ATOM     33  C   UNL     1      -7.576  -0.530   5.484  0.00  0.00    -0.043 C 
ATOM     34  H   UNL     1      -5.834   0.595   5.749  0.00  0.00    -0.081 HD
ENDBRANCH  23  24
ENDBRANCH   4  23
TORSDOF 7
