REMARK  Name = ZINC40550383
REMARK  11 active torsions:
REMARK  status: ('A' for Active; 'I' for Inactive)
REMARK    1  A    between atoms: C_1  and  C_2
REMARK    2  A    between atoms: C_2  and  O_3
REMARK    3  A    between atoms: O_3  and  C_4
REMARK    4  A    between atoms: C_6  and  C_11
REMARK    5  A    between atoms: C_9  and  O_10
REMARK    6  A    between atoms: C_14  and  C_29
REMARK    7  A    between atoms: N_21  and  C_22
REMARK    8  A    between atoms: C_22  and  C_23
REMARK    9  A    between atoms: C_30  and  C_37
REMARK   10  A    between atoms: C_32  and  C_36
REMARK   11  A    between atoms: C_34  and  O_35
REMARK                            x       y       z     vdW  Elec       q    Type
REMARK                         _______ _______ _______ _____ _____    ______ ____
ROOT
ATOM      1  C   UNL     1       0.749  -4.922  -0.008  0.00  0.00    +0.141 C 
ATOM      2  C   UNL     1       0.871  -5.565  -1.363  0.00  0.00    +0.035 A 
ATOM      3  C   UNL     1       1.073  -5.392  -2.736  0.00  0.00    +0.102 A 
ATOM      4  N   UNL     1       1.035  -6.586  -3.294  0.00  0.00    -0.173 NA
ATOM      5  N   UNL     1       0.829  -7.495  -2.409  0.00  0.00    -0.272 N 
ATOM      6  H   UNL     1       0.764  -8.446  -2.591  0.00  0.00    +0.189 HD
ATOM      7  C   UNL     1       0.716  -6.925  -1.173  0.00  0.00    +0.126 A 
ATOM      8  C   UNL     1       0.499  -7.174   0.256  0.00  0.00    +0.266 C 
ATOM      9  O   UNL     1       0.328  -8.272   0.751  0.00  0.00    -0.268 OA
ATOM     10  N   UNL     1       0.517  -6.016   0.943  0.00  0.00    -0.283 N 
ENDROOT
BRANCH   3  11
ATOM     11  C   UNL     1       1.290  -4.102  -3.437  0.00  0.00    +0.047 A 
ATOM     12  C   UNL     1       0.546  -3.788  -4.571  0.00  0.00    -0.037 A 
ATOM     13  C   UNL     1       0.751  -2.587  -5.220  0.00  0.00    +0.007 A 
ATOM     14  C   UNL     1       1.694  -1.692  -4.747  0.00  0.00    -0.047 A 
ATOM     15  C   UNL     1       2.439  -1.994  -3.622  0.00  0.00    +0.049 A 
ATOM     16  C   UNL     1       2.238  -3.194  -2.958  0.00  0.00    +0.127 A 
ATOM     17  C   UNL     1       1.911  -0.384  -5.461  0.00  0.00    +0.044 C 
ATOM     18  C   UNL     1      -0.483  -4.760  -5.091  0.00  0.00    +0.044 C 
BRANCH  16  19
ATOM     19  O   UNL     1       2.965  -3.489  -1.849  0.00  0.00    -0.506 OA
ATOM     20  H   UNL     1       3.827  -3.883  -2.037  0.00  0.00    +0.292 HD
ENDBRANCH  16  19
ENDBRANCH   3  11
BRANCH   1  23
ATOM     21  C   UNL     1      -1.281  -1.756   0.354  0.00  0.00    +0.162 A 
ATOM     22  C   UNL     1      -0.212  -2.638   0.338  0.00  0.00    +0.055 A 
ATOM     23  C   UNL     1      -0.415  -3.965   0.008  0.00  0.00    -0.019 A 
ATOM     24  C   UNL     1      -1.684  -4.416  -0.307  0.00  0.00    +0.009 A 
ATOM     25  C   UNL     1      -2.755  -3.542  -0.293  0.00  0.00    +0.049 A 
ATOM     26  C   UNL     1      -2.559  -2.212   0.042  0.00  0.00    +0.158 A 
BRANCH  26  27
ATOM     27  O   UNL     1      -3.612  -1.352   0.062  0.00  0.00    -0.503 OA
ATOM     28  H   UNL     1      -3.777  -0.912  -0.784  0.00  0.00    +0.292 HD
ENDBRANCH  26  27
BRANCH  21  29
ATOM     29  O   UNL     1      -1.083  -0.451   0.679  0.00  0.00    -0.489 OA
BRANCH  29  31
ATOM     30  C   UNL     1       0.280   1.437   1.325  0.00  0.00    +0.048 C 
ATOM     31  C   UNL     1       0.255  -0.055   0.987  0.00  0.00    +0.226 C 
ENDBRANCH  29  31
ENDBRANCH  21  29
ENDBRANCH   1  23
BRANCH  10  32
ATOM     32  C   UNL     1       0.336  -5.872   2.390  0.00  0.00    +0.140 C 
BRANCH  32  33
ATOM     33  C   UNL     1      -1.159  -5.851   2.717  0.00  0.00    +0.136 C 
ATOM     34  C   UNL     1      -1.373  -5.780   4.250  0.00  0.00    +0.035 C 
ATOM     35  C   UNL     1      -2.784  -5.136   4.322  0.00  0.00    +0.031 C 
ATOM     36  C   UNL     1      -2.772  -4.188   3.103  0.00  0.00    +0.160 C 
ATOM     37  O   UNL     1      -1.767  -4.659   2.196  0.00  0.00    -0.375 OA
ENDBRANCH  32  33
ENDBRANCH  10  32
TORSDOF 8
