REMARK  Name = ZINC63230304
REMARK  13 active torsions:
REMARK  status: ('A' for Active; 'I' for Inactive)
REMARK    1  A    between atoms: C_1  and  C_2
REMARK    2  A    between atoms: C_2  and  O_3
REMARK    3  A    between atoms: O_3  and  C_4
REMARK    4  A    between atoms: C_7  and  O_10
REMARK    5  A    between atoms: O_10  and  C_11
REMARK    6  A    between atoms: C_11  and  C_12
REMARK    7  A    between atoms: C_12  and  C_14
REMARK    8  A    between atoms: C_12  and  O_35
REMARK    9  A    between atoms: C_14  and  N_15
REMARK   10  A    between atoms: N_15  and  C_16
REMARK   11  A    between atoms: C_16  and  C_17
REMARK   12  A    between atoms: C_17  and  C_19
REMARK   13  A    between atoms: C_17  and  C_26
REMARK                            x       y       z     vdW  Elec       q    Type
REMARK                         _______ _______ _______ _____ _____    ______ ____
ROOT
ATOM      1  C   UNL     1       2.899 -10.322  -5.645  0.00  0.00    -0.070 C 
ENDROOT
BRANCH   1   2
ATOM      2  N   UNL     1       2.314  -9.847  -4.384  0.00  0.00    +0.381 N 
ATOM      3  H   UNL     1       2.819 -10.247  -3.607  0.00  0.00    -0.086 HD
ATOM      4  H   UNL     1       1.346 -10.127  -4.336  0.00  0.00    -0.086 HD
BRANCH   2   5
ATOM      5  C   UNL     1       2.403  -8.382  -4.324  0.00  0.00    -0.047 C 
BRANCH   5   6
ATOM      6  C   UNL     1       1.793  -7.887  -3.011  0.00  0.00    +0.135 C 
BRANCH   6   7
ATOM      7  O   UNL     1       2.579  -8.359  -1.914  0.00  0.00    -0.390 OA
ATOM      8  H   UNL     1       3.498  -8.061  -1.932  0.00  0.00    +0.210 HD
ENDBRANCH   6   7
BRANCH   6   9
ATOM      9  C   UNL     1       1.772  -6.357  -3.002  0.00  0.00    +0.258 C 
BRANCH   9  10
ATOM     10  O   UNL     1       1.099  -5.897  -1.829  0.00  0.00    -0.489 OA
BRANCH  10  14
ATOM     11  C   UNL     1       0.777  -1.811  -1.336  0.00  0.00    +0.121 A 
ATOM     12  C   UNL     1       0.242  -2.668  -0.386  0.00  0.00    +0.049 A 
ATOM     13  C   UNL     1       0.350  -4.035  -0.551  0.00  0.00    +0.049 A 
ATOM     14  C   UNL     1       0.992  -4.551  -1.667  0.00  0.00    +0.121 A 
ATOM     15  C   UNL     1       1.526  -3.693  -2.618  0.00  0.00    +0.049 A 
ATOM     16  C   UNL     1       1.414  -2.326  -2.455  0.00  0.00    +0.049 A 
BRANCH  11  17
ATOM     17  O   UNL     1       0.671  -0.465  -1.174  0.00  0.00    -0.492 OA
BRANCH  17  19
ATOM     18  C   UNL     1      -0.019   1.526   0.010  0.00  0.00    +0.048 C 
ATOM     19  C   UNL     1       0.002  -0.004   0.002  0.00  0.00    +0.225 C 
ENDBRANCH  17  19
ENDBRANCH  11  17
ENDBRANCH  10  14
ENDBRANCH   9  10
ENDBRANCH   6   9
ENDBRANCH   5   6
ENDBRANCH   2   5
ENDBRANCH   1   2
BRANCH   1  20
ATOM     20  C   UNL     1       2.806 -11.848  -5.708  0.00  0.00    +0.032 C 
BRANCH  20  21
ATOM     21  C   UNL     1       3.515 -12.344  -6.942  0.00  0.00    -0.036 C 
ATOM     22  C   UNL     1       4.566 -13.193  -6.989  0.00  0.00    -0.001 A 
ATOM     23  C   UNL     1       5.337 -13.881  -5.947  0.00  0.00    +0.010 A 
ATOM     24  C   UNL     1       6.360 -14.687  -6.311  0.00  0.00    +0.001 A 
ATOM     25  C   UNL     1       6.703 -14.880  -7.657  0.00  0.00    +0.002 A 
ATOM     26  C   UNL     1       6.043 -14.282  -8.671  0.00  0.00    +0.026 A 
ATOM     27  C   UNL     1       4.948 -13.414  -8.402  0.00  0.00    +0.043 A 
ATOM     28  N   UNL     1       4.163 -12.728  -9.197  0.00  0.00    -0.380 N 
ATOM     29  C   UNL     1       3.189 -11.999  -8.378  0.00  0.00    +0.145 C 
ATOM     30  H   UNL     1       4.215 -12.710 -10.166  0.00  0.00    +0.160 HD
ENDBRANCH  20  21
BRANCH  20  31
ATOM     31  C   UNL     1       1.358 -12.261  -5.759  0.00  0.00    -0.024 A 
ATOM     32  C   UNL     1       0.555 -11.840  -6.803  0.00  0.00    +0.005 A 
ATOM     33  C   UNL     1      -0.773 -12.219  -6.851  0.00  0.00    +0.000 A 
ATOM     34  C   UNL     1      -1.300 -13.021  -5.854  0.00  0.00    +0.001 A 
ATOM     35  C   UNL     1      -0.498 -13.443  -4.811  0.00  0.00    +0.020 A 
ATOM     36  C   UNL     1       0.833 -13.068  -4.765  0.00  0.00    +0.045 A 
ATOM     37 CL   UNL     1       1.842 -13.603  -3.458  0.00  0.00    -0.083 Cl
ENDBRANCH  20  31
ENDBRANCH   1  20
TORSDOF 12
