REMARK  Name = ZINC24178808
REMARK  9 active torsions:
REMARK  status: ('A' for Active; 'I' for Inactive)
REMARK    1  A    between atoms: C_1  and  C_2
REMARK    2  A    between atoms: N_5  and  C_8
REMARK    3  A    between atoms: C_8  and  C_10
REMARK    4  A    between atoms: C_8  and  C_30
REMARK    5  A    between atoms: C_10  and  N_11
REMARK    6  A    between atoms: C_12  and  C_14
REMARK    7  A    between atoms: C_14  and  N_15
REMARK    8  A    between atoms: N_20  and  C_23
REMARK    9  A    between atoms: C_23  and  C_24
REMARK                            x       y       z     vdW  Elec       q    Type
REMARK                         _______ _______ _______ _____ _____    ______ ____
ROOT
ATOM      1  N   UNL     1      -1.298   2.790  -3.613  0.00  0.00    -0.315 N 
ATOM      2  C   UNL     1      -2.105   3.314  -4.557  0.00  0.00    +0.233 C 
ATOM      3  O   UNL     1      -2.758   2.583  -5.270  0.00  0.00    -0.274 OA
ATOM      4  H   UNL     1      -0.705   3.453  -2.966  0.00  0.00    +0.149 HD
ENDROOT
BRANCH   1   5
ATOM      5  C   UNL     1      -1.211   1.337  -3.449  0.00  0.00    +0.094 C 
BRANCH   5   6
ATOM      6  C   UNL     1      -0.145   1.005  -2.402  0.00  0.00    -0.013 C 
BRANCH   6  11
ATOM      7  C   UNL     1      -1.349   2.948   2.837  0.00  0.00    +0.007 C 
ATOM      8  C   UNL     1      -1.060   2.031   1.646  0.00  0.00    -0.018 C 
ATOM      9  C   UNL     1      -2.107   2.265   0.554  0.00  0.00    -0.015 C 
ATOM     10  C   UNL     1      -1.779   1.390  -0.657  0.00  0.00    -0.078 C 
ATOM     11  N   UNL     1      -0.440   1.727  -1.157  0.00  0.00    +0.386 N 
ATOM     12  C   UNL     1       0.588   1.465  -0.141  0.00  0.00    -0.078 C 
ATOM     13  C   UNL     1       0.330   2.343   1.085  0.00  0.00    -0.015 C 
ATOM     14  H   UNL     1      -0.426   2.805  -1.378  0.00  0.00    -0.081 HD
ENDBRANCH   6  11
BRANCH   6  15
ATOM     15  C   UNL     1      -0.148  -0.478  -2.135  0.00  0.00    -0.022 A 
ATOM     16  C   UNL     1       0.826  -1.390  -2.375  0.00  0.00    +0.009 A 
ATOM     17  C   UNL     1       0.601  -2.713  -2.044  0.00  0.00    +0.008 A 
ATOM     18  C   UNL     1      -0.587  -3.059  -1.490  0.00  0.00    +0.045 A 
ATOM     19  S   UNL     1      -1.431  -1.488  -1.415  0.00  0.00    -0.103 S 
ENDBRANCH   6  15
ENDBRANCH   5   6
ENDBRANCH   1   5
BRANCH   2  20
ATOM     20  C   UNL     1      -2.194   4.809  -4.726  0.00  0.00    +0.225 C 
BRANCH  20  21
ATOM     21  N   UNL     1      -3.130   5.123  -5.809  0.00  0.00    -0.252 N 
ATOM     22  C   UNL     1      -4.439   5.301  -5.535  0.00  0.00    +0.257 A 
ATOM     23  O   UNL     1      -4.846   5.202  -4.391  0.00  0.00    -0.267 OA
ATOM     24  C   UNL     1      -5.334   5.604  -6.588  0.00  0.00    +0.088 A 
ATOM     25  C   UNL     1      -4.856   5.708  -7.847  0.00  0.00    +0.096 A 
ATOM     26  N   UNL     1      -3.522   5.520  -8.083  0.00  0.00    -0.296 N 
ATOM     27  C   UNL     1      -2.680   5.237  -7.072  0.00  0.00    +0.333 A 
ATOM     28  O   UNL     1      -1.497   5.079  -7.304  0.00  0.00    -0.246 OA
BRANCH  26  29
ATOM     29  C   UNL     1      -3.003   5.633  -9.449  0.00  0.00    +0.161 C 
BRANCH  29  30
ATOM     30  C   UNL     1      -2.594   7.059  -9.714  0.00  0.00    -0.028 A 
ATOM     31  C   UNL     1      -3.507   7.954 -10.239  0.00  0.00    +0.005 A 
ATOM     32  C   UNL     1      -3.133   9.263 -10.478  0.00  0.00    +0.000 A 
ATOM     33  C   UNL     1      -1.843   9.675 -10.201  0.00  0.00    +0.000 A 
ATOM     34  C   UNL     1      -0.928   8.778  -9.681  0.00  0.00    +0.000 A 
ATOM     35  C   UNL     1      -1.304   7.471  -9.437  0.00  0.00    +0.005 A 
ENDBRANCH  29  30
ENDBRANCH  26  29
ENDBRANCH  20  21
ENDBRANCH   2  20
TORSDOF 8
