REMARK  Name = ZINC44529405
REMARK  8 active torsions:
REMARK  status: ('A' for Active; 'I' for Inactive)
REMARK    1  A    between atoms: C_1  and  C_2
REMARK    2  A    between atoms: C_2  and  C_3
REMARK    3  A    between atoms: C_2  and  C_5
REMARK    4  A    between atoms: C_2  and  N_8
REMARK    5  A    between atoms: C_9  and  C_11
REMARK    6  A    between atoms: C_11  and  N_12
REMARK    7  A    between atoms: C_16  and  C_19
REMARK    8  A    between atoms: C_19  and  N_20
REMARK                            x       y       z     vdW  Elec       q    Type
REMARK                         _______ _______ _______ _____ _____    ______ ____
ROOT
ATOM      1  C   UNL     1      -3.611  -0.724   1.044  0.00  0.00    +0.019 C 
ENDROOT
BRANCH   1   2
ATOM      2  N   UNL     1      -4.298  -0.250   2.252  0.00  0.00    +0.386 N 
ATOM      3  C   UNL     1      -3.654  -0.827   3.438  0.00  0.00    -0.078 C 
ATOM      4  C   UNL     1      -4.314  -0.274   4.702  0.00  0.00    -0.018 C 
ATOM      5  C   UNL     1      -5.801  -0.641   4.698  0.00  0.00    -0.002 C 
ATOM      6  C   UNL     1      -6.447  -0.098   3.420  0.00  0.00    -0.045 C 
ATOM      7  C   UNL     1      -5.707  -0.658   2.203  0.00  0.00    -0.077 C 
ATOM      8  H   UNL     1      -4.242   0.756   2.297  0.00  0.00    -0.081 HD
BRANCH   6   9
ATOM      9  C   UNL     1      -7.915  -0.526   3.369  0.00  0.00    -0.085 C 
BRANCH   9  10
ATOM     10  N   UNL     1      -8.648   0.106   4.473  0.00  0.00    +0.378 N 
ATOM     11  H   UNL     1      -8.245  -0.181   5.353  0.00  0.00    -0.090 HD
ATOM     12  H   UNL     1      -8.587   1.109   4.387  0.00  0.00    -0.090 HD
ATOM     13  H   UNL     1      -9.617  -0.176   4.439  0.00  0.00    -0.090 HD
ENDBRANCH   9  10
ENDBRANCH   6   9
ENDBRANCH   1   2
BRANCH   1  15
ATOM     14  N   UNL     1      -1.372  -0.511   0.012  0.00  0.00    -0.299 N 
ATOM     15  C   UNL     1      -2.197  -0.202   1.033  0.00  0.00    +0.198 C 
ATOM     16  O   UNL     1      -1.801   0.495   1.942  0.00  0.00    -0.278 OA
ATOM     17  H   UNL     1      -1.689  -1.069  -0.715  0.00  0.00    +0.150 HD
BRANCH  14  19
ATOM     18  C   UNL     1      -0.019   1.526   0.010  0.00  0.00    +0.048 C 
ATOM     19  C   UNL     1       0.002  -0.004   0.002  0.00  0.00    +0.121 C 
BRANCH  19  20
ATOM     20  C   UNL     1       0.718  -0.497  -1.257  0.00  0.00    +0.026 C 
ATOM     21  C   UNL     1       1.919  -1.426  -1.068  0.00  0.00    +0.007 C 
ATOM     22  C   UNL     1       2.134   0.022  -1.513  0.00  0.00    +0.007 C 
ENDBRANCH  19  20
BRANCH  19  23
ATOM     23  C   UNL     1       0.714  -0.492   1.195  0.00  0.00    +0.088 C 
ATOM     24  N   UNL     1       1.263  -0.868   2.115  0.00  0.00    -0.194 NA
ENDBRANCH  19  23
ENDBRANCH  14  19
ENDBRANCH   1  15
TORSDOF 7
