REMARK  Name = ZINC32101996
REMARK  4 active torsions:
REMARK  status: ('A' for Active; 'I' for Inactive)
REMARK    1  A    between atoms: C_6  and  C_7
REMARK    2  A    between atoms: C_7  and  O_27
REMARK    3  A    between atoms: C_13  and  C_15
REMARK    4  A    between atoms: C_17  and  N_22
REMARK                            x       y       z     vdW  Elec       q    Type
REMARK                         _______ _______ _______ _____ _____    ______ ____
ROOT
ATOM      1  C   UNL     1       3.687   6.192   0.767  0.00  0.00    +0.094 C 
ATOM      2  C   UNL     1       4.947   5.329   0.859  0.00  0.00    +0.058 C 
ATOM      3  C   UNL     1       4.908   4.257  -0.235  0.00  0.00    +0.111 C 
ATOM      4  N   UNL     1       3.651   3.506  -0.115  0.00  0.00    -0.297 N 
ATOM      5  C   UNL     1       2.382   4.247  -0.107  0.00  0.00    +0.111 C 
ATOM      6  C   UNL     1       2.450   5.319   0.991  0.00  0.00    +0.058 C 
ATOM      7  C   UNL     1       3.662   2.161  -0.021  0.00  0.00    +0.248 C 
ATOM      8  O   UNL     1       4.719   1.565   0.043  0.00  0.00    -0.270 OA
ENDROOT
BRANCH   1  14
ATOM      9  C   UNL     1       4.397   7.038   3.014  0.00  0.00    +0.008 A 
ATOM     10  C   UNL     1       4.449   8.027   3.978  0.00  0.00    +0.020 A 
ATOM     11  C   UNL     1       3.831   9.244   3.753  0.00  0.00    +0.041 A 
ATOM     12  C   UNL     1       3.167   9.473   2.562  0.00  0.00    +0.020 A 
ATOM     13  C   UNL     1       3.121   8.486   1.596  0.00  0.00    +0.008 A 
ATOM     14  C   UNL     1       3.738   7.269   1.821  0.00  0.00    -0.016 A 
ATOM     15 CL   UNL     1       3.891  10.485   4.966  0.00  0.00    -0.084 Cl
ENDBRANCH   1  14
BRANCH   7  16
ATOM     16  C   UNL     1       2.388   1.412   0.005  0.00  0.00    +0.057 A 
ATOM     17  C   UNL     1       1.335   1.791  -0.829  0.00  0.00    +0.042 A 
ATOM     18  C   UNL     1       0.145   1.085  -0.799  0.00  0.00    +0.070 A 
ATOM     19  C   UNL     1      -0.000   0.001   0.059  0.00  0.00    +0.029 A 
ATOM     20  C   UNL     1       1.040  -0.376   0.885  0.00  0.00    +0.023 A 
ATOM     21  C   UNL     1       2.233   0.322   0.864  0.00  0.00    +0.053 A 
ATOM     22 CL   UNL     1       3.537  -0.156   1.906  0.00  0.00    -0.083 Cl
BRANCH  18  23
ATOM     23  N   UNL     1      -0.914   1.459  -1.641  0.00  0.00    -0.200 N 
ATOM     24  C   UNL     1      -2.159   0.938  -1.673  0.00  0.00    +0.250 A 
ATOM     25  N   UNL     1      -2.823   1.576  -2.601  0.00  0.00    -0.116 NA
ATOM     26  N   UNL     1      -2.082   2.465  -3.158  0.00  0.00    -0.023 NA
ATOM     27  N   UNL     1      -0.908   2.462  -2.626  0.00  0.00    -0.039 NA
ENDBRANCH  18  23
ENDBRANCH   7  16
BRANCH   1  28
ATOM     28  O   UNL     1       3.616   6.795  -0.526  0.00  0.00    -0.384 OA
ATOM     29  H   UNL     1       3.571   6.163  -1.426  0.00  0.00    +0.211 HD
ENDBRANCH   1  28
TORSDOF 4
