REMARK  Name = ZINC37530457
REMARK  7 active torsions:
REMARK  status: ('A' for Active; 'I' for Inactive)
REMARK    1  A    between atoms: C_1  and  C_2
REMARK    2  A    between atoms: C_2  and  N_9
REMARK    3  A    between atoms: N_9  and  C_10
REMARK    4  A    between atoms: C_10  and  N_12
REMARK    5  A    between atoms: N_12  and  C_13
REMARK    6  A    between atoms: C_15  and  N_20
REMARK    7  A    between atoms: C_18  and  O_19
REMARK                            x       y       z     vdW  Elec       q    Type
REMARK                         _______ _______ _______ _____ _____    ______ ____
ROOT
ATOM      1  N   UNL     1      -3.528  -0.298  -0.978  0.00  0.00    -0.294 N 
ATOM      2  H   UNL     1      -3.856  -0.941  -0.330  0.00  0.00    +0.154 HD
ENDROOT
BRANCH   1   3
ATOM      3  C   UNL     1      -4.372   0.165  -1.996  0.00  0.00    +0.077 A 
ATOM      4  C   UNL     1      -3.916   0.223  -3.305  0.00  0.00    +0.059 A 
ATOM      5  C   UNL     1      -4.751   0.679  -4.307  0.00  0.00    +0.128 A 
ATOM      6  C   UNL     1      -6.041   1.079  -4.009  0.00  0.00    +0.036 A 
ATOM      7  C   UNL     1      -6.502   1.024  -2.707  0.00  0.00    +0.049 A 
ATOM      8  C   UNL     1      -5.674   0.562  -1.697  0.00  0.00    +0.138 A 
BRANCH   5   9
ATOM      9  N   UNL     1      -4.263   0.741  -5.703  0.00  0.00    +0.056 N 
ATOM     10  O   UNL     1      -3.135   0.392  -5.965  0.00  0.00    -0.126 OA
ATOM     11  O   UNL     1      -4.992   1.139  -6.581  0.00  0.00    -0.126 OA
ENDBRANCH   5   9
BRANCH   8  12
ATOM     12  O   UNL     1      -6.128   0.502  -0.417  0.00  0.00    -0.505 OA
ATOM     13  H   UNL     1      -5.975   1.310   0.093  0.00  0.00    +0.292 HD
ENDBRANCH   8  12
ENDBRANCH   1   3
BRANCH   1  14
ATOM     14  C   UNL     1      -2.260   0.151  -0.898  0.00  0.00    +0.135 C 
ATOM     15  S   UNL     1      -1.645   1.199  -2.104  0.00  0.00    -0.019 S 
BRANCH  14  16
ATOM     16  N   UNL     1      -1.475  -0.225   0.131  0.00  0.00    -0.319 N 
ATOM     17  H   UNL     1      -1.801  -0.869   0.779  0.00  0.00    +0.148 HD
BRANCH  16  19
ATOM     18  C   UNL     1       0.723  -0.134  -0.907  0.00  0.00    +0.033 C 
ATOM     19  C   UNL     1      -0.130   0.339   0.272  0.00  0.00    +0.052 C 
ATOM     20  C   UNL     1       0.486  -0.189   1.566  0.00  0.00    +0.049 C 
ATOM     21  C   UNL     1       1.512   0.833   2.131  0.00  0.00    +0.168 C 
ATOM     22  S   UNL     1       0.610   2.404   1.772  0.00  0.00    -0.029 S 
ATOM     23  O   UNL     1       1.551   3.424   1.469  0.00  0.00    -0.174 OA
ATOM     24  O   UNL     1      -0.365   2.624   2.783  0.00  0.00    -0.174 OA
ATOM     25  C   UNL     1      -0.232   1.876   0.222  0.00  0.00    +0.191 C 
ENDBRANCH  16  19
ENDBRANCH  14  16
ENDBRANCH   1  14
TORSDOF 6
