REMARK  Name = ZINC40367695
REMARK  13 active torsions:
REMARK  status: ('A' for Active; 'I' for Inactive)
REMARK    1  A    between atoms: C_1  and  C_2
REMARK    2  A    between atoms: C_2  and  N_3
REMARK    3  A    between atoms: C_4  and  C_36
REMARK    4  A    between atoms: C_5  and  C_29
REMARK    5  A    between atoms: C_6  and  C_11
REMARK    6  A    between atoms: C_14  and  N_17
REMARK    7  A    between atoms: N_20  and  C_21
REMARK    8  A    between atoms: C_24  and  C_27
REMARK    9  A    between atoms: C_29  and  O_31
REMARK   10  A    between atoms: O_31  and  C_32
REMARK   11  A    between atoms: C_32  and  C_33
REMARK   12  A    between atoms: C_33  and  C_34
REMARK   13  A    between atoms: C_33  and  C_35
REMARK                            x       y       z     vdW  Elec       q    Type
REMARK                         _______ _______ _______ _____ _____    ______ ____
ROOT
ATOM      1  C   UNL     1       2.426  -2.950  -4.028  0.00  0.00    -0.022 A 
ATOM      2  C   UNL     1       2.628  -3.706  -2.888  0.00  0.00    +0.007 A 
ATOM      3  C   UNL     1       3.079  -5.008  -2.991  0.00  0.00    +0.024 A 
ATOM      4  C   UNL     1       3.329  -5.557  -4.242  0.00  0.00    +0.035 A 
ATOM      5  C   UNL     1       3.125  -4.795  -5.385  0.00  0.00    +0.024 A 
ATOM      6  C   UNL     1       2.669  -3.496  -5.275  0.00  0.00    +0.007 A 
ENDROOT
BRANCH   1  10
ATOM      7  N   UNL     1       0.698  -0.412  -1.704  0.00  0.00    -0.286 N 
ATOM      8  C   UNL     1      -0.100  -1.002  -2.641  0.00  0.00    +0.021 C 
ATOM      9  C   UNL     1       0.427  -1.571  -3.747  0.00  0.00    +0.078 C 
ATOM     10  C   UNL     1       1.933  -1.531  -3.911  0.00  0.00    +0.141 C 
ATOM     11  N   UNL     1       2.703  -0.870  -2.843  0.00  0.00    -0.315 N 
ATOM     12  C   UNL     1       2.031  -0.343  -1.800  0.00  0.00    +0.138 C 
ATOM     13  S   UNL     1       2.913   0.433  -0.555  0.00  0.00    -0.018 S 
ATOM     14  C   UNL     1      -1.593  -1.019  -2.439  0.00  0.00    +0.061 C 
ATOM     15  H   UNL     1       3.670  -0.813  -2.891  0.00  0.00    +0.149 HD
BRANCH   7  17
ATOM     16  C   UNL     1      -0.184  -0.897   0.525  0.00  0.00    +0.025 C 
ATOM     17  C   UNL     1       0.058   0.185  -0.529  0.00  0.00    +0.109 C 
ENDBRANCH   7  17
BRANCH   9  18
ATOM     18  C   UNL     1      -0.398  -2.183  -4.719  0.00  0.00    +0.339 C 
ATOM     19  O   UNL     1       0.103  -2.761  -5.665  0.00  0.00    -0.245 OA
BRANCH  18  20
ATOM     20  O   UNL     1      -1.740  -2.127  -4.596  0.00  0.00    -0.461 OA
BRANCH  20  21
ATOM     21  C   UNL     1      -2.511  -2.860  -5.550  0.00  0.00    +0.235 C 
BRANCH  21  22
ATOM     22  C   UNL     1      -3.998  -2.579  -5.330  0.00  0.00    +0.020 C 
ATOM     23  C   UNL     1      -4.279  -1.096  -5.580  0.00  0.00    +0.010 C 
ATOM     24  C   UNL     1      -4.827  -3.425  -6.298  0.00  0.00    +0.010 C 
ENDBRANCH  21  22
ENDBRANCH  20  21
ENDBRANCH  18  20
ENDBRANCH   9  18
ENDBRANCH   1  10
BRANCH   4  25
ATOM     25  N   UNL     1       3.787  -6.875  -4.350  0.00  0.00    -0.269 N 
ATOM     26  C   UNL     1       3.369  -7.808  -3.472  0.00  0.00    +0.308 C 
ATOM     27  O   UNL     1       2.529  -7.526  -2.640  0.00  0.00    -0.252 OA
ATOM     28  N   UNL     1       3.882  -9.053  -3.516  0.00  0.00    -0.269 N 
ATOM     29  H   UNL     1       4.405  -7.117  -5.058  0.00  0.00    +0.156 HD
ATOM     30  H   UNL     1       4.602  -9.259  -4.134  0.00  0.00    +0.156 HD
BRANCH  28  31
ATOM     31  C   UNL     1       3.380 -10.045  -2.674  0.00  0.00    +0.035 A 
ATOM     32  C   UNL     1       2.027 -10.059  -2.349  0.00  0.00    +0.024 A 
ATOM     33  C   UNL     1       1.527 -11.037  -1.518  0.00  0.00    +0.020 A 
ATOM     34  C   UNL     1       2.381 -12.016  -1.001  0.00  0.00    +0.052 A 
ATOM     35  C   UNL     1       3.739 -11.999  -1.331  0.00  0.00    +0.020 A 
ATOM     36  C   UNL     1       4.231 -11.021  -2.167  0.00  0.00    +0.024 A 
BRANCH  34  37
ATOM     37  C   UNL     1       1.865 -13.034  -0.137  0.00  0.00    +0.099 C 
ATOM     38  N   UNL     1       1.455 -13.842   0.549  0.00  0.00    -0.191 NA
ENDBRANCH  34  37
ENDBRANCH  28  31
ENDBRANCH   4  25
TORSDOF 9
