REMARK  Name = ZINC35841615
REMARK  7 active torsions:
REMARK  status: ('A' for Active; 'I' for Inactive)
REMARK    1  A    between atoms: C_1  and  C_2
REMARK    2  A    between atoms: C_5  and  S_8
REMARK    3  A    between atoms: S_8  and  N_11
REMARK    4  A    between atoms: N_11  and  C_12
REMARK    5  A    between atoms: N_11  and  C_22
REMARK    6  A    between atoms: C_15  and  S_18
REMARK    7  A    between atoms: S_18  and  N_21
REMARK                            x       y       z     vdW  Elec       q    Type
REMARK                         _______ _______ _______ _____ _____    ______ ____
ROOT
ATOM      1  N   UNL     1       1.651  -4.999  -0.034  0.00  0.00    -0.200 N 
ENDROOT
BRANCH   1   2
ATOM      2  C   UNL     1       2.003  -5.892  -1.141  0.00  0.00    +0.094 C 
ATOM      3  C   UNL     1       1.709  -7.341  -0.744  0.00  0.00    +0.005 C 
ATOM      4  C   UNL     1       2.153  -8.274  -1.873  0.00  0.00    -0.081 C 
ATOM      5  N   UNL     1       3.593  -8.112  -2.109  0.00  0.00    +0.379 N 
ATOM      6  C   UNL     1       3.873  -6.743  -2.559  0.00  0.00    -0.081 C 
ATOM      7  C   UNL     1       3.495  -5.752  -1.457  0.00  0.00    +0.005 C 
ATOM      8  H   UNL     1       4.095  -8.293  -1.253  0.00  0.00    -0.086 HD
ATOM      9  H   UNL     1       3.892  -8.766  -2.817  0.00  0.00    -0.086 HD
ENDBRANCH   1   2
BRANCH   1  10
ATOM     10  C   UNL     1       2.313  -5.111   1.191  0.00  0.00    +0.052 A 
ATOM     11  C   UNL     1       3.459  -4.364   1.433  0.00  0.00    +0.026 A 
ATOM     12  C   UNL     1       4.110  -4.477   2.646  0.00  0.00    +0.030 A 
ATOM     13  C   UNL     1       3.624  -5.332   3.617  0.00  0.00    +0.105 A 
ATOM     14  C   UNL     1       2.483  -6.077   3.379  0.00  0.00    +0.030 A 
ATOM     15  C   UNL     1       1.823  -5.965   2.171  0.00  0.00    +0.026 A 
BRANCH  13  16
ATOM     16  S   UNL     1       4.459  -5.473   5.162  0.00  0.00    +0.056 S 
ATOM     17  O   UNL     1       4.115  -6.745   5.695  0.00  0.00    -0.153 OA
ATOM     18  O   UNL     1       5.806  -5.082   4.933  0.00  0.00    -0.153 OA
BRANCH  16  19
ATOM     19  N   UNL     1       3.804  -4.341   6.178  0.00  0.00    -0.204 NA
ATOM     20  H   UNL     1       3.777  -4.505   7.134  0.00  0.00    +0.144 HD
ATOM     21  H   UNL     1       3.447  -3.515   5.818  0.00  0.00    +0.144 HD
ENDBRANCH  16  19
ENDBRANCH  13  16
ENDBRANCH   1  10
BRANCH   1  22
ATOM     22  S   UNL     1       0.468  -3.858  -0.235  0.00  0.00    +0.075 S 
ATOM     23  O   UNL     1      -0.099  -3.631   1.048  0.00  0.00    -0.150 OA
ATOM     24  O   UNL     1      -0.311  -4.272  -1.349  0.00  0.00    -0.150 OA
BRANCH  22  29
ATOM     25  C   UNL     1       3.193   1.277  -1.850  0.00  0.00    +0.044 C 
ATOM     26  C   UNL     1       2.513  -0.006  -1.446  0.00  0.00    -0.050 A 
ATOM     27  C   UNL     1       2.099  -0.903  -2.414  0.00  0.00    +0.005 A 
ATOM     28  C   UNL     1       1.475  -2.079  -2.044  0.00  0.00    +0.029 A 
ATOM     29  C   UNL     1       1.264  -2.359  -0.707  0.00  0.00    +0.109 A 
ATOM     30  C   UNL     1       1.678  -1.462   0.261  0.00  0.00    +0.029 A 
ATOM     31  C   UNL     1       2.307  -0.288  -0.109  0.00  0.00    +0.005 A 
ENDBRANCH  22  29
ENDBRANCH   1  22
TORSDOF 6
