REMARK  Name = ZINC17094581
REMARK  11 active torsions:
REMARK  status: ('A' for Active; 'I' for Inactive)
REMARK    1  A    between atoms: C_1  and  C_2
REMARK    2  A    between atoms: C_2  and  N_3
REMARK    3  A    between atoms: N_3  and  C_4
REMARK    4  A    between atoms: N_3  and  C_6
REMARK    5  A    between atoms: C_4  and  C_5
REMARK    6  A    between atoms: C_9  and  C_12
REMARK    7  A    between atoms: C_17  and  C_21
REMARK    8  A    between atoms: C_17  and  C_22
REMARK    9  A    between atoms: C_27  and  S_29
REMARK   10  A    between atoms: S_29  and  C_30
REMARK   11  A    between atoms: C_30  and  C_31
REMARK                            x       y       z     vdW  Elec       q    Type
REMARK                         _______ _______ _______ _____ _____    ______ ____
ROOT
ATOM      1  C   UNL     1      -2.261  -1.436  -5.951  0.00  0.00    +0.175 C 
ATOM      2  C   UNL     1      -1.735  -0.548  -7.057  0.00  0.00    +0.041 C 
ATOM      3  C   UNL     1      -0.981  -1.031  -8.068  0.00  0.00    +0.020 C 
ATOM      4  C   UNL     1      -0.455  -0.116  -9.149  0.00  0.00    +0.058 C 
ATOM      5  C   UNL     1      -1.439   1.034  -9.374  0.00  0.00    -0.023 C 
ATOM      6  C   UNL     1      -1.612   1.786  -8.050  0.00  0.00    +0.086 C 
ATOM      7  C   UNL     1      -2.067   0.818  -6.994  0.00  0.00    +0.164 C 
ATOM      8  O   UNL     1      -2.736   1.224  -6.064  0.00  0.00    -0.292 OA
ATOM      9  C   UNL     1      -0.887   1.984 -10.438  0.00  0.00    +0.011 C 
ATOM     10  C   UNL     1      -2.788   0.476  -9.830  0.00  0.00    +0.011 C 
ATOM     11  N   UNL     1      -0.664  -2.365  -8.162  0.00  0.00    -0.287 N 
ATOM     12  C   UNL     1      -1.367  -3.259  -7.370  0.00  0.00    +0.219 A 
ATOM     13  N   UNL     1      -2.124  -2.836  -6.331  0.00  0.00    -0.220 N 
ATOM     14  N   UNL     1      -2.688  -3.978  -5.763  0.00  0.00    -0.141 NA
ATOM     15  C   UNL     1      -2.252  -5.003  -6.463  0.00  0.00    +0.210 A 
ATOM     16  N   UNL     1      -1.452  -4.559  -7.435  0.00  0.00    -0.187 NA
ATOM     17  H   UNL     1       0.031  -2.671  -8.765  0.00  0.00    +0.155 HD
ENDROOT
BRANCH   1  21
ATOM     18  C   UNL     1      -0.038  -0.713  -2.373  0.00  0.00    +0.030 A 
ATOM     19  C   UNL     1      -1.410  -0.495  -2.396  0.00  0.00    +0.023 A 
ATOM     20  C   UNL     1      -2.125  -0.729  -3.554  0.00  0.00    +0.008 A 
ATOM     21  C   UNL     1      -1.477  -1.180  -4.690  0.00  0.00    -0.018 A 
ATOM     22  C   UNL     1      -0.112  -1.398  -4.670  0.00  0.00    +0.008 A 
ATOM     23  C   UNL     1       0.610  -1.161  -3.517  0.00  0.00    +0.023 A 
BRANCH  18  24
ATOM     24  N   UNL     1       0.688  -0.476  -1.203  0.00  0.00    -0.330 N 
BRANCH  24  26
ATOM     25  C   UNL     1      -0.019   1.526   0.010  0.00  0.00    +0.024 C 
ATOM     26  C   UNL     1       0.002  -0.004   0.002  0.00  0.00    +0.102 C 
ENDBRANCH  24  26
BRANCH  24  27
ATOM     27  C   UNL     1       2.135  -0.701  -1.182  0.00  0.00    +0.102 C 
ATOM     28  C   UNL     1       2.421  -2.145  -0.763  0.00  0.00    +0.024 C 
ENDBRANCH  24  27
ENDBRANCH  18  24
ENDBRANCH   1  21
BRANCH  15  29
ATOM     29  S   UNL     1      -2.661  -6.691  -6.166  0.00  0.00    -0.085 S 
BRANCH  29  30
ATOM     30  C   UNL     1      -1.756  -7.595  -7.453  0.00  0.00    +0.074 C 
ATOM     31  C   UNL     1      -2.025  -9.094  -7.309  0.00  0.00    +0.016 C 
ENDBRANCH  29  30
ENDBRANCH  15  29
TORSDOF 6
