REMARK  Name = ZINC61592421
REMARK  7 active torsions:
REMARK  status: ('A' for Active; 'I' for Inactive)
REMARK    1  A    between atoms: C_1  and  C_2
REMARK    2  A    between atoms: C_2  and  C_4
REMARK    3  A    between atoms: C_2  and  S_15
REMARK    4  A    between atoms: N_6  and  C_7
REMARK    5  A    between atoms: C_12  and  N_13
REMARK    6  A    between atoms: S_15  and  C_16
REMARK    7  A    between atoms: N_22  and  C_23
REMARK                            x       y       z     vdW  Elec       q    Type
REMARK                         _______ _______ _______ _____ _____    ______ ____
ROOT
ATOM      1  C   UNL     1      -1.413  -0.522   0.012  0.00  0.00    +0.230 C 
ATOM      2  O   UNL     1      -1.926  -0.904  -1.018  0.00  0.00    -0.274 OA
ATOM      3  N   UNL     1      -2.103  -0.575   1.169  0.00  0.00    -0.283 N 
ATOM      4  H   UNL     1      -1.667  -0.346   2.005  0.00  0.00    +0.155 HD
ENDROOT
BRANCH   3   5
ATOM      5  C   UNL     1      -3.451  -0.961   1.163  0.00  0.00    +0.056 A 
ATOM      6  C   UNL     1      -4.217  -0.795   0.019  0.00  0.00    +0.045 A 
ATOM      7  C   UNL     1      -5.546  -1.176   0.016  0.00  0.00    +0.043 A 
ATOM      8  C   UNL     1      -6.116  -1.723   1.153  0.00  0.00    +0.022 A 
ATOM      9  C   UNL     1      -5.359  -1.891   2.297  0.00  0.00    +0.026 A 
ATOM     10  C   UNL     1      -4.023  -1.517   2.307  0.00  0.00    +0.046 A 
ATOM     11 CL   UNL     1      -6.504  -0.967  -1.417  0.00  0.00    -0.083 Cl
BRANCH  10  12
ATOM     12  N   UNL     1      -3.253  -1.693   3.462  0.00  0.00    -0.357 N 
ATOM     13  H   UNL     1      -2.320  -1.427   3.469  0.00  0.00    +0.142 HD
ATOM     14  H   UNL     1      -3.653  -2.080   4.257  0.00  0.00    +0.142 HD
ENDBRANCH  10  12
ENDBRANCH   3   5
BRANCH   1  16
ATOM     15  C   UNL     1      -0.036   1.540   0.006  0.00  0.00    +0.029 C 
ATOM     16  C   UNL     1      -0.003   0.010   0.000  0.00  0.00    +0.137 C 
BRANCH  16  17
ATOM     17  S   UNL     1       0.850  -0.571  -1.492  0.00  0.00    -0.074 S 
BRANCH  17  18
ATOM     18  C   UNL     1       2.503   0.003  -1.288  0.00  0.00    +0.192 A 
ATOM     19  N   UNL     1       2.952   0.681  -0.271  0.00  0.00    -0.145 NA
ATOM     20  N   UNL     1       4.311   0.943  -0.490  0.00  0.00    -0.226 N 
ATOM     21  H   UNL     1       4.905   1.430   0.102  0.00  0.00    +0.194 HD
ATOM     22  C   UNL     1       4.643   0.393  -1.677  0.00  0.00    +0.345 A 
ATOM     23  O   UNL     1       5.743   0.417  -2.200  0.00  0.00    -0.245 OA
ATOM     24  N   UNL     1       3.537  -0.195  -2.176  0.00  0.00    -0.274 N 
ATOM     25  C   UNL     1       3.449  -0.918  -3.447  0.00  0.00    +0.156 C 
ENDBRANCH  17  18
ENDBRANCH  16  17
ENDBRANCH   1  16
TORSDOF 5
