REMARK  Name = ZINC46266369
REMARK  9 active torsions:
REMARK  status: ('A' for Active; 'I' for Inactive)
REMARK    1  A    between atoms: C_1  and  C_2
REMARK    2  A    between atoms: C_2  and  N_3
REMARK    3  A    between atoms: N_3  and  C_4
REMARK    4  A    between atoms: N_3  and  C_6
REMARK    5  A    between atoms: C_4  and  C_5
REMARK    6  A    between atoms: C_6  and  C_8
REMARK    7  A    between atoms: C_6  and  C_9
REMARK    8  A    between atoms: C_9  and  N_10
REMARK    9  A    between atoms: C_17  and  C_19
REMARK                            x       y       z     vdW  Elec       q    Type
REMARK                         _______ _______ _______ _____ _____    ______ ____
ROOT
ATOM      1  N   UNL     1       0.566  -1.571   1.610  0.00  0.00    -0.301 N 
ATOM      2  C   UNL     1       1.433  -1.782   2.620  0.00  0.00    +0.303 C 
ATOM      3  O   UNL     1       1.202  -2.639   3.450  0.00  0.00    -0.253 OA
ATOM      4  N   UNL     1       2.556  -1.042   2.709  0.00  0.00    -0.279 N 
ATOM      5  C   UNL     1       2.955   0.030   1.780  0.00  0.00    +0.110 C 
ATOM      6  C   UNL     1       3.900   0.939   2.604  0.00  0.00    +0.021 C 
ATOM      7  C   UNL     1       4.663  -0.104   3.464  0.00  0.00    +0.029 C 
ATOM      8  C   UNL     1       3.583  -1.166   3.755  0.00  0.00    +0.108 C 
ATOM      9  H   UNL     1       0.750  -0.886   0.947  0.00  0.00    +0.150 HD
ENDROOT
BRANCH   8  10
ATOM     10  C   UNL     1       4.195  -2.542   3.710  0.00  0.00    -0.027 A 
ATOM     11  C   UNL     1       4.441  -3.150   2.493  0.00  0.00    +0.008 A 
ATOM     12  C   UNL     1       5.003  -4.412   2.450  0.00  0.00    +0.038 A 
ATOM     13  C   UNL     1       5.321  -5.067   3.628  0.00  0.00    +0.123 A 
ATOM     14  C   UNL     1       5.075  -4.457   4.847  0.00  0.00    +0.038 A 
ATOM     15  C   UNL     1       4.517  -3.193   4.886  0.00  0.00    +0.008 A 
ATOM     16  F   UNL     1       5.870  -6.301   3.588  0.00  0.00    -0.205 F 
ENDBRANCH   8  10
BRANCH   1  17
ATOM     17  C   UNL     1      -0.655  -2.375   1.512  0.00  0.00    +0.090 C 
BRANCH  17  18
ATOM     18  C   UNL     1      -1.402  -2.014   0.227  0.00  0.00    -0.054 C 
ATOM     19  C   UNL     1      -2.711  -2.803   0.159  0.00  0.00    -0.012 C 
BRANCH  18  20
ATOM     20  N   UNL     1      -1.697  -0.574   0.220  0.00  0.00    +0.382 N 
ATOM     21  H   UNL     1      -0.843  -0.056   0.361  0.00  0.00    -0.081 HD
BRANCH  20  23
ATOM     22  C   UNL     1      -1.249  -0.382  -2.180  0.00  0.00    -0.017 C 
ATOM     23  C   UNL     1      -2.289  -0.202  -1.072  0.00  0.00    -0.082 C 
ENDBRANCH  20  23
BRANCH  20  24
ATOM     24  C   UNL     1      -2.643  -0.263   1.300  0.00  0.00    -0.082 C 
ATOM     25  C   UNL     1      -2.831   1.252   1.392  0.00  0.00    -0.017 C 
ENDBRANCH  20  24
ENDBRANCH  18  20
ENDBRANCH  17  18
ENDBRANCH   1  17
TORSDOF 6
