REMARK  Name = ZINC50265303
REMARK  7 active torsions:
REMARK  status: ('A' for Active; 'I' for Inactive)
REMARK    1  A    between atoms: C_1  and  C_2
REMARK    2  A    between atoms: C_2  and  N_3
REMARK    3  A    between atoms: C_5  and  S_9
REMARK    4  A    between atoms: C_7  and  C_8
REMARK    5  A    between atoms: S_9  and  N_12
REMARK    6  A    between atoms: N_12  and  C_13
REMARK    7  A    between atoms: C_18  and  N_19
REMARK                            x       y       z     vdW  Elec       q    Type
REMARK                         _______ _______ _______ _____ _____    ______ ____
ROOT
ATOM      1  S   UNL     1       0.893  -1.758  -4.880  0.00  0.00    +0.109 S 
ATOM      2  O   UNL     1      -0.343  -1.228  -5.342  0.00  0.00    -0.147 OA
ATOM      3  O   UNL     1       2.125  -1.504  -5.542  0.00  0.00    -0.147 OA
ENDROOT
BRANCH   1   6
ATOM      4  N   UNL     1       0.688  -0.476  -1.203  0.00  0.00    -0.334 N 
ATOM      5  C   UNL     1       0.098  -0.834  -2.386  0.00  0.00    +0.134 A 
ATOM      6  C   UNL     1       1.089  -1.203  -3.219  0.00  0.00    +0.195 A 
ATOM      7  N   UNL     1       2.252  -1.075  -2.564  0.00  0.00    -0.328 N 
ATOM      8  C   UNL     1       2.020  -0.635  -1.357  0.00  0.00    +0.085 A 
ATOM      9  C   UNL     1       3.065  -0.355  -0.308  0.00  0.00    +0.084 C 
ATOM     10  H   UNL     1       3.128  -1.274  -2.930  0.00  0.00    +0.168 HD
BRANCH   4  12
ATOM     11  C   UNL     1      -0.019   1.526   0.010  0.00  0.00    +0.027 C 
ATOM     12  C   UNL     1       0.002  -0.004   0.002  0.00  0.00    +0.119 C 
ENDBRANCH   4  12
ENDBRANCH   1   6
BRANCH   1  13
ATOM     13  N   UNL     1       0.714  -3.403  -4.829  0.00  0.00    -0.095 NA
BRANCH  13  14
ATOM     14  C   UNL     1       0.537  -4.125  -6.016  0.00  0.00    +0.095 A 
ATOM     15  C   UNL     1       0.517  -3.465  -7.235  0.00  0.00    +0.029 A 
ATOM     16  C   UNL     1       0.343  -4.180  -8.406  0.00  0.00    +0.017 A 
ATOM     17  C   UNL     1       0.187  -5.554  -8.365  0.00  0.00    +0.020 A 
ATOM     18  C   UNL     1       0.205  -6.220  -7.153  0.00  0.00    +0.040 A 
ATOM     19  C   UNL     1       0.385  -5.511  -5.975  0.00  0.00    +0.050 A 
ATOM     20 BR   UNL     1      -0.052  -6.524  -9.971  0.00  0.00    -0.050 Br
BRANCH  19  21
ATOM     21  N   UNL     1       0.409  -6.184  -4.747  0.00  0.00    -0.356 N 
ATOM     22  H   UNL     1       0.531  -5.686  -3.924  0.00  0.00    +0.142 HD
ATOM     23  H   UNL     1       0.304  -7.148  -4.721  0.00  0.00    +0.142 HD
ENDBRANCH  19  21
ENDBRANCH  13  14
ENDBRANCH   1  13
TORSDOF 5
