REMARK  Name = ZINC00063432
REMARK  3 active torsions:
REMARK  status: ('A' for Active; 'I' for Inactive)
REMARK    1  A    between atoms: C_4  and  C_7
REMARK    2  A    between atoms: C_12  and  C_13
REMARK    3  A    between atoms: C_17  and  N_19
REMARK                            x       y       z     vdW  Elec       q    Type
REMARK                         _______ _______ _______ _____ _____    ______ ____
ROOT
ATOM      1  C   UNL     1       3.590   7.528  -0.206  0.00  0.00    +0.034 C 
ATOM      2  C   UNL     1       2.252   8.209  -0.512  0.00  0.00    +0.088 C 
ATOM      3  C   UNL     1       1.153   7.495   0.249  0.00  0.00    +0.167 C 
ATOM      4  O   UNL     1       0.346   8.100   0.922  0.00  0.00    -0.292 OA
ATOM      5  C   UNL     1       1.116   6.019   0.127  0.00  0.00    +0.060 C 
ATOM      6  C   UNL     1      -0.070   5.311   0.031  0.00  0.00    +0.022 C 
ATOM      7  C   UNL     1       2.441   5.356   0.123  0.00  0.00    +0.167 C 
ATOM      8  O   UNL     1       2.630   4.305   0.699  0.00  0.00    -0.292 OA
ATOM      9  C   UNL     1       3.545   6.062  -0.644  0.00  0.00    +0.088 C 
ENDROOT
BRANCH   1  13
ATOM     10  C   UNL     1       6.717   9.535  -2.312  0.00  0.00    +0.000 A 
ATOM     11  C   UNL     1       6.748   9.465  -0.932  0.00  0.00    +0.000 A 
ATOM     12  C   UNL     1       5.736   8.815  -0.251  0.00  0.00    +0.004 A 
ATOM     13  C   UNL     1       4.693   8.237  -0.949  0.00  0.00    -0.043 A 
ATOM     14  C   UNL     1       4.664   8.303  -2.329  0.00  0.00    +0.004 A 
ATOM     15  C   UNL     1       5.674   8.957  -3.011  0.00  0.00    +0.000 A 
ENDBRANCH   1  13
BRANCH   6  16
ATOM     16  C   UNL     1      -0.044   3.875  -0.257  0.00  0.00    -0.022 A 
ATOM     17  C   UNL     1       0.985   3.330  -1.038  0.00  0.00    +0.008 A 
ATOM     18  C   UNL     1       1.000   1.979  -1.304  0.00  0.00    +0.003 A 
ATOM     19  C   UNL     1       0.004   1.159  -0.801  0.00  0.00    +0.033 A 
ATOM     20  C   UNL     1      -1.020   1.688  -0.034  0.00  0.00    +0.127 A 
ATOM     21  C   UNL     1      -1.049   3.037   0.247  0.00  0.00    +0.040 A 
BRANCH  20  22
ATOM     22  N   UNL     1      -2.083   0.802   0.492  0.00  0.00    +0.056 N 
ATOM     23  O   UNL     1      -2.056  -0.391   0.249  0.00  0.00    -0.126 OA
ATOM     24  O   UNL     1      -2.984   1.266   1.167  0.00  0.00    -0.126 OA
ENDBRANCH  20  22
ENDBRANCH   6  16
TORSDOF 3
