REMARK  Name = ZINC30134612
REMARK  10 active torsions:
REMARK  status: ('A' for Active; 'I' for Inactive)
REMARK    1  A    between atoms: C_1  and  C_2
REMARK    2  A    between atoms: C_2  and  C_3
REMARK    3  A    between atoms: C_3  and  S_4
REMARK    4  A    between atoms: S_4  and  N_7
REMARK    5  A    between atoms: N_7  and  C_8
REMARK    6  A    between atoms: N_11  and  C_14
REMARK    7  A    between atoms: C_14  and  C_16
REMARK    8  A    between atoms: C_14  and  C_17
REMARK    9  A    between atoms: N_19  and  C_20
REMARK   10  A    between atoms: C_25  and  C_26
REMARK                            x       y       z     vdW  Elec       q    Type
REMARK                         _______ _______ _______ _____ _____    ______ ____
ROOT
ATOM      1  C   UNL     1      -0.458  -1.589   4.172  0.00  0.00    +0.073 C 
ATOM      2  C   UNL     1       0.171  -0.321   4.756  0.00  0.00    +0.002 C 
ATOM      3  C   UNL     1       0.212  -0.435   6.282  0.00  0.00    -0.076 C 
ATOM      4  N   UNL     1       1.014  -1.602   6.667  0.00  0.00    +0.387 N 
ATOM      5  C   UNL     1       0.379  -2.829   6.170  0.00  0.00    -0.076 C 
ATOM      6  C   UNL     1       0.344  -2.807   4.641  0.00  0.00    +0.002 C 
ATOM      7  H   UNL     1       1.939  -1.520   6.271  0.00  0.00    -0.081 HD
ENDROOT
BRANCH   1   8
ATOM      8  N   UNL     1      -0.431  -1.519   2.709  0.00  0.00    -0.192 NA
ATOM      9  H   UNL     1       0.362  -1.795   2.224  0.00  0.00    +0.148 HD
BRANCH   8  10
ATOM     10  S   UNL     1      -1.757  -0.969   1.882  0.00  0.00    +0.030 S 
ATOM     11  O   UNL     1      -2.844  -1.728   2.394  0.00  0.00    -0.158 OA
ATOM     12  O   UNL     1      -1.392  -1.060   0.511  0.00  0.00    -0.158 OA
BRANCH  10  13
ATOM     13  C   UNL     1      -1.923   0.770   2.371  0.00  0.00    +0.185 C 
BRANCH  13  15
ATOM     14  C   UNL     1      -3.269   2.853   2.073  0.00  0.00    +0.005 C 
ATOM     15  C   UNL     1      -3.129   1.387   1.660  0.00  0.00    +0.021 C 
ENDBRANCH  13  15
ENDBRANCH  10  13
ENDBRANCH   8  10
ENDBRANCH   1   8
BRANCH   4  16
ATOM     16  C   UNL     1       1.116  -1.663   8.131  0.00  0.00    +0.016 C 
ATOM     17  C   UNL     1       1.896  -2.916   8.536  0.00  0.00    -0.004 C 
BRANCH  16  18
ATOM     18  C   UNL     1       1.835  -0.439   8.636  0.00  0.00    +0.203 C 
ATOM     19  O   UNL     1       2.644   0.124   7.929  0.00  0.00    -0.277 OA
ATOM     20  N   UNL     1       1.578   0.031   9.873  0.00  0.00    -0.287 N 
ATOM     21  H   UNL     1       0.979  -0.455  10.462  0.00  0.00    +0.155 HD
BRANCH  20  22
ATOM     22  C   UNL     1       2.175   1.220  10.308  0.00  0.00    +0.038 A 
ATOM     23  C   UNL     1       3.422   1.590   9.821  0.00  0.00    +0.023 A 
ATOM     24  C   UNL     1       4.009   2.764  10.251  0.00  0.00    +0.003 A 
ATOM     25  C   UNL     1       3.357   3.570  11.166  0.00  0.00    +0.020 A 
ATOM     26  C   UNL     1       2.115   3.204  11.654  0.00  0.00    +0.046 A 
ATOM     27  C   UNL     1       1.520   2.033  11.222  0.00  0.00    -0.011 A 
ATOM     28  C   UNL     1       0.164   1.637  11.748  0.00  0.00    +0.047 C 
ATOM     29 CL   UNL     1       1.300   4.219  12.803  0.00  0.00    -0.083 Cl
ENDBRANCH  20  22
ENDBRANCH  16  18
ENDBRANCH   4  16
TORSDOF 7
