REMARK  Name = ZINC09677441
REMARK  5 active torsions:
REMARK  status: ('A' for Active; 'I' for Inactive)
REMARK    1  A    between atoms: C_5  and  S_7
REMARK    2  A    between atoms: S_7  and  N_10
REMARK    3  A    between atoms: C_13  and  C_16
REMARK    4  A    between atoms: N_18  and  C_19
REMARK    5  A    between atoms: C_19  and  C_20
REMARK                            x       y       z     vdW  Elec       q    Type
REMARK                         _______ _______ _______ _____ _____    ______ ____
ROOT
ATOM      1  N   UNL     1       0.002  -0.004   0.002  0.00  0.00    -0.176 NA
ATOM      2  C   UNL     1      -0.006  -0.746  -1.266  0.00  0.00    +0.110 C 
ATOM      3  C   UNL     1       1.180  -1.722  -1.269  0.00  0.00    +0.030 C 
ATOM      4  C   UNL     1       1.108  -2.607  -0.023  0.00  0.00    +0.077 C 
ATOM      5  C   UNL     1       1.205  -1.735   1.231  0.00  0.00    +0.030 C 
ATOM      6  C   UNL     1       0.024  -0.759   1.262  0.00  0.00    +0.110 C 
ENDROOT
BRANCH   4   7
ATOM      7  C   UNL     1       2.248  -3.592  -0.039  0.00  0.00    +0.216 C 
ATOM      8  O   UNL     1       3.059  -3.596   0.863  0.00  0.00    -0.276 OA
ATOM      9  N   UNL     1       2.368  -4.468  -1.056  0.00  0.00    -0.311 N 
ATOM     10  H   UNL     1       1.720  -4.465  -1.778  0.00  0.00    +0.149 HD
BRANCH   9  11
ATOM     11  C   UNL     1       3.477  -5.425  -1.072  0.00  0.00    +0.139 C 
BRANCH  11  12
ATOM     12  C   UNL     1       3.382  -6.284  -2.307  0.00  0.00    -0.030 A 
ATOM     13  C   UNL     1       2.671  -7.469  -2.271  0.00  0.00    +0.008 A 
ATOM     14  C   UNL     1       2.579  -8.255  -3.404  0.00  0.00    +0.038 A 
ATOM     15  C   UNL     1       3.208  -7.860  -4.572  0.00  0.00    +0.123 A 
ATOM     16  C   UNL     1       3.924  -6.676  -4.606  0.00  0.00    +0.038 A 
ATOM     17  C   UNL     1       4.010  -5.889  -3.473  0.00  0.00    +0.008 A 
ATOM     18  F   UNL     1       3.122  -8.630  -5.679  0.00  0.00    -0.205 F 
ENDBRANCH  11  12
ENDBRANCH   9  11
ENDBRANCH   4   7
BRANCH   1  19
ATOM     19  S   UNL     1      -0.020   1.652   0.011  0.00  0.00    +0.063 S 
ATOM     20  O   UNL     1      -0.589   2.057  -1.227  0.00  0.00    -0.153 OA
ATOM     21  O   UNL     1      -0.565   2.044   1.264  0.00  0.00    -0.153 OA
BRANCH  19  26
ATOM     22  C   UNL     1       3.457   3.328  -1.110  0.00  0.00    +0.004 A 
ATOM     23  C   UNL     1       4.318   3.095  -0.091  0.00  0.00    +0.031 A 
ATOM     24  C   UNL     1       3.884   2.381   1.056  0.00  0.00    +0.102 A 
ATOM     25  C   UNL     1       2.500   1.919   1.105  0.00  0.00    +0.126 A 
ATOM     26  C   UNL     1       1.655   2.196  -0.002  0.00  0.00    +0.133 A 
ATOM     27  C   UNL     1       2.136   2.882  -1.066  0.00  0.00    +0.031 A 
ATOM     28  N   UNL     1       2.228   1.273   2.237  0.00  0.00    -0.189 NA
ATOM     29  S   UNL     1       3.551   1.284   3.076  0.00  0.00    +0.117 S 
ATOM     30  N   UNL     1       4.561   2.049   2.153  0.00  0.00    -0.191 NA
ENDBRANCH  19  26
ENDBRANCH   1  19
TORSDOF 5
