REMARK  Name = ZINC67411432
REMARK  11 active torsions:
REMARK  status: ('A' for Active; 'I' for Inactive)
REMARK    1  A    between atoms: C_1  and  C_2
REMARK    2  A    between atoms: N_5  and  C_8
REMARK    3  A    between atoms: C_8  and  C_10
REMARK    4  A    between atoms: C_8  and  C_11
REMARK    5  A    between atoms: C_11  and  N_12
REMARK    6  A    between atoms: N_15  and  C_16
REMARK    7  A    between atoms: C_16  and  C_18
REMARK    8  A    between atoms: C_16  and  C_19
REMARK    9  A    between atoms: C_23  and  S_25
REMARK   10  A    between atoms: S_25  and  N_28
REMARK   11  A    between atoms: N_28  and  C_29
REMARK                            x       y       z     vdW  Elec       q    Type
REMARK                         _______ _______ _______ _____ _____    ______ ____
ROOT
ATOM      1  N   UNL     1       1.401  -3.769   2.567  0.00  0.00    -0.301 N 
ATOM      2  C   UNL     1       2.344  -4.097   3.472  0.00  0.00    +0.300 C 
ATOM      3  O   UNL     1       2.099  -4.918   4.334  0.00  0.00    -0.253 OA
ATOM      4  N   UNL     1       3.558  -3.514   3.422  0.00  0.00    -0.293 N 
ATOM      5  H   UNL     1       1.597  -3.113   1.879  0.00  0.00    +0.150 HD
ATOM      6  H   UNL     1       3.754  -2.858   2.735  0.00  0.00    +0.151 HD
ENDROOT
BRANCH   4   7
ATOM      7  C   UNL     1       4.583  -3.870   4.407  0.00  0.00    +0.102 C 
ATOM      8  C   UNL     1       5.327  -5.122   3.938  0.00  0.00    +0.033 C 
BRANCH   7   9
ATOM      9  C   UNL     1       5.559  -2.731   4.551  0.00  0.00    -0.026 A 
ATOM     10  C   UNL     1       5.965  -2.022   3.436  0.00  0.00    +0.005 A 
ATOM     11  C   UNL     1       6.860  -0.977   3.569  0.00  0.00    +0.002 A 
ATOM     12  C   UNL     1       7.348  -0.640   4.817  0.00  0.00    +0.028 A 
ATOM     13  C   UNL     1       6.941  -1.347   5.933  0.00  0.00    +0.106 A 
ATOM     14  C   UNL     1       6.043  -2.390   5.800  0.00  0.00    +0.034 A 
BRANCH  13  15
ATOM     15  S   UNL     1       7.564  -0.917   7.524  0.00  0.00    +0.058 S 
ATOM     16  O   UNL     1       7.449  -2.080   8.333  0.00  0.00    -0.153 OA
ATOM     17  O   UNL     1       8.804  -0.257   7.310  0.00  0.00    -0.153 OA
BRANCH  15  18
ATOM     18  N   UNL     1       6.533   0.209   8.165  0.00  0.00    -0.193 NA
ATOM     19  C   UNL     1       5.150  -0.159   8.479  0.00  0.00    +0.127 C 
ATOM     20  H   UNL     1       6.845   1.112   8.334  0.00  0.00    +0.148 HD
ENDBRANCH  15  18
ENDBRANCH  13  15
ENDBRANCH   7   9
ENDBRANCH   4   7
BRANCH   1  21
ATOM     21  C   UNL     1       0.082  -4.402   2.621  0.00  0.00    +0.090 C 
BRANCH  21  22
ATOM     22  C   UNL     1      -0.753  -3.945   1.423  0.00  0.00    -0.054 C 
ATOM     23  C   UNL     1      -2.159  -4.540   1.525  0.00  0.00    -0.012 C 
BRANCH  22  28
ATOM     24  C   UNL     1      -2.251   1.558   1.371  0.00  0.00    +0.007 C 
ATOM     25  C   UNL     1      -2.293   0.028   1.371  0.00  0.00    -0.018 C 
ATOM     26  C   UNL     1      -1.621  -0.503   2.641  0.00  0.00    -0.016 C 
ATOM     27  C   UNL     1      -1.596  -2.032   2.597  0.00  0.00    -0.078 C 
ATOM     28  N   UNL     1      -0.842  -2.478   1.419  0.00  0.00    +0.382 N 
ATOM     29  C   UNL     1      -1.519  -2.034   0.196  0.00  0.00    -0.078 C 
ATOM     30  C   UNL     1      -1.541  -0.504   0.147  0.00  0.00    -0.016 C 
ATOM     31  H   UNL     1       0.088  -2.088   1.449  0.00  0.00    -0.081 HD
ENDBRANCH  22  28
ENDBRANCH  21  22
ENDBRANCH   1  21
TORSDOF 7
