REMARK  Name = ZINC65301193
REMARK  9 active torsions:
REMARK  status: ('A' for Active; 'I' for Inactive)
REMARK    1  A    between atoms: C_1  and  C_2
REMARK    2  A    between atoms: C_4  and  C_37
REMARK    3  A    between atoms: C_5  and  N_9
REMARK    4  A    between atoms: C_6  and  C_8
REMARK    5  A    between atoms: C_10  and  C_12
REMARK    6  A    between atoms: N_15  and  C_18
REMARK    7  A    between atoms: C_19  and  C_28
REMARK    8  A    between atoms: C_24  and  C_27
REMARK    9  A    between atoms: C_33  and  C_36
REMARK                            x       y       z     vdW  Elec       q    Type
REMARK                         _______ _______ _______ _____ _____    ______ ____
ROOT
ATOM      1  C   UNL     1      -2.484  -9.615   1.855  0.00  0.00    +0.055 A 
ATOM      2  C   UNL     1      -3.288  -8.835   2.699  0.00  0.00    +0.074 A 
ATOM      3  C   UNL     1      -4.283  -9.444   3.475  0.00  0.00    +0.098 A 
ATOM      4  N   UNL     1      -4.471 -10.745   3.420  0.00  0.00    -0.353 N 
ATOM      5  C   UNL     1      -3.740 -11.517   2.643  0.00  0.00    +0.107 A 
ATOM      6  C   UNL     1      -2.712 -11.016   1.810  0.00  0.00    +0.050 A 
ATOM      7  C   UNL     1      -2.072 -12.021   1.065  0.00  0.00    +0.058 A 
ATOM      8  N   UNL     1      -2.440 -13.261   1.173  0.00  0.00    -0.213 NA
ATOM      9  S   UNL     1      -3.683 -13.257   2.298  0.00  0.00    +0.030 S 
ATOM     10  C   UNL     1      -0.948 -11.656   0.132  0.00  0.00    +0.067 C 
ATOM     11  H   UNL     1      -5.165 -11.146   3.966  0.00  0.00    +0.166 HD
ENDROOT
BRANCH   2  12
ATOM     12  C   UNL     1      -3.087  -7.379   2.770  0.00  0.00    +0.250 C 
ATOM     13  O   UNL     1      -3.210  -6.699   1.769  0.00  0.00    -0.270 OA
ATOM     14  N   UNL     1      -2.765  -6.799   3.943  0.00  0.00    -0.297 N 
ATOM     15  C   UNL     1      -2.478  -7.618   5.129  0.00  0.00    +0.108 C 
ATOM     16  C   UNL     1      -1.113  -7.209   5.692  0.00  0.00    +0.022 C 
ATOM     17  C   UNL     1      -1.104  -5.701   5.952  0.00  0.00    -0.011 C 
ATOM     18  C   UNL     1      -1.327  -4.953   4.636  0.00  0.00    +0.022 C 
ATOM     19  C   UNL     1      -2.689  -5.337   4.059  0.00  0.00    +0.108 C 
ATOM     20  C   UNL     1       0.246  -5.295   6.547  0.00  0.00    +0.007 C 
ENDBRANCH   2  12
BRANCH   1  24
ATOM     21  C   UNL     1       0.144  -6.977   0.049  0.00  0.00    +0.078 C 
ATOM     22  C   UNL     1      -1.338  -7.050  -0.328  0.00  0.00    +0.031 C 
ATOM     23  C   UNL     1      -1.809  -8.506  -0.252  0.00  0.00    +0.106 C 
ATOM     24  N   UNL     1      -1.499  -9.034   1.083  0.00  0.00    -0.329 N 
ATOM     25  C   UNL     1      -0.121  -8.932   1.582  0.00  0.00    +0.106 C 
ATOM     26  C   UNL     1       0.331  -7.471   1.486  0.00  0.00    +0.031 C 
BRANCH  21  28
ATOM     27  N   UNL     1       0.550  -4.904  -1.237  0.00  0.00    -0.285 N 
ATOM     28  C   UNL     1       0.619  -5.551  -0.057  0.00  0.00    +0.220 C 
ATOM     29  O   UNL     1       1.064  -4.986   0.920  0.00  0.00    -0.275 OA
ATOM     30  H   UNL     1       0.270  -5.379  -2.035  0.00  0.00    +0.155 HD
BRANCH  27  35
ATOM     31  C   UNL     1       1.892   0.600  -1.538  0.00  0.00    +0.044 C 
ATOM     32  C   UNL     1       1.536  -0.862  -1.458  0.00  0.00    -0.050 A 
ATOM     33  C   UNL     1       2.455  -1.770  -0.966  0.00  0.00    +0.008 A 
ATOM     34  C   UNL     1       2.131  -3.111  -0.891  0.00  0.00    -0.029 A 
ATOM     35  C   UNL     1       0.881  -3.546  -1.311  0.00  0.00    +0.039 A 
ATOM     36  C   UNL     1      -0.040  -2.631  -1.804  0.00  0.00    -0.029 A 
ATOM     37  C   UNL     1       0.288  -1.291  -1.871  0.00  0.00    +0.008 A 
ATOM     38  C   UNL     1      -1.398  -3.099  -2.260  0.00  0.00    +0.045 C 
ATOM     39  C   UNL     1       3.134  -4.100  -0.356  0.00  0.00    +0.045 C 
ENDBRANCH  27  35
ENDBRANCH  21  28
ENDBRANCH   1  24
TORSDOF 4
