REMARK  Name = ZINC41510554
REMARK  15 active torsions:
REMARK  status: ('A' for Active; 'I' for Inactive)
REMARK    1  A    between atoms: C_1  and  C_2
REMARK    2  A    between atoms: C_2  and  N_3
REMARK    3  A    between atoms: N_3  and  C_4
REMARK    4  A    between atoms: N_3  and  C_6
REMARK    5  A    between atoms: C_4  and  C_5
REMARK    6  A    between atoms: C_6  and  C_7
REMARK    7  A    between atoms: C_8  and  O_31
REMARK    8  A    between atoms: C_10  and  C_30
REMARK    9  A    between atoms: C_15  and  C_16
REMARK   10  A    between atoms: C_18  and  O_26
REMARK   11  A    between atoms: C_19  and  O_24
REMARK   12  A    between atoms: C_20  and  O_22
REMARK   13  A    between atoms: O_22  and  C_23
REMARK   14  A    between atoms: O_24  and  C_25
REMARK   15  A    between atoms: O_26  and  C_27
REMARK                            x       y       z     vdW  Elec       q    Type
REMARK                         _______ _______ _______ _____ _____    ______ ____
ROOT
ATOM      1  C   UNL     1      -2.875  -4.115  -0.552  0.00  0.00    +0.020 A 
ATOM      2  C   UNL     1      -3.581  -4.585   0.543  0.00  0.00    +0.122 A 
ATOM      3  C   UNL     1      -4.862  -5.108   0.389  0.00  0.00    +0.050 A 
ATOM      4  C   UNL     1      -5.436  -5.163  -0.850  0.00  0.00    -0.033 A 
ATOM      5  C   UNL     1      -4.737  -4.694  -1.962  0.00  0.00    +0.071 A 
ATOM      6  C   UNL     1      -3.446  -4.159  -1.818  0.00  0.00    +0.145 A 
ATOM      7  O   UNL     1      -2.978  -3.768  -3.023  0.00  0.00    -0.451 OA
ATOM      8  C   UNL     1      -3.877  -3.996  -4.010  0.00  0.00    +0.176 C 
ATOM      9  C   UNL     1      -3.709  -3.715  -5.328  0.00  0.00    +0.058 C 
ATOM     10  C   UNL     1      -5.062  -4.613  -3.398  0.00  0.00    +0.232 C 
ATOM     11  O   UNL     1      -6.089  -4.968  -3.951  0.00  0.00    -0.283 OA
ATOM     12  C   UNL     1      -6.823  -5.731  -1.015  0.00  0.00    +0.045 C 
ENDROOT
BRANCH   9  13
ATOM     13  C   UNL     1      -2.398  -3.282  -5.825  0.00  0.00    -0.014 A 
ATOM     14  C   UNL     1      -2.301  -2.584  -7.035  0.00  0.00    +0.057 A 
ATOM     15  C   UNL     1      -1.065  -2.178  -7.499  0.00  0.00    +0.166 A 
ATOM     16  C   UNL     1       0.085  -2.463  -6.766  0.00  0.00    +0.204 A 
ATOM     17  C   UNL     1      -0.007  -3.158  -5.562  0.00  0.00    +0.166 A 
ATOM     18  C   UNL     1      -1.240  -3.562  -5.088  0.00  0.00    +0.057 A 
BRANCH  17  19
ATOM     19  O   UNL     1       1.118  -3.435  -4.850  0.00  0.00    -0.491 OA
ATOM     20  C   UNL     1       0.967  -4.257  -3.691  0.00  0.00    +0.277 C 
ENDBRANCH  17  19
BRANCH  16  21
ATOM     21  O   UNL     1       1.299  -2.062  -7.226  0.00  0.00    -0.488 OA
ATOM     22  C   UNL     1       1.752  -0.769  -6.820  0.00  0.00    +0.277 C 
ENDBRANCH  16  21
BRANCH  15  23
ATOM     23  O   UNL     1      -0.970  -1.500  -8.674  0.00  0.00    -0.491 OA
ATOM     24  C   UNL     1      -2.195  -1.145  -9.319  0.00  0.00    +0.277 C 
ENDBRANCH  15  23
ENDBRANCH   9  13
BRANCH   2  25
ATOM     25  O   UNL     1      -3.019  -4.535   1.778  0.00  0.00    -0.506 OA
ATOM     26  H   UNL     1      -3.200  -3.716   2.259  0.00  0.00    +0.292 HD
ENDBRANCH   2  25
BRANCH   1  27
ATOM     27  C   UNL     1      -1.489  -3.551  -0.370  0.00  0.00    -0.036 C 
BRANCH  27  28
ATOM     28  N   UNL     1      -1.565  -2.087  -0.278  0.00  0.00    +0.382 N 
ATOM     29  H   UNL     1      -2.026  -1.722  -1.098  0.00  0.00    -0.081 HD
BRANCH  28  31
ATOM     30  C   UNL     1      -2.512  -0.192   0.950  0.00  0.00    -0.017 C 
ATOM     31  C   UNL     1      -2.327  -1.710   0.920  0.00  0.00    -0.082 C 
ENDBRANCH  28  31
BRANCH  28  32
ATOM     32  C   UNL     1      -0.208  -1.532  -0.191  0.00  0.00    -0.082 C 
ATOM     33  C   UNL     1       0.537  -1.797  -1.500  0.00  0.00    -0.017 C 
ENDBRANCH  28  32
ENDBRANCH  27  28
ENDBRANCH   1  27
TORSDOF 9
