REMARK  Name = ZINC09257733
REMARK  11 active torsions:
REMARK  status: ('A' for Active; 'I' for Inactive)
REMARK    1  A    between atoms: C_1  and  O_2
REMARK    2  A    between atoms: O_2  and  C_3
REMARK    3  A    between atoms: C_6  and  C_9
REMARK    4  A    between atoms: C_9  and  C_11
REMARK    5  A    between atoms: C_9  and  N_66
REMARK    6  A    between atoms: C_11  and  N_12
REMARK    7  A    between atoms: C_13  and  C_15
REMARK    8  A    between atoms: C_19  and  S_21
REMARK    9  A    between atoms: S_21  and  N_24
REMARK   10  A    between atoms: N_24  and  C_25
REMARK   11  A    between atoms: C_25  and  C_26
REMARK                            x       y       z     vdW  Elec       q    Type
REMARK                         _______ _______ _______ _____ _____    ______ ____
ROOT
ATOM      1  N   UNL     1      -2.293  -0.570   0.753  0.00  0.00    -0.313 N 
ATOM      2  C   UNL     1      -2.174   0.640   1.334  0.00  0.00    +0.244 C 
ATOM      3  O   UNL     1      -3.147   1.177   1.825  0.00  0.00    -0.270 OA
ATOM      4  H   UNL     1      -1.516  -0.999   0.361  0.00  0.00    +0.149 HD
ENDROOT
BRANCH   2   5
ATOM      5  C   UNL     1      -0.859   1.314   1.374  0.00  0.00    +0.039 A 
ATOM      6  C   UNL     1       0.261   0.700   0.810  0.00  0.00    +0.013 A 
ATOM      7  C   UNL     1       1.484   1.337   0.846  0.00  0.00    +0.003 A 
ATOM      8  C   UNL     1       1.604   2.579   1.443  0.00  0.00    +0.028 A 
ATOM      9  C   UNL     1       0.499   3.191   2.008  0.00  0.00    +0.106 A 
ATOM     10  C   UNL     1      -0.730   2.565   1.979  0.00  0.00    +0.041 A 
BRANCH   9  11
ATOM     11  S   UNL     1       0.662   4.773   2.766  0.00  0.00    +0.059 S 
ATOM     12  O   UNL     1      -0.402   4.887   3.701  0.00  0.00    -0.153 OA
ATOM     13  O   UNL     1       2.026   4.904   3.144  0.00  0.00    -0.153 OA
BRANCH  11  14
ATOM     14  N   UNL     1       0.385   5.909   1.593  0.00  0.00    -0.183 NA
ATOM     15  H   UNL     1       1.098   6.505   1.317  0.00  0.00    +0.148 HD
BRANCH  14  16
ATOM     16  C   UNL     1      -0.938   6.013   0.973  0.00  0.00    +0.180 C 
BRANCH  16  17
ATOM     17  C   UNL     1      -1.044   7.321   0.231  0.00  0.00    +0.120 A 
ATOM     18  C   UNL     1      -0.714   7.524  -1.057  0.00  0.00    +0.046 A 
ATOM     19  C   UNL     1      -0.969   8.886  -1.336  0.00  0.00    +0.041 A 
ATOM     20  C   UNL     1      -1.440   9.434  -0.201  0.00  0.00    +0.195 A 
ATOM     21  O   UNL     1      -1.488   8.480   0.743  0.00  0.00    -0.466 OA
ENDBRANCH  16  17
ENDBRANCH  14  16
ENDBRANCH  11  14
ENDBRANCH   9  11
ENDBRANCH   2   5
BRANCH   1  22
ATOM     22  C   UNL     1      -3.596  -1.238   0.714  0.00  0.00    +0.094 C 
BRANCH  22  23
ATOM     23  C   UNL     1      -3.457  -2.587   0.004  0.00  0.00    -0.020 C 
BRANCH  23  29
ATOM     24  C   UNL     1      -3.725  -1.539  -2.161  0.00  0.00    -0.078 C 
ATOM     25  C   UNL     1      -3.012  -1.228  -3.479  0.00  0.00    -0.019 C 
ATOM     26  C   UNL     1      -2.691  -2.539  -4.202  0.00  0.00    -0.004 C 
ATOM     27  C   UNL     1      -1.833  -3.419  -3.290  0.00  0.00    -0.019 C 
ATOM     28  C   UNL     1      -2.581  -3.667  -1.977  0.00  0.00    -0.078 C 
ATOM     29  N   UNL     1      -2.837  -2.368  -1.319  0.00  0.00    +0.385 N 
ATOM     30  H   UNL     1      -1.945  -1.877  -1.192  0.00  0.00    -0.081 HD
ENDBRANCH  23  29
BRANCH  23  34
ATOM     31  C   UNL     1      -7.314  -4.378  -0.420  0.00  0.00    +0.120 A 
ATOM     32  C   UNL     1      -6.264  -5.108   0.118  0.00  0.00    +0.046 A 
ATOM     33  C   UNL     1      -5.018  -4.527   0.254  0.00  0.00    +0.005 A 
ATOM     34  C   UNL     1      -4.817  -3.219  -0.145  0.00  0.00    -0.059 A 
ATOM     35  C   UNL     1      -5.863  -2.487  -0.676  0.00  0.00    +0.005 A 
ATOM     36  C   UNL     1      -7.109  -3.066  -0.820  0.00  0.00    +0.046 A 
BRANCH  31  38
ATOM     37  C   UNL     1      -9.574  -4.137  -1.115  0.00  0.00    +0.277 C 
ATOM     38  O   UNL     1      -8.540  -4.948  -0.554  0.00  0.00    -0.495 OA
ENDBRANCH  31  38
ENDBRANCH  23  34
ENDBRANCH  22  23
ENDBRANCH   1  22
TORSDOF 10
