REMARK  Name = ZINC14545565
REMARK  9 active torsions:
REMARK  status: ('A' for Active; 'I' for Inactive)
REMARK    1  A    between atoms: C_1  and  C_2
REMARK    2  A    between atoms: C_2  and  O_3
REMARK    3  A    between atoms: O_3  and  C_4
REMARK    4  A    between atoms: C_9  and  C_10
REMARK    5  A    between atoms: C_23  and  C_26
REMARK    6  A    between atoms: N_28  and  C_29
REMARK    7  A    between atoms: C_29  and  C_30
REMARK    8  A    between atoms: C_29  and  C_31
REMARK    9  A    between atoms: C_29  and  C_32
REMARK                            x       y       z     vdW  Elec       q    Type
REMARK                         _______ _______ _______ _____ _____    ______ ____
ROOT
ATOM      1  C   UNL     1      -2.900   1.246   0.571  0.00  0.00    +0.108 C 
ATOM      2  C   UNL     1      -3.421   1.357  -0.863  0.00  0.00    +0.029 C 
ATOM      3  C   UNL     1      -4.037   2.773  -1.039  0.00  0.00    +0.033 C 
ATOM      4  C   UNL     1      -5.432   2.629  -0.463  0.00  0.00    -0.030 C 
ATOM      5  C   UNL     1      -5.795   1.371  -0.448  0.00  0.00    -0.023 C 
ATOM      6  C   UNL     1      -4.695   0.495  -1.001  0.00  0.00    +0.049 C 
ATOM      7  C   UNL     1      -4.586  -0.777  -0.211  0.00  0.00    -0.019 A 
ATOM      8  C   UNL     1      -5.593  -1.720  -0.357  0.00  0.00    +0.006 A 
ATOM      9  C   UNL     1      -5.560  -2.911   0.346  0.00  0.00    +0.001 A 
ATOM     10  C   UNL     1      -4.519  -3.179   1.208  0.00  0.00    +0.015 A 
ATOM     11  C   UNL     1      -3.497  -2.244   1.367  0.00  0.00    +0.058 A 
ATOM     12  C   UNL     1      -3.532  -1.033   0.648  0.00  0.00    +0.044 A 
ATOM     13  N   UNL     1      -2.492  -0.135   0.834  0.00  0.00    -0.336 N 
ATOM     14  H   UNL     1      -2.097  -0.226   1.758  0.00  0.00    +0.147 HD
ENDROOT
BRANCH   1  20
ATOM     15  C   UNL     1      -0.493   1.831   0.183  0.00  0.00    +0.125 A 
ATOM     16  C   UNL     1       0.597   2.673   0.352  0.00  0.00    +0.046 A 
ATOM     17  C   UNL     1       0.460   3.841   1.077  0.00  0.00    +0.004 A 
ATOM     18  C   UNL     1      -0.762   4.170   1.635  0.00  0.00    +0.001 A 
ATOM     19  C   UNL     1      -1.849   3.333   1.468  0.00  0.00    +0.009 A 
ATOM     20  C   UNL     1      -1.716   2.161   0.748  0.00  0.00    +0.015 A 
BRANCH  15  21
ATOM     21  O   UNL     1      -0.360   0.681  -0.529  0.00  0.00    -0.492 OA
BRANCH  21  23
ATOM     22  C   UNL     1       0.885  -0.923  -1.839  0.00  0.00    +0.048 C 
ATOM     23  C   UNL     1       0.930   0.402  -1.077  0.00  0.00    +0.225 C 
ENDBRANCH  21  23
ENDBRANCH  15  21
ENDBRANCH   1  20
BRANCH  11  24
ATOM     24  C   UNL     1      -2.378  -2.524   2.286  0.00  0.00    +0.246 C 
ATOM     25  O   UNL     1      -1.428  -1.767   2.335  0.00  0.00    -0.270 OA
ATOM     26  N   UNL     1      -2.410  -3.618   3.072  0.00  0.00    -0.307 N 
ATOM     27  H   UNL     1      -3.168  -4.222   3.033  0.00  0.00    +0.150 HD
BRANCH  26  28
ATOM     28  C   UNL     1      -1.298  -3.896   3.985  0.00  0.00    +0.026 C 
ATOM     29  C   UNL     1      -1.147  -2.737   4.972  0.00  0.00    +0.031 C 
ATOM     30  C   UNL     1      -1.582  -5.188   4.755  0.00  0.00    +0.031 C 
ATOM     31  C   UNL     1      -0.006  -4.055   3.182  0.00  0.00    +0.031 C 
ENDBRANCH  26  28
ENDBRANCH  11  24
TORSDOF 5
