REMARK  Name = ZINC14671964
REMARK  7 active torsions:
REMARK  status: ('A' for Active; 'I' for Inactive)
REMARK    1  A    between atoms: C_4  and  S_7
REMARK    2  A    between atoms: S_7  and  C_8
REMARK    3  A    between atoms: C_13  and  N_14
REMARK    4  A    between atoms: C_18  and  N_22
REMARK    5  A    between atoms: N_22  and  C_23
REMARK    6  A    between atoms: C_23  and  C_24
REMARK    7  A    between atoms: C_24  and  C_25
REMARK                            x       y       z     vdW  Elec       q    Type
REMARK                         _______ _______ _______ _____ _____    ______ ____
ROOT
ATOM      1  N   UNL     1       5.823  -3.143   0.235  0.00  0.00    -0.211 N 
ATOM      2  C   UNL     1       6.489  -2.857   1.361  0.00  0.00    +0.225 C 
ATOM      3  O   UNL     1       6.019  -2.873   2.478  0.00  0.00    -0.275 OA
ATOM      4  C   UNL     1       7.921  -2.510   1.017  0.00  0.00    +0.090 C 
ATOM      5  C   UNL     1       7.968  -2.647  -0.519  0.00  0.00    +0.026 C 
ATOM      6  C   UNL     1       6.558  -3.062  -0.881  0.00  0.00    +0.213 C 
ATOM      7  O   UNL     1       6.157  -3.284  -2.003  0.00  0.00    -0.277 OA
ENDROOT
BRANCH   1  13
ATOM      8  C   UNL     1       3.483  -2.522   0.103  0.00  0.00    +0.035 A 
ATOM      9  C   UNL     1       2.143  -2.887   0.089  0.00  0.00    +0.017 A 
ATOM     10  C   UNL     1       1.788  -4.217   0.203  0.00  0.00    +0.001 A 
ATOM     11  C   UNL     1       2.764  -5.189   0.331  0.00  0.00    +0.002 A 
ATOM     12  C   UNL     1       4.100  -4.835   0.346  0.00  0.00    +0.025 A 
ATOM     13  C   UNL     1       4.466  -3.503   0.227  0.00  0.00    +0.058 A 
BRANCH   8  14
ATOM     14  S   UNL     1       3.939  -0.827  -0.042  0.00  0.00    -0.088 S 
BRANCH  14  18
ATOM     15  C   UNL     1      -0.015   1.382   0.022  0.00  0.00    +0.000 A 
ATOM     16  C   UNL     1       0.604   1.040   1.211  0.00  0.00    +0.001 A 
ATOM     17  C   UNL     1       1.809   0.367   1.195  0.00  0.00    +0.015 A 
ATOM     18  C   UNL     1       2.401   0.032  -0.017  0.00  0.00    +0.013 A 
ATOM     19  C   UNL     1       1.776   0.377  -1.210  0.00  0.00    +0.015 A 
ATOM     20  C   UNL     1       0.571   1.051  -1.186  0.00  0.00    +0.001 A 
ENDBRANCH  14  18
ENDBRANCH   8  14
ENDBRANCH   1  13
BRANCH   5  21
ATOM     21  N   UNL     1       8.313  -1.363  -1.142  0.00  0.00    +0.387 N 
ATOM     22  H   UNL     1       7.578  -0.695  -0.965  0.00  0.00    -0.085 HD
ATOM     23  H   UNL     1       9.179  -1.022  -0.753  0.00  0.00    -0.085 HD
BRANCH  21  24
ATOM     24  C   UNL     1       8.467  -1.548  -2.591  0.00  0.00    -0.077 C 
BRANCH  24  25
ATOM     25  C   UNL     1       8.827  -0.210  -3.241  0.00  0.00    +0.018 C 
BRANCH  25  26
ATOM     26  C   UNL     1       8.985  -0.399  -4.727  0.00  0.00    -0.024 A 
ATOM     27  C   UNL     1      10.133  -0.628  -5.385  0.00  0.00    +0.087 A 
ATOM     28  N   UNL     1       9.886  -0.747  -6.726  0.00  0.00    -0.360 N 
ATOM     29  H   UNL     1      10.560  -0.913  -7.404  0.00  0.00    +0.165 HD
ATOM     30  C   UNL     1       8.540  -0.594  -6.970  0.00  0.00    +0.047 A 
ATOM     31  C   UNL     1       7.915  -0.376  -5.728  0.00  0.00    +0.003 A 
ATOM     32  C   UNL     1       6.533  -0.191  -5.666  0.00  0.00    +0.010 A 
ATOM     33  C   UNL     1       5.792  -0.226  -6.814  0.00  0.00    +0.001 A 
ATOM     34  C   UNL     1       6.403  -0.445  -8.041  0.00  0.00    +0.002 A 
ATOM     35  C   UNL     1       7.767  -0.620  -8.126  0.00  0.00    +0.026 A 
ENDBRANCH  25  26
ENDBRANCH  24  25
ENDBRANCH  21  24
ENDBRANCH   5  21
TORSDOF 7
