REMARK  Name = ZINC02699222
REMARK  9 active torsions:
REMARK  status: ('A' for Active; 'I' for Inactive)
REMARK    1  A    between atoms: C_1  and  C_2
REMARK    2  A    between atoms: C_6  and  C_33
REMARK    3  A    between atoms: C_7  and  N_8
REMARK    4  A    between atoms: N_8  and  C_9
REMARK    5  A    between atoms: C_10  and  S_23
REMARK    6  A    between atoms: C_11  and  N_22
REMARK    7  A    between atoms: C_12  and  C_14
REMARK    8  A    between atoms: C_14  and  C_16
REMARK    9  A    between atoms: S_23  and  C_26
REMARK                            x       y       z     vdW  Elec       q    Type
REMARK                         _______ _______ _______ _____ _____    ______ ____
ROOT
ATOM      1  C   UNL     1      -5.034   4.279   1.929  0.00  0.00    +0.098 A 
ATOM      2  C   UNL     1      -4.044   5.193   1.625  0.00  0.00    +0.143 A 
ATOM      3  C   UNL     1      -2.874   5.165   2.341  0.00  0.00    +0.070 A 
ATOM      4  C   UNL     1      -2.739   4.204   3.351  0.00  0.00    +0.084 A 
ATOM      5  S   UNL     1      -4.299   3.342   3.257  0.00  0.00    -0.066 S 
ENDROOT
BRANCH   3   6
ATOM      6  N   UNL     1      -1.850   6.066   2.071  0.00  0.00    -0.355 N 
ATOM      7  H   UNL     1      -1.028   6.035   2.585  0.00  0.00    +0.142 HD
ATOM      8  H   UNL     1      -1.958   6.726   1.368  0.00  0.00    +0.142 HD
ENDBRANCH   3   6
BRANCH   2   9
ATOM      9  S   UNL     1      -4.281   6.376   0.341  0.00  0.00    +0.029 S 
ATOM     10  O   UNL     1      -5.658   6.329  -0.007  0.00  0.00    -0.164 OA
ATOM     11  O   UNL     1      -3.644   7.572   0.768  0.00  0.00    -0.164 OA
BRANCH   9  12
ATOM     12  C   UNL     1      -3.387   5.804  -1.066  0.00  0.00    +0.094 A 
ATOM     13  C   UNL     1      -2.069   6.182  -1.248  0.00  0.00    +0.029 A 
ATOM     14  C   UNL     1      -1.366   5.729  -2.348  0.00  0.00    +0.022 A 
ATOM     15  C   UNL     1      -1.983   4.906  -3.273  0.00  0.00    +0.041 A 
ATOM     16  C   UNL     1      -3.303   4.532  -3.093  0.00  0.00    +0.022 A 
ATOM     17  C   UNL     1      -4.004   4.981  -1.990  0.00  0.00    +0.029 A 
ATOM     18 CL   UNL     1      -1.102   4.341  -4.658  0.00  0.00    -0.084 Cl
ENDBRANCH   9  12
ENDBRANCH   2   9
BRANCH   1  19
ATOM     19  N   UNL     1      -6.279   4.125   1.345  0.00  0.00    -0.307 N 
ATOM     20  H   UNL     1      -6.513   4.640   0.557  0.00  0.00    +0.153 HD
BRANCH  19  27
ATOM     21  C   UNL     1      -5.899   1.348   0.851  0.00  0.00    +0.045 C 
ATOM     22  C   UNL     1      -7.052   1.861   1.674  0.00  0.00    -0.029 A 
ATOM     23  C   UNL     1      -7.961   0.976   2.218  0.00  0.00    +0.005 A 
ATOM     24  C   UNL     1      -9.023   1.446   2.970  0.00  0.00    +0.001 A 
ATOM     25  C   UNL     1      -9.176   2.804   3.182  0.00  0.00    +0.005 A 
ATOM     26  C   UNL     1      -8.268   3.695   2.645  0.00  0.00    -0.029 A 
ATOM     27  C   UNL     1      -7.200   3.226   1.890  0.00  0.00    +0.038 A 
ATOM     28  C   UNL     1      -8.434   5.174   2.878  0.00  0.00    +0.045 C 
ENDBRANCH  19  27
ENDBRANCH   1  19
BRANCH   4  29
ATOM     29  C   UNL     1      -1.652   3.974   4.213  0.00  0.00    +0.202 C 
ATOM     30  O   UNL     1      -0.605   4.577   4.048  0.00  0.00    -0.286 OA
BRANCH  29  31
ATOM     31  C   UNL     1      -1.778   2.997   5.317  0.00  0.00    +0.023 A 
ATOM     32  C   UNL     1      -3.039   2.628   5.787  0.00  0.00    +0.012 A 
ATOM     33  C   UNL     1      -3.149   1.713   6.814  0.00  0.00    +0.001 A 
ATOM     34  C   UNL     1      -2.012   1.169   7.384  0.00  0.00    +0.000 A 
ATOM     35  C   UNL     1      -0.758   1.534   6.926  0.00  0.00    +0.001 A 
ATOM     36  C   UNL     1      -0.635   2.444   5.897  0.00  0.00    +0.012 A 
ENDBRANCH  29  31
ENDBRANCH   4  29
TORSDOF 7
