REMARK  Name = ZINC66836842
REMARK  8 active torsions:
REMARK  status: ('A' for Active; 'I' for Inactive)
REMARK    1  A    between atoms: C_1  and  C_2
REMARK    2  A    between atoms: C_5  and  N_8
REMARK    3  A    between atoms: C_10  and  C_15
REMARK    4  A    between atoms: N_17  and  C_18
REMARK    5  A    between atoms: C_18  and  C_19
REMARK    6  A    between atoms: C_19  and  C_20
REMARK    7  A    between atoms: C_20  and  N_21
REMARK    8  A    between atoms: C_25  and  C_28
REMARK                            x       y       z     vdW  Elec       q    Type
REMARK                         _______ _______ _______ _____ _____    ______ ____
ROOT
ATOM      1  C   UNL     1       3.055  -7.283  -0.359  0.00  0.00    +0.218 C 
ATOM      2  O   UNL     1       3.896  -6.959  -1.171  0.00  0.00    -0.275 OA
ATOM      3  N   UNL     1       2.814  -8.588  -0.123  0.00  0.00    -0.315 N 
ATOM      4  H   UNL     1       2.142  -8.847   0.527  0.00  0.00    +0.149 HD
ENDROOT
BRANCH   1   7
ATOM      5  N   UNL     1       1.499  -3.999  -0.034  0.00  0.00    -0.298 N 
ATOM      6  C   UNL     1       2.722  -4.811  -0.044  0.00  0.00    +0.121 C 
ATOM      7  C   UNL     1       2.280  -6.227   0.386  0.00  0.00    +0.101 C 
ATOM      8  C   UNL     1       0.791  -6.234  -0.032  0.00  0.00    +0.110 C 
ATOM      9  C   UNL     1       0.400  -4.772  -0.027  0.00  0.00    +0.217 C 
ATOM     10  O   UNL     1      -0.741  -4.359  -0.020  0.00  0.00    -0.276 OA
BRANCH   5  15
ATOM     11  C   UNL     1      -0.019   1.526   0.010  0.00  0.00    +0.007 C 
ATOM     12  C   UNL     1       0.002  -0.004   0.002  0.00  0.00    -0.014 C 
ATOM     13  C   UNL     1       0.718  -0.497  -1.257  0.00  0.00    +0.005 C 
ATOM     14  C   UNL     1       0.739  -2.027  -1.265  0.00  0.00    +0.023 C 
ATOM     15  C   UNL     1       1.479  -2.534  -0.026  0.00  0.00    +0.076 C 
ATOM     16  C   UNL     1       0.763  -2.041   1.233  0.00  0.00    +0.023 C 
ATOM     17  C   UNL     1       0.742  -0.511   1.242  0.00  0.00    +0.005 C 
ENDBRANCH   5  15
ENDBRANCH   1   7
BRANCH   3  18
ATOM     18  C   UNL     1       3.568  -9.615  -0.847  0.00  0.00    +0.102 C 
BRANCH  18  19
ATOM     19  C   UNL     1       3.104 -11.001  -0.395  0.00  0.00    +0.000 C 
BRANCH  19  20
ATOM     20  C   UNL     1       3.891 -12.073  -1.151  0.00  0.00    -0.077 C 
BRANCH  20  21
ATOM     21  N   UNL     1       3.446 -13.404  -0.718  0.00  0.00    +0.380 N 
ATOM     22  C   UNL     1       3.779 -13.593   0.699  0.00  0.00    -0.079 C 
ATOM     23  C   UNL     1       3.245 -14.945   1.177  0.00  0.00    -0.018 C 
ATOM     24  C   UNL     1       3.885 -16.062   0.347  0.00  0.00    +0.009 C 
ATOM     25  C   UNL     1       3.594 -15.815  -1.136  0.00  0.00    +0.058 C 
ATOM     26  C   UNL     1       4.114 -14.430  -1.528  0.00  0.00    -0.066 C 
ATOM     27  H   UNL     1       2.447 -13.480  -0.840  0.00  0.00    -0.082 HD
BRANCH  25  28
ATOM     28  C   UNL     1       4.282 -16.866  -1.967  0.00  0.00    +0.212 C 
ATOM     29  O   UNL     1       5.107 -16.541  -2.795  0.00  0.00    -0.276 OA
ATOM     30  N   UNL     1       3.983 -18.168  -1.790  0.00  0.00    -0.329 N 
ATOM     31  H   UNL     1       3.323 -18.428  -1.127  0.00  0.00    +0.145 HD
ATOM     32  H   UNL     1       4.426 -18.845  -2.325  0.00  0.00    +0.145 HD
ENDBRANCH  25  28
ENDBRANCH  20  21
ENDBRANCH  19  20
ENDBRANCH  18  19
ENDBRANCH   3  18
TORSDOF 7
