REMARK  Name = ZINC17511525
REMARK  5 active torsions:
REMARK  status: ('A' for Active; 'I' for Inactive)
REMARK    1  A    between atoms: C_1  and  C_2
REMARK    2  A    between atoms: C_6  and  C_13
REMARK    3  A    between atoms: C_9  and  O_11
REMARK    4  A    between atoms: O_11  and  C_12
REMARK    5  A    between atoms: C_16  and  O_19
REMARK                            x       y       z     vdW  Elec       q    Type
REMARK                         _______ _______ _______ _____ _____    ______ ____
ROOT
ATOM      1  C   UNL     1       0.029   1.503   0.006  0.00  0.00    +0.066 C 
ATOM      2  C   UNL     1       0.025  -0.004  -0.000  0.00  0.00    +0.050 C 
ATOM      3  N   UNL     1      -0.071  -0.623  -1.134  0.00  0.00    -0.250 NA
ATOM      4  C   UNL     1      -0.090  -1.986  -1.325  0.00  0.00    +0.095 C 
ATOM      5  C   UNL     1      -0.002  -2.780  -0.243  0.00  0.00    +0.109 C 
ATOM      6  C   UNL     1       0.115  -2.206   1.141  0.00  0.00    +0.108 C 
ATOM      7  C   UNL     1       0.131  -0.687   1.227  0.00  0.00    +0.070 C 
ATOM      8  C   UNL     1       0.236  -0.030   2.413  0.00  0.00    +0.338 C 
ATOM      9  O   UNL     1       0.459  -0.723   3.550  0.00  0.00    -0.245 OA
ATOM     10  S   UNL     1      -0.059  -4.438  -0.868  0.00  0.00    +0.025 S 
ATOM     11  O   UNL     1      -1.282  -5.023  -0.442  0.00  0.00    -0.165 OA
ATOM     12  O   UNL     1       1.214  -5.030  -0.649  0.00  0.00    -0.165 OA
ATOM     13  C   UNL     1      -0.202  -4.071  -2.598  0.00  0.00    +0.103 A 
ATOM     14  C   UNL     1      -0.202  -2.677  -2.643  0.00  0.00    +0.027 A 
ATOM     15  C   UNL     1      -0.306  -2.078  -3.912  0.00  0.00    +0.012 A 
ATOM     16  C   UNL     1      -0.402  -2.853  -5.044  0.00  0.00    +0.001 A 
ATOM     17  C   UNL     1      -0.400  -4.234  -4.965  0.00  0.00    +0.002 A 
ATOM     18  C   UNL     1      -0.298  -4.842  -3.723  0.00  0.00    +0.028 A 
ENDROOT
BRANCH   6  19
ATOM     19  C   UNL     1      -1.044  -2.712   1.961  0.00  0.00    -0.034 A 
ATOM     20  C   UNL     1      -2.340  -2.437   1.568  0.00  0.00    +0.008 A 
ATOM     21  C   UNL     1      -3.404  -2.899   2.318  0.00  0.00    +0.046 A 
ATOM     22  C   UNL     1      -3.171  -3.641   3.466  0.00  0.00    +0.117 A 
ATOM     23  C   UNL     1      -1.869  -3.917   3.859  0.00  0.00    +0.046 A 
ATOM     24  C   UNL     1      -0.808  -3.457   3.102  0.00  0.00    +0.008 A 
BRANCH  22  25
ATOM     25  O   UNL     1      -4.215  -4.097   4.206  0.00  0.00    -0.507 OA
ATOM     26  H   UNL     1      -4.532  -4.972   3.943  0.00  0.00    +0.292 HD
ENDBRANCH  22  25
ENDBRANCH   6  19
BRANCH   8  27
ATOM     27  O   UNL     1       0.119   1.314   2.453  0.00  0.00    -0.465 OA
ATOM     28  C   UNL     1       0.241   1.938   3.733  0.00  0.00    +0.280 C 
ENDBRANCH   8  27
TORSDOF 3
