REMARK  Name = ZINC04843384
REMARK  8 active torsions:
REMARK  status: ('A' for Active; 'I' for Inactive)
REMARK    1  A    between atoms: C_1  and  C_2
REMARK    2  A    between atoms: C_3  and  C_7
REMARK    3  A    between atoms: C_10  and  S_18
REMARK    4  A    between atoms: N_11  and  C_12
REMARK    5  A    between atoms: S_18  and  C_19
REMARK    6  A    between atoms: C_19  and  C_21
REMARK    7  A    between atoms: C_19  and  C_22
REMARK    8  A    between atoms: N_27  and  C_28
REMARK                            x       y       z     vdW  Elec       q    Type
REMARK                         _______ _______ _______ _____ _____    ______ ____
ROOT
ATOM      1  C   UNL     1       1.704  -2.903  -1.023  0.00  0.00    +0.173 A 
ATOM      2  N   UNL     1       1.536  -4.140  -0.617  0.00  0.00    -0.128 NA
ATOM      3  N   UNL     1       1.004  -4.151   0.552  0.00  0.00    -0.122 NA
ATOM      4  C   UNL     1       0.804  -2.923   0.971  0.00  0.00    +0.197 A 
ATOM      5  N   UNL     1       1.237  -2.082  -0.021  0.00  0.00    -0.270 N 
ENDROOT
BRANCH   1   8
ATOM      6  C   UNL     1       2.777  -4.776  -3.296  0.00  0.00    +0.087 C 
ATOM      7  C   UNL     1       2.754  -3.270  -3.310  0.00  0.00    +0.112 A 
ATOM      8  C   UNL     1       2.284  -2.472  -2.313  0.00  0.00    +0.060 A 
ATOM      9  C   UNL     1       2.478  -1.094  -2.782  0.00  0.00    +0.053 A 
ATOM     10  C   UNL     1       3.033  -1.191  -4.001  0.00  0.00    +0.196 A 
ATOM     11  O   UNL     1       3.190  -2.488  -4.309  0.00  0.00    -0.467 OA
ENDBRANCH   1   8
BRANCH   5  12
ATOM     12  C   UNL     1       1.214  -0.680  -0.013  0.00  0.00    +0.051 A 
ATOM     13  C   UNL     1       0.002  -0.004   0.002  0.00  0.00    +0.026 A 
ATOM     14  C   UNL     1      -0.017   1.377   0.010  0.00  0.00    +0.002 A 
ATOM     15  C   UNL     1       1.171   2.086   0.002  0.00  0.00    +0.000 A 
ATOM     16  C   UNL     1       2.380   1.415  -0.013  0.00  0.00    +0.002 A 
ATOM     17  C   UNL     1       2.405   0.034  -0.021  0.00  0.00    +0.026 A 
ENDBRANCH   5  12
BRANCH   4  18
ATOM     18  S   UNL     1       0.105  -2.445   2.516  0.00  0.00    -0.073 S 
BRANCH  18  19
ATOM     19  C   UNL     1      -0.198  -4.075   3.241  0.00  0.00    +0.137 C 
ATOM     20  C   UNL     1       1.137  -4.783   3.480  0.00  0.00    +0.029 C 
BRANCH  19  21
ATOM     21  C   UNL     1      -0.923  -3.915   4.553  0.00  0.00    +0.233 C 
ATOM     22  O   UNL     1      -0.893  -2.852   5.136  0.00  0.00    -0.274 OA
ATOM     23  N   UNL     1      -1.605  -4.952   5.077  0.00  0.00    -0.239 N 
ATOM     24  C   UNL     1      -2.254  -4.809   6.249  0.00  0.00    +0.306 C 
ATOM     25  O   UNL     1      -2.223  -3.744   6.834  0.00  0.00    -0.252 OA
ATOM     26  N   UNL     1      -2.936  -5.846   6.774  0.00  0.00    -0.302 N 
ATOM     27  C   UNL     1      -3.641  -5.690   8.048  0.00  0.00    +0.129 C 
ATOM     28  H   UNL     1      -1.629  -5.802   4.610  0.00  0.00    +0.159 HD
ATOM     29  H   UNL     1      -2.960  -6.696   6.307  0.00  0.00    +0.150 HD
ENDBRANCH  19  21
ENDBRANCH  18  19
ENDBRANCH   4  18
TORSDOF 5
