REMARK  Name = ZINC16806758
REMARK  7 active torsions:
REMARK  status: ('A' for Active; 'I' for Inactive)
REMARK    1  A    between atoms: C_1  and  O_2
REMARK    2  A    between atoms: O_2  and  C_3
REMARK    3  A    between atoms: C_5  and  C_10
REMARK    4  A    between atoms: C_8  and  O_9
REMARK    5  A    between atoms: N_14  and  C_25
REMARK    6  A    between atoms: N_16  and  N_17
REMARK    7  A    between atoms: N_17  and  C_18
REMARK                            x       y       z     vdW  Elec       q    Type
REMARK                         _______ _______ _______ _____ _____    ______ ____
ROOT
ATOM      1  C   UNL     1      -1.145   5.213   0.174  0.00  0.00    +0.028 C 
ATOM      2  C   UNL     1      -0.592   3.975   0.114  0.00  0.00    +0.079 C 
ATOM      3  C   UNL     1       0.808   3.589  -0.149  0.00  0.00    +0.263 C 
ATOM      4  O   UNL     1       1.669   4.424  -0.355  0.00  0.00    -0.269 OA
ATOM      5  N   UNL     1       1.085   2.296  -0.152  0.00  0.00    -0.213 N 
ATOM      6  C   UNL     1       0.083   1.363   0.085  0.00  0.00    +0.190 C 
ATOM      7  N   UNL     1       0.176   0.064   0.119  0.00  0.00    -0.159 NA
ATOM      8  S   UNL     1      -1.366   2.379   0.325  0.00  0.00    -0.047 S 
ENDROOT
BRANCH   1  11
ATOM      9  C   UNL     1      -4.516   6.644   0.984  0.00  0.00    +0.162 A 
ATOM     10  C   UNL     1      -3.145   6.510   0.879  0.00  0.00    +0.057 A 
ATOM     11  C   UNL     1      -2.601   5.362   0.290  0.00  0.00    -0.020 A 
ATOM     12  C   UNL     1      -3.450   4.360  -0.194  0.00  0.00    +0.012 A 
ATOM     13  C   UNL     1      -4.816   4.500  -0.080  0.00  0.00    +0.050 A 
ATOM     14  C   UNL     1      -5.354   5.638   0.505  0.00  0.00    +0.158 A 
BRANCH   9  16
ATOM     15  C   UNL     1      -4.131   8.747   2.025  0.00  0.00    +0.277 C 
ATOM     16  O   UNL     1      -5.048   7.757   1.556  0.00  0.00    -0.491 OA
ENDBRANCH   9  16
BRANCH  14  17
ATOM     17  O   UNL     1      -6.702   5.773   0.610  0.00  0.00    -0.503 OA
ATOM     18  H   UNL     1      -7.115   6.207  -0.150  0.00  0.00    +0.292 HD
ENDBRANCH  14  17
ENDBRANCH   1  11
BRANCH   5  19
ATOM     19  C   UNL     1       2.395   1.865  -0.396  0.00  0.00    +0.044 A 
ATOM     20  C   UNL     1       2.959   2.029  -1.655  0.00  0.00    +0.024 A 
ATOM     21  C   UNL     1       4.253   1.607  -1.890  0.00  0.00    +0.002 A 
ATOM     22  C   UNL     1       4.983   1.012  -0.877  0.00  0.00    +0.000 A 
ATOM     23  C   UNL     1       4.423   0.844   0.376  0.00  0.00    +0.002 A 
ATOM     24  C   UNL     1       3.131   1.268   0.619  0.00  0.00    +0.024 A 
ENDBRANCH   5  19
BRANCH   7  25
ATOM     25  N   UNL     1      -0.960  -0.713   0.377  0.00  0.00    -0.236 N 
ATOM     26  H   UNL     1      -1.817  -0.284   0.531  0.00  0.00    +0.174 HD
BRANCH  25  27
ATOM     27  C   UNL     1      -0.861  -2.102   0.414  0.00  0.00    +0.048 A 
ATOM     28  C   UNL     1       0.365  -2.719   0.189  0.00  0.00    +0.025 A 
ATOM     29  C   UNL     1       0.462  -4.096   0.232  0.00  0.00    +0.002 A 
ATOM     30  C   UNL     1      -0.662  -4.862   0.486  0.00  0.00    +0.000 A 
ATOM     31  C   UNL     1      -1.884  -4.252   0.705  0.00  0.00    +0.002 A 
ATOM     32  C   UNL     1      -1.987  -2.876   0.670  0.00  0.00    +0.025 A 
ENDBRANCH  25  27
ENDBRANCH   7  25
TORSDOF 6
