REMARK  Name = ZINC00896945
REMARK  2 active torsions:
REMARK  status: ('A' for Active; 'I' for Inactive)
REMARK    1  A    between atoms: C_7  and  O_22
REMARK    2  A    between atoms: C_9  and  O_21
REMARK                            x       y       z     vdW  Elec       q    Type
REMARK                         _______ _______ _______ _____ _____    ______ ____
ROOT
ATOM      1  C   UNL     1      -3.600   3.454  -0.137  0.00  0.00    +0.000 A 
ATOM      2  C   UNL     1      -3.307   2.507  -1.102  0.00  0.00    +0.002 A 
ATOM      3  C   UNL     1      -2.120   1.811  -1.021  0.00  0.00    +0.024 A 
ATOM      4  C   UNL     1      -1.227   2.053   0.019  0.00  0.00    +0.048 A 
ATOM      5  C   UNL     1      -1.524   2.969   1.018  0.00  0.00    +0.005 A 
ATOM      6  C   UNL     1      -2.723   3.678   0.913  0.00  0.00    +0.008 A 
ATOM      7  C   UNL     1      -0.699   3.303   2.242  0.00  0.00    +0.179 C 
ATOM      8  C   UNL     1       0.576   2.483   2.338  0.00  0.00    +0.179 C 
ATOM      9  C   UNL     1       1.486   2.740   1.165  0.00  0.00    +0.005 A 
ATOM     10  C   UNL     1       2.603   3.540   1.250  0.00  0.00    +0.008 A 
ATOM     11  C   UNL     1       3.431   3.647   0.142  0.00  0.00    +0.000 A 
ATOM     12  C   UNL     1       3.136   2.963  -1.023  0.00  0.00    +0.002 A 
ATOM     13  C   UNL     1       2.000   2.175  -1.105  0.00  0.00    +0.024 A 
ATOM     14  C   UNL     1       1.175   2.086   0.002  0.00  0.00    +0.048 A 
ATOM     15  N   UNL     1      -0.016   1.344   0.009  0.00  0.00    -0.224 N 
ATOM     16  C   UNL     1       0.002  -0.004   0.002  0.00  0.00    +0.308 C 
ATOM     17  O   UNL     1       1.063  -0.598  -0.011  0.00  0.00    -0.252 OA
ATOM     18  N   UNL     1      -1.156  -0.694   0.009  0.00  0.00    -0.313 N 
ATOM     19  H   UNL     1      -2.002  -0.220   0.020  0.00  0.00    +0.147 HD
ATOM     20  H   UNL     1      -1.143  -1.664   0.004  0.00  0.00    +0.147 HD
ENDROOT
BRANCH   8  21
ATOM     21  O   UNL     1       0.237   1.095   2.371  0.00  0.00    -0.384 OA
ATOM     22  H   UNL     1       0.999   0.507   2.463  0.00  0.00    +0.210 HD
ENDBRANCH   8  21
BRANCH   7  23
ATOM     23  O   UNL     1      -0.354   4.689   2.202  0.00  0.00    -0.384 OA
ATOM     24  H   UNL     1      -1.115   5.282   2.140  0.00  0.00    +0.210 HD
ENDBRANCH   7  23
TORSDOF 2
