REMARK  Name = ZINC39461589
REMARK  10 active torsions:
REMARK  status: ('A' for Active; 'I' for Inactive)
REMARK    1  A    between atoms: C_1  and  C_2
REMARK    2  A    between atoms: C_2  and  C_19
REMARK    3  A    between atoms: N_5  and  C_9
REMARK    4  A    between atoms: C_9  and  C_10
REMARK    5  A    between atoms: C_10  and  C_11
REMARK    6  A    between atoms: C_14  and  O_17
REMARK    7  A    between atoms: O_17  and  C_18
REMARK    8  A    between atoms: N_22  and  C_25
REMARK    9  A    between atoms: C_25  and  C_26
REMARK   10  A    between atoms: C_31  and  C_32
REMARK                            x       y       z     vdW  Elec       q    Type
REMARK                         _______ _______ _______ _____ _____    ______ ____
ROOT
ATOM      1  C   UNL     1      -0.019   1.526   0.010  0.00  0.00    +0.042 C 
ATOM      2  C   UNL     1       0.002  -0.004   0.002  0.00  0.00    +0.112 C 
ATOM      3  C   UNL     1       0.815  -0.520  -1.169  0.00  0.00    +0.247 C 
ATOM      4  O   UNL     1       0.595  -0.342  -2.348  0.00  0.00    -0.273 OA
ATOM      5  N   UNL     1       1.833  -1.217  -0.627  0.00  0.00    -0.224 N 
ATOM      6  C   UNL     1       1.777  -1.214   0.710  0.00  0.00    +0.309 C 
ATOM      7  O   UNL     1       2.586  -1.776   1.421  0.00  0.00    -0.252 OA
ATOM      8  N   UNL     1       0.724  -0.519   1.178  0.00  0.00    -0.285 N 
ATOM      9  H   UNL     1       0.487  -0.383   2.109  0.00  0.00    +0.151 HD
ENDROOT
BRANCH   2  10
ATOM     10  C   UNL     1      -1.423  -0.560  -0.041  0.00  0.00    +0.018 C 
ATOM     11  C   UNL     1      -2.083  -0.176  -1.368  0.00  0.00    -0.013 C 
ATOM     12  C   UNL     1      -3.532  -0.666  -1.371  0.00  0.00    -0.078 C 
ATOM     13  N   UNL     1      -4.265  -0.045  -0.262  0.00  0.00    +0.380 N 
ATOM     14  C   UNL     1      -3.682  -0.466   1.018  0.00  0.00    -0.078 C 
ATOM     15  C   UNL     1      -2.238   0.032   1.113  0.00  0.00    -0.013 C 
ATOM     16  H   UNL     1      -4.207   0.959  -0.343  0.00  0.00    -0.082 HD
BRANCH  13  17
ATOM     17  C   UNL     1      -5.674  -0.458  -0.316  0.00  0.00    -0.063 C 
BRANCH  17  18
ATOM     18  C   UNL     1      -6.464   0.285   0.763  0.00  0.00    +0.066 C 
ATOM     19  C   UNL     1      -6.561   1.762   0.433  0.00  0.00    +0.115 C 
ATOM     20  N   UNL     1      -7.822   2.017   0.299  0.00  0.00    -0.161 NA
ATOM     21  N   UNL     1      -8.617   0.893   0.497  0.00  0.00    -0.153 NA
ATOM     22  C   UNL     1      -7.910  -0.171   0.776  0.00  0.00    +0.077 C 
BRANCH  22  23
ATOM     23  C   UNL     1      -8.410  -1.529   1.046  0.00  0.00    -0.001 A 
ATOM     24  C   UNL     1      -7.514  -2.563   1.334  0.00  0.00    +0.010 A 
ATOM     25  C   UNL     1      -7.990  -3.833   1.585  0.00  0.00    +0.001 A 
ATOM     26  C   UNL     1      -9.350  -4.085   1.552  0.00  0.00    +0.000 A 
ATOM     27  C   UNL     1     -10.243  -3.066   1.266  0.00  0.00    +0.001 A 
ATOM     28  C   UNL     1      -9.783  -1.790   1.020  0.00  0.00    +0.010 A 
ENDBRANCH  22  23
ENDBRANCH  17  18
ENDBRANCH  13  17
ENDBRANCH   2  10
BRANCH   5  29
ATOM     29  C   UNL     1       2.871  -1.896  -1.406  0.00  0.00    +0.122 C 
BRANCH  29  30
ATOM     30  C   UNL     1       4.037  -0.936  -1.647  0.00  0.00    +0.054 C 
BRANCH  30  31
ATOM     31  C   UNL     1       5.106  -1.634  -2.448  0.00  0.00    -0.046 A 
ATOM     32  C   UNL     1       6.109  -2.331  -1.800  0.00  0.00    +0.007 A 
ATOM     33  C   UNL     1       7.090  -2.972  -2.532  0.00  0.00    +0.046 A 
ATOM     34  C   UNL     1       7.068  -2.916  -3.918  0.00  0.00    +0.120 A 
ATOM     35  C   UNL     1       6.060  -2.216  -4.566  0.00  0.00    +0.046 A 
ATOM     36  C   UNL     1       5.078  -1.581  -3.829  0.00  0.00    +0.007 A 
BRANCH  34  37
ATOM     37  O   UNL     1       8.032  -3.545  -4.641  0.00  0.00    -0.495 OA
ATOM     38  C   UNL     1       7.946  -3.444  -6.063  0.00  0.00    +0.277 C 
ENDBRANCH  34  37
ENDBRANCH  30  31
ENDBRANCH  29  30
ENDBRANCH   5  29
TORSDOF 8
