REMARK  Name = ZINC07216637
REMARK  11 active torsions:
REMARK  status: ('A' for Active; 'I' for Inactive)
REMARK    1  A    between atoms: C_1  and  C_2
REMARK    2  A    between atoms: C_2  and  N_3
REMARK    3  A    between atoms: N_3  and  C_4
REMARK    4  A    between atoms: N_3  and  S_16
REMARK    5  A    between atoms: C_4  and  C_5
REMARK    6  A    between atoms: N_7  and  C_8
REMARK    7  A    between atoms: S_16  and  C_19
REMARK    8  A    between atoms: C_20  and  C_28
REMARK    9  A    between atoms: C_21  and  C_27
REMARK   10  A    between atoms: C_23  and  C_26
REMARK   11  A    between atoms: C_24  and  C_25
REMARK                            x       y       z     vdW  Elec       q    Type
REMARK                         _______ _______ _______ _____ _____    ______ ____
ROOT
ATOM      1  N   UNL     1       0.949   0.166  -0.969  0.00  0.00    -0.168 NA
ENDROOT
BRANCH   1   2
ATOM      2  S   UNL     1       0.154  -0.659  -2.165  0.00  0.00    +0.062 S 
ATOM      3  O   UNL     1       1.064  -1.630  -2.662  0.00  0.00    -0.153 OA
ATOM      4  O   UNL     1      -1.120  -1.006  -1.641  0.00  0.00    -0.153 OA
BRANCH   2   5
ATOM      5  C   UNL     1      -0.135   0.479  -3.479  0.00  0.00    +0.112 A 
ATOM      6  C   UNL     1       0.762   0.567  -4.527  0.00  0.00    -0.021 A 
ATOM      7  C   UNL     1       0.535   1.460  -5.558  0.00  0.00    -0.045 A 
ATOM      8  C   UNL     1      -0.589   2.264  -5.540  0.00  0.00    +0.007 A 
ATOM      9  C   UNL     1      -1.487   2.176  -4.493  0.00  0.00    -0.045 A 
ATOM     10  C   UNL     1      -1.262   1.280  -3.464  0.00  0.00    -0.021 A 
ATOM     11  C   UNL     1      -2.243   1.179  -2.325  0.00  0.00    +0.046 C 
ATOM     12  C   UNL     1      -2.712   3.053  -4.474  0.00  0.00    +0.044 C 
ATOM     13  C   UNL     1       1.513   1.557  -6.700  0.00  0.00    +0.044 C 
ATOM     14  C   UNL     1       1.987  -0.309  -4.545  0.00  0.00    +0.046 C 
ENDBRANCH   2   5
ENDBRANCH   1   2
BRANCH   1  16
ATOM     15  C   UNL     1       0.239   2.472  -0.569  0.00  0.00    +0.022 C 
ATOM     16  C   UNL     1       0.201   1.032  -0.054  0.00  0.00    +0.106 C 
ENDBRANCH   1  16
BRANCH   1  17
ATOM     17  C   UNL     1       2.400   0.030  -0.826  0.00  0.00    +0.205 C 
BRANCH  17  18
ATOM     18  C   UNL     1       2.707  -1.036   0.196  0.00  0.00    +0.229 C 
ATOM     19  O   UNL     1       1.801  -1.623   0.749  0.00  0.00    -0.274 OA
ATOM     20  N   UNL     1       3.986  -1.335   0.494  0.00  0.00    -0.310 N 
ATOM     21  H   UNL     1       4.710  -0.865   0.051  0.00  0.00    +0.149 HD
BRANCH  20  22
ATOM     22  C   UNL     1       4.284  -2.371   1.486  0.00  0.00    +0.095 C 
ATOM     23  C   UNL     1       4.290  -1.754   2.895  0.00  0.00    +0.046 C 
ATOM     24  C   UNL     1       4.910  -2.750   3.904  0.00  0.00    +0.168 C 
ATOM     25  S   UNL     1       6.060  -3.727   2.853  0.00  0.00    -0.029 S 
ATOM     26  O   UNL     1       7.398  -3.414   3.217  0.00  0.00    -0.174 OA
ATOM     27  O   UNL     1       5.637  -5.083   2.842  0.00  0.00    -0.174 OA
ATOM     28  C   UNL     1       5.693  -2.970   1.214  0.00  0.00    +0.188 C 
ENDBRANCH  20  22
ENDBRANCH  17  18
ENDBRANCH   1  17
TORSDOF 6
