REMARK  Name = ZINC39666192
REMARK  13 active torsions:
REMARK  status: ('A' for Active; 'I' for Inactive)
REMARK    1  A    between atoms: C_1  and  C_2
REMARK    2  A    between atoms: C_5  and  O_8
REMARK    3  A    between atoms: O_8  and  C_9
REMARK    4  A    between atoms: C_9  and  C_11
REMARK    5  A    between atoms: C_9  and  C_12
REMARK    6  A    between atoms: C_12  and  N_13
REMARK    7  A    between atoms: C_14  and  C_16
REMARK    8  A    between atoms: C_27  and  C_29
REMARK    9  A    between atoms: C_31  and  C_38
REMARK   10  A    between atoms: N_33  and  C_34
REMARK   11  A    between atoms: C_34  and  C_35
REMARK   12  A    between atoms: C_34  and  C_36
REMARK   13  A    between atoms: C_34  and  C_37
REMARK                            x       y       z     vdW  Elec       q    Type
REMARK                         _______ _______ _______ _____ _____    ______ ____
ROOT
ATOM      1  C   UNL     1       8.003  -7.925   1.612  0.00  0.00    +0.100 C 
ATOM      2  C   UNL     1       7.346  -7.078   0.499  0.00  0.00    +0.121 C 
ATOM      3  N   UNL     1       8.104  -7.418  -0.728  0.00  0.00    -0.295 N 
ATOM      4  C   UNL     1       8.349  -8.876  -0.618  0.00  0.00    +0.115 C 
ATOM      5  C   UNL     1       8.660  -9.104   0.875  0.00  0.00    -0.004 C 
ATOM      6  C   UNL     1       8.054 -10.424   1.344  0.00  0.00    -0.010 C 
ATOM      7  C   UNL     1       8.762 -11.584   0.640  0.00  0.00    -0.082 C 
ATOM      8  N   UNL     1      10.197 -11.544   0.950  0.00  0.00    +0.379 N 
ATOM      9  C   UNL     1      10.791 -10.314   0.413  0.00  0.00    -0.082 C 
ATOM     10  C   UNL     1      10.168  -9.099   1.107  0.00  0.00    -0.010 C 
ATOM     11  C   UNL     1       8.486  -6.589  -1.719  0.00  0.00    +0.265 C 
ATOM     12  O   UNL     1       9.141  -7.016  -2.651  0.00  0.00    -0.268 OA
ATOM     13  H   UNL     1      10.324 -11.569   1.950  0.00  0.00    -0.086 HD
ATOM     14  H   UNL     1      10.652 -12.344   0.535  0.00  0.00    -0.086 HD
ENDROOT
BRANCH  11  15
ATOM     15  C   UNL     1       8.111  -5.167  -1.675  0.00  0.00    +0.124 A 
ATOM     16  C   UNL     1       7.278  -4.556  -0.753  0.00  0.00    +0.057 A 
ATOM     17  C   UNL     1       7.234  -3.211  -1.128  0.00  0.00    +0.061 A 
ATOM     18  N   UNL     1       7.987  -3.066  -2.188  0.00  0.00    -0.175 NA
ATOM     19  N   UNL     1       8.519  -4.184  -2.531  0.00  0.00    -0.254 N 
ATOM     20  C   UNL     1       6.456  -2.122  -0.436  0.00  0.00    +0.067 C 
BRANCH  19  21
ATOM     21  C   UNL     1       9.421  -4.376  -3.668  0.00  0.00    +0.056 C 
ATOM     22  C   UNL     1       8.900  -5.516  -4.546  0.00  0.00    +0.036 C 
ATOM     23  C   UNL     1       9.487  -3.088  -4.491  0.00  0.00    +0.036 C 
ATOM     24  C   UNL     1      10.820  -4.726  -3.156  0.00  0.00    +0.036 C 
ENDBRANCH  19  21
ENDBRANCH  11  15
BRANCH   1  26
ATOM     25  N   UNL     1       7.308  -8.755   3.836  0.00  0.00    -0.312 N 
ATOM     26  C   UNL     1       6.959  -8.425   2.577  0.00  0.00    +0.218 C 
ATOM     27  O   UNL     1       5.805  -8.530   2.220  0.00  0.00    -0.275 OA
ATOM     28  H   UNL     1       8.216  -8.601   4.144  0.00  0.00    +0.149 HD
BRANCH  25  29
ATOM     29  C   UNL     1       6.318  -9.344   4.740  0.00  0.00    +0.148 C 
BRANCH  29  30
ATOM     30  C   UNL     1       6.968  -9.622   6.097  0.00  0.00    +0.187 C 
ATOM     31  C   UNL     1       5.971 -10.350   7.001  0.00  0.00    +0.053 C 
BRANCH  30  32
ATOM     32  O   UNL     1       7.347  -8.385   6.706  0.00  0.00    -0.488 OA
BRANCH  32  37
ATOM     33  C   UNL     1      11.474  -8.579  10.534  0.00  0.00    +0.044 C 
ATOM     34  C   UNL     1      10.369  -8.527   9.510  0.00  0.00    -0.050 A 
ATOM     35  C   UNL     1       9.803  -9.700   9.046  0.00  0.00    +0.007 A 
ATOM     36  C   UNL     1       8.791  -9.655   8.107  0.00  0.00    +0.046 A 
ATOM     37  C   UNL     1       8.342  -8.432   7.630  0.00  0.00    +0.121 A 
ATOM     38  C   UNL     1       8.912  -7.257   8.098  0.00  0.00    +0.046 A 
ATOM     39  C   UNL     1       9.920  -7.307   9.040  0.00  0.00    +0.007 A 
ENDBRANCH  32  37
ENDBRANCH  30  32
ENDBRANCH  29  30
ENDBRANCH  25  29
ENDBRANCH   1  26
TORSDOF 7
