REMARK  Name = ZINC35026698
REMARK  9 active torsions:
REMARK  status: ('A' for Active; 'I' for Inactive)
REMARK    1  A    between atoms: C_1  and  C_2
REMARK    2  A    between atoms: C_2  and  C_3
REMARK    3  A    between atoms: C_3  and  C_5
REMARK    4  A    between atoms: C_3  and  N_18
REMARK    5  A    between atoms: N_15  and  C_16
REMARK    6  A    between atoms: C_16  and  C_17
REMARK    7  A    between atoms: N_18  and  C_19
REMARK    8  A    between atoms: C_19  and  C_20
REMARK    9  A    between atoms: N_28  and  C_29
REMARK                            x       y       z     vdW  Elec       q    Type
REMARK                         _______ _______ _______ _____ _____    ______ ____
ROOT
ATOM      1  N   UNL     1       1.855  -0.004  -1.267  0.00  0.00    -0.271 N 
ATOM      2  C   UNL     1       2.735  -0.442  -0.344  0.00  0.00    +0.307 C 
ATOM      3  O   UNL     1       2.435  -1.360   0.394  0.00  0.00    -0.252 OA
ATOM      4  N   UNL     1       3.947   0.138  -0.240  0.00  0.00    -0.268 N 
ATOM      5  H   UNL     1       4.162   0.912  -0.783  0.00  0.00    +0.156 HD
ENDROOT
BRANCH   4   6
ATOM      6  C   UNL     1       4.895  -0.377   0.652  0.00  0.00    +0.049 A 
ATOM      7  C   UNL     1       4.482  -1.061   1.788  0.00  0.00    +0.024 A 
ATOM      8  C   UNL     1       5.420  -1.569   2.666  0.00  0.00    +0.002 A 
ATOM      9  C   UNL     1       6.769  -1.397   2.415  0.00  0.00    +0.001 A 
ATOM     10  C   UNL     1       7.184  -0.717   1.285  0.00  0.00    +0.017 A 
ATOM     11  C   UNL     1       6.251  -0.211   0.400  0.00  0.00    +0.039 A 
ATOM     12 BR   UNL     1       6.819   0.713  -1.149  0.00  0.00    -0.048 Br
ENDBRANCH   4   6
BRANCH   1  13
ATOM     13  C   UNL     1       0.538  -0.634  -1.381  0.00  0.00    +0.144 C 
BRANCH  13  14
ATOM     14  C   UNL     1       0.700  -2.055  -1.857  0.00  0.00    +0.134 A 
ATOM     15  N   UNL     1       1.748  -2.718  -1.472  0.00  0.00    -0.232 NA
ATOM     16  C   UNL     1       1.960  -4.000  -1.861  0.00  0.00    +0.078 A 
ATOM     17  C   UNL     1       3.087  -4.714  -1.447  0.00  0.00    +0.028 A 
ATOM     18  C   UNL     1       3.262  -6.014  -1.866  0.00  0.00    +0.002 A 
ATOM     19  C   UNL     1       2.332  -6.625  -2.696  0.00  0.00    +0.001 A 
ATOM     20  C   UNL     1       1.213  -5.942  -3.118  0.00  0.00    +0.015 A 
ATOM     21  C   UNL     1       1.016  -4.625  -2.706  0.00  0.00    +0.065 A 
ATOM     22  C   UNL     1      -0.159  -3.847  -3.123  0.00  0.00    +0.262 A 
ATOM     23  O   UNL     1      -1.010  -4.326  -3.850  0.00  0.00    -0.267 OA
ATOM     24  N   UNL     1      -0.261  -2.578  -2.663  0.00  0.00    -0.295 N 
BRANCH  24  25
ATOM     25  C   UNL     1      -1.415  -1.759  -3.043  0.00  0.00    +0.123 C 
ATOM     26  C   UNL     1      -1.065  -0.927  -4.279  0.00  0.00    +0.027 C 
ENDBRANCH  24  25
ENDBRANCH  13  14
BRANCH  13  28
ATOM     27  C   UNL     1      -0.383   0.813   0.436  0.00  0.00    +0.006 C 
ATOM     28  C   UNL     1      -0.149  -0.631  -0.013  0.00  0.00    +0.027 C 
ENDBRANCH  13  28
ENDBRANCH   1  13
BRANCH   1  29
ATOM     29  C   UNL     1       2.217   1.102  -2.157  0.00  0.00    +0.145 C 
BRANCH  29  30
ATOM     30  C   UNL     1       1.843   2.410  -1.509  0.00  0.00    -0.030 A 
ATOM     31  C   UNL     1       0.564   2.915  -1.658  0.00  0.00    +0.005 A 
ATOM     32  C   UNL     1       0.221   4.115  -1.064  0.00  0.00    +0.000 A 
ATOM     33  C   UNL     1       1.156   4.810  -0.321  0.00  0.00    +0.000 A 
ATOM     34  C   UNL     1       2.434   4.306  -0.171  0.00  0.00    +0.000 A 
ATOM     35  C   UNL     1       2.776   3.103  -0.761  0.00  0.00    +0.005 A 
ENDBRANCH  29  30
ENDBRANCH   1  29
TORSDOF 7
