REMARK  Name = ZINC52634777
REMARK  4 active torsions:
REMARK  status: ('A' for Active; 'I' for Inactive)
REMARK    1  A    between atoms: C_1  and  N_2
REMARK    2  A    between atoms: N_2  and  C_3
REMARK    3  A    between atoms: C_11  and  C_12
REMARK    4  A    between atoms: N_19  and  C_20
REMARK                            x       y       z     vdW  Elec       q    Type
REMARK                         _______ _______ _______ _____ _____    ______ ____
ROOT
ATOM      1  C   UNL     1      -1.362  -0.549   0.012  0.00  0.00    +0.232 C 
ATOM      2  N   UNL     1      -1.931  -0.467   1.364  0.00  0.00    -0.311 N 
ATOM      3  C   UNL     1      -2.215  -1.767   1.774  0.00  0.00    +0.078 A 
ATOM      4  C   UNL     1      -1.863  -2.668   0.766  0.00  0.00    +0.057 A 
ATOM      5  C   UNL     1      -2.071  -4.026   0.988  0.00  0.00    +0.045 A 
ATOM      6  C   UNL     1      -2.618  -4.442   2.190  0.00  0.00    +0.113 A 
ATOM      7  N   UNL     1      -2.944  -3.576   3.125  0.00  0.00    -0.252 NA
ATOM      8  C   UNL     1      -2.764  -2.266   2.964  0.00  0.00    +0.108 A 
ATOM      9  N   UNL     1      -1.340  -1.978  -0.327  0.00  0.00    -0.301 N 
ATOM     10  C   UNL     1      -0.858  -2.567  -1.579  0.00  0.00    +0.132 C 
ATOM     11  H   UNL     1      -2.080   0.342   1.876  0.00  0.00    +0.149 HD
ENDROOT
BRANCH   8  12
ATOM     12  C   UNL     1      -3.143  -1.338   4.039  0.00  0.00    +0.075 C 
ATOM     13  N   UNL     1      -3.034  -0.040   4.027  0.00  0.00    -0.242 NA
ATOM     14  C   UNL     1      -3.466   0.542   5.163  0.00  0.00    +0.117 C 
ATOM     15  C   UNL     1      -3.912  -0.347   6.052  0.00  0.00    +0.034 C 
ATOM     16  C   UNL     1      -3.746  -1.698   5.383  0.00  0.00    +0.103 C 
ATOM     17 BR   UNL     1      -4.609   0.003   7.775  0.00  0.00    -0.052 Br
ATOM     18 BR   UNL     1      -3.442   2.409   5.464  0.00  0.00    -0.028 Br
ENDBRANCH   8  12
BRANCH   1  20
ATOM     19  C   UNL     1      -0.018   1.465   0.010  0.00  0.00    +0.104 C 
ATOM     20  N   UNL     1       0.002  -0.004   0.002  0.00  0.00    -0.286 NA
ATOM     21  H   UNL     1       0.526  -0.354  -0.786  0.00  0.00    +0.125 HD
ENDBRANCH   1  20
TORSDOF 2
