REMARK  Name = ZINC39469787
REMARK  9 active torsions:
REMARK  status: ('A' for Active; 'I' for Inactive)
REMARK    1  A    between atoms: C_1  and  C_2
REMARK    2  A    between atoms: C_2  and  O_3
REMARK    3  A    between atoms: O_3  and  C_4
REMARK    4  A    between atoms: P_13  and  S_25
REMARK    5  A    between atoms: C_21  and  O_22
REMARK    6  A    between atoms: O_22  and  C_23
REMARK    7  A    between atoms: C_23  and  C_24
REMARK    8  A    between atoms: S_25  and  O_28
REMARK    9  A    between atoms: O_28  and  C_29
REMARK                            x       y       z     vdW  Elec       q    Type
REMARK                         _______ _______ _______ _____ _____    ______ ____
ROOT
ATOM      1  C   UNL     1       0.777  -1.810  -1.336  0.00  0.00    +0.158 C 
ATOM      2  C   UNL     1       0.264  -2.639  -0.425  0.00  0.00    +0.026 C 
ATOM      3  C   UNL     1       0.377  -4.128  -0.620  0.00  0.00    +0.019 C 
ATOM      4  C   UNL     1      -0.732  -4.846   0.135  0.00  0.00    -0.002 C 
ATOM      5  C   UNL     1      -1.054  -6.201  -0.510  0.00  0.00    -0.020 C 
ATOM      6  C   UNL     1      -1.561  -7.094   0.632  0.00  0.00    +0.158 C 
ATOM      7  O   UNL     1      -1.924  -8.391   0.132  0.00  0.00    -0.301 OA
ATOM      8  P   UNL     1      -0.828  -9.167  -0.787  0.00  0.00    +0.431 P 
ATOM      9  O   UNL     1      -1.491 -10.196  -1.620  0.00  0.00    -0.246 OA
ATOM     10  N   UNL     1      -0.170  -7.994  -1.740  0.00  0.00    -0.271 NA
ATOM     11  N   UNL     1       0.117  -6.773  -1.164  0.00  0.00    +0.398 N 
ATOM     12  C   UNL     1       0.582  -5.955  -2.294  0.00  0.00    -0.046 C 
ATOM     13  C   UNL     1       0.255  -4.467  -2.103  0.00  0.00    +0.008 C 
ATOM     14  C   UNL     1       1.214  -3.622  -2.899  0.00  0.00    +0.025 C 
ATOM     15  C   UNL     1       1.455  -2.365  -2.527  0.00  0.00    +0.158 C 
ATOM     16  H   UNL     1       0.015  -8.164  -2.677  0.00  0.00    +0.113 HD
ATOM     17  H   UNL     1       0.862  -6.875  -0.491  0.00  0.00    -0.055 HD
ENDROOT
BRANCH   8  18
ATOM     18  S   UNL     1       0.661 -10.056   0.432  0.00  0.00    +0.209 S 
ATOM     19  O   UNL     1       1.486 -10.826  -0.431  0.00  0.00    -0.126 OA
ATOM     20  O   UNL     1       1.178  -9.022   1.259  0.00  0.00    -0.126 OA
BRANCH  18  21
ATOM     21  O   UNL     1      -0.042 -11.041   1.355  0.00  0.00    -0.339 OA
BRANCH  21  22
ATOM     22  C   UNL     1      -0.431 -12.190   0.744  0.00  0.00    +0.157 A 
ATOM     23  C   UNL     1      -1.685 -12.274   0.157  0.00  0.00    +0.048 A 
ATOM     24  C   UNL     1      -2.079 -13.444  -0.465  0.00  0.00    +0.004 A 
ATOM     25  C   UNL     1      -1.224 -14.530  -0.501  0.00  0.00    +0.000 A 
ATOM     26  C   UNL     1       0.026 -14.449   0.084  0.00  0.00    +0.004 A 
ATOM     27  C   UNL     1       0.427 -13.279   0.701  0.00  0.00    +0.048 A 
ENDBRANCH  21  22
ENDBRANCH  18  21
ENDBRANCH   8  18
BRANCH   1  28
ATOM     28  O   UNL     1       0.671  -0.465  -1.174  0.00  0.00    -0.489 OA
BRANCH  28  30
ATOM     29  C   UNL     1      -0.019   1.526   0.010  0.00  0.00    +0.048 C 
ATOM     30  C   UNL     1       0.002  -0.004   0.002  0.00  0.00    +0.226 C 
ENDBRANCH  28  30
ENDBRANCH   1  28
BRANCH  15  31
ATOM     31  O   UNL     1       2.325  -1.600  -3.237  0.00  0.00    -0.489 OA
BRANCH  31  32
ATOM     32  C   UNL     1       2.942  -2.205  -4.375  0.00  0.00    +0.226 C 
ATOM     33  C   UNL     1       3.881  -1.198  -5.042  0.00  0.00    +0.048 C 
ENDBRANCH  31  32
ENDBRANCH  15  31
TORSDOF 7
