REMARK  Name = ZINC08964005
REMARK  10 active torsions:
REMARK  status: ('A' for Active; 'I' for Inactive)
REMARK    1  A    between atoms: C_1  and  C_2
REMARK    2  A    between atoms: C_7  and  N_8
REMARK    3  A    between atoms: C_9  and  C_11
REMARK    4  A    between atoms: N_13  and  C_14
REMARK    5  A    between atoms: C_14  and  C_15
REMARK    6  A    between atoms: C_15  and  C_17
REMARK    7  A    between atoms: C_15  and  N_56
REMARK    8  A    between atoms: N_25  and  C_26
REMARK    9  A    between atoms: C_27  and  N_56
REMARK   10  A    between atoms: C_28  and  N_56
REMARK                            x       y       z     vdW  Elec       q    Type
REMARK                         _______ _______ _______ _____ _____    ______ ____
ROOT
ATOM      1  C   UNL     1       3.513   6.021  -0.135  0.00  0.00    +0.299 C 
ATOM      2  O   UNL     1       4.553   5.394  -0.156  0.00  0.00    -0.265 OA
ATOM      3  N   UNL     1       3.533   7.363  -0.250  0.00  0.00    -0.309 N 
ATOM      4  H   UNL     1       2.702   7.864  -0.234  0.00  0.00    +0.149 HD
ENDROOT
BRANCH   1   6
ATOM      5  N   UNL     1       2.192   3.960   0.132  0.00  0.00    -0.277 N 
ATOM      6  C   UNL     1       2.212   5.303   0.017  0.00  0.00    +0.303 C 
ATOM      7  O   UNL     1       1.172   5.929   0.037  0.00  0.00    -0.265 OA
ATOM      8  H   UNL     1       3.025   3.467   0.202  0.00  0.00    +0.155 HD
BRANCH   5  15
ATOM      9  C   UNL     1       2.096   1.416   1.401  0.00  0.00    +0.045 C 
ATOM     10  C   UNL     1       0.880   2.034   0.759  0.00  0.00    -0.029 A 
ATOM     11  C   UNL     1      -0.326   1.362   0.775  0.00  0.00    +0.006 A 
ATOM     12  C   UNL     1      -1.441   1.924   0.181  0.00  0.00    +0.020 A 
ATOM     13  C   UNL     1      -1.354   3.167  -0.422  0.00  0.00    +0.043 A 
ATOM     14  C   UNL     1      -0.150   3.844  -0.442  0.00  0.00    +0.043 A 
ATOM     15  C   UNL     1       0.973   3.278   0.149  0.00  0.00    +0.038 A 
ATOM     16 CL   UNL     1      -2.758   3.872  -1.162  0.00  0.00    -0.083 Cl
ENDBRANCH   5  15
ENDBRANCH   1   6
BRANCH   3  17
ATOM     17  C   UNL     1       4.809   8.067  -0.400  0.00  0.00    +0.094 C 
BRANCH  17  18
ATOM     18  C   UNL     1       4.562   9.577  -0.391  0.00  0.00    -0.021 C 
BRANCH  18  19
ATOM     19  C   UNL     1       5.877  10.301  -0.530  0.00  0.00    -0.059 A 
ATOM     20  C   UNL     1       6.415  10.524  -1.785  0.00  0.00    +0.004 A 
ATOM     21  C   UNL     1       7.616  11.188  -1.918  0.00  0.00    +0.023 A 
ATOM     22  C   UNL     1       8.302  11.630  -0.787  0.00  0.00    +0.033 A 
ATOM     23  C   UNL     1       7.753  11.400   0.469  0.00  0.00    -0.025 A 
ATOM     24  C   UNL     1       6.550  10.739   0.596  0.00  0.00    +0.007 A 
ATOM     25  C   UNL     1       8.691  11.989   1.504  0.00  0.00    +0.056 C 
ATOM     26  C   UNL     1       9.593  12.919   0.660  0.00  0.00    +0.109 C 
ATOM     27  N   UNL     1       9.525  12.304  -0.683  0.00  0.00    -0.332 N 
ATOM     28  C   UNL     1       9.657  13.320  -1.736  0.00  0.00    +0.129 C 
ENDBRANCH  18  19
BRANCH  18  31
ATOM     29  C   UNL     1       3.810   8.970  -2.611  0.00  0.00    -0.096 C 
ATOM     30  C   UNL     1       2.288  10.052  -1.070  0.00  0.00    -0.096 C 
ATOM     31  N   UNL     1       3.692   9.962  -1.522  0.00  0.00    +0.382 N 
ATOM     32  H   UNL     1       3.989  10.880  -1.873  0.00  0.00    -0.082 HD
ENDBRANCH  18  31
ENDBRANCH  17  18
ENDBRANCH   3  17
TORSDOF 6
