REMARK  Name = ZINC46711174
REMARK  7 active torsions:
REMARK  status: ('A' for Active; 'I' for Inactive)
REMARK    1  A    between atoms: C_1  and  C_2
REMARK    2  A    between atoms: C_5  and  C_35
REMARK    3  A    between atoms: C_10  and  C_12
REMARK    4  A    between atoms: C_17  and  N_18
REMARK    5  A    between atoms: C_19  and  C_21
REMARK    6  A    between atoms: C_21  and  N_22
REMARK    7  A    between atoms: C_28  and  C_31
REMARK                            x       y       z     vdW  Elec       q    Type
REMARK                         _______ _______ _______ _____ _____    ______ ____
ROOT
ATOM      1  N   UNL     1       4.025  -4.441   1.461  0.00  0.00    -0.284 N 
ATOM      2  C   UNL     1       4.866  -5.236   2.152  0.00  0.00    +0.235 C 
ATOM      3  O   UNL     1       5.843  -4.761   2.692  0.00  0.00    -0.274 OA
ATOM      4  H   UNL     1       3.275  -4.829   0.983  0.00  0.00    +0.155 HD
ENDROOT
BRANCH   1  10
ATOM      5  C   UNL     1       3.140  -2.188   1.347  0.00  0.00    +0.058 A 
ATOM      6  C   UNL     1       3.362  -0.809   1.325  0.00  0.00    +0.015 A 
ATOM      7  C   UNL     1       4.648  -0.319   1.384  0.00  0.00    +0.001 A 
ATOM      8  C   UNL     1       5.725  -1.187   1.465  0.00  0.00    +0.002 A 
ATOM      9  C   UNL     1       5.522  -2.552   1.486  0.00  0.00    +0.024 A 
ATOM     10  C   UNL     1       4.233  -3.064   1.433  0.00  0.00    +0.046 A 
BRANCH   5  18
ATOM     11  C   UNL     1       1.480  -0.816  -3.133  0.00  0.00    +0.009 C 
ATOM     12  C   UNL     1       1.170  -1.898  -2.097  0.00  0.00    +0.004 C 
ATOM     13  C   UNL     1      -0.279  -2.361  -2.260  0.00  0.00    +0.009 C 
ATOM     14  C   UNL     1      -0.581  -3.467  -1.246  0.00  0.00    +0.004 C 
ATOM     15  C   UNL     1      -0.407  -2.914   0.173  0.00  0.00    +0.111 C 
ATOM     16  N   UNL     1       0.938  -2.335   0.293  0.00  0.00    -0.297 N 
ATOM     17  C   UNL     1       1.365  -1.328  -0.688  0.00  0.00    +0.111 C 
ATOM     18  C   UNL     1       1.766  -2.720   1.284  0.00  0.00    +0.248 C 
ATOM     19  O   UNL     1       1.379  -3.507   2.128  0.00  0.00    -0.270 OA
ATOM     20  C   UNL     1      -2.019  -3.953  -1.432  0.00  0.00    +0.009 C 
ENDBRANCH   5  18
ENDBRANCH   1  10
BRANCH   2  21
ATOM     21  C   UNL     1       4.593  -6.714   2.255  0.00  0.00    +0.214 C 
BRANCH  21  22
ATOM     22  N   UNL     1       5.644  -7.351   3.051  0.00  0.00    -0.215 N 
ATOM     23  C   UNL     1       6.787  -7.851   2.538  0.00  0.00    +0.247 C 
ATOM     24  O   UNL     1       7.127  -7.859   1.374  0.00  0.00    -0.273 OA
ATOM     25  C   UNL     1       7.555  -8.399   3.719  0.00  0.00    +0.113 C 
ATOM     26  C   UNL     1       8.886  -7.673   3.871  0.00  0.00    +0.035 C 
ATOM     27  C   UNL     1       9.633  -8.222   5.089  0.00  0.00    +0.006 C 
ATOM     28  C   UNL     1       9.870  -9.722   4.908  0.00  0.00    -0.014 C 
ATOM     29  C   UNL     1       8.525 -10.440   4.780  0.00  0.00    +0.006 C 
ATOM     30  C   UNL     1       7.773  -9.900   3.561  0.00  0.00    +0.035 C 
ATOM     31  C   UNL     1      10.627 -10.269   6.120  0.00  0.00    +0.007 C 
ATOM     32  N   UNL     1       6.684  -8.124   4.869  0.00  0.00    -0.285 N 
ATOM     33  C   UNL     1       5.592  -7.505   4.380  0.00  0.00    +0.310 C 
ATOM     34  O   UNL     1       4.663  -7.130   5.068  0.00  0.00    -0.252 OA
ATOM     35  H   UNL     1       6.861  -8.342   5.797  0.00  0.00    +0.151 HD
ENDBRANCH  21  22
ENDBRANCH   2  21
TORSDOF 4
