REMARK  Name = ZINC59488370
REMARK  6 active torsions:
REMARK  status: ('A' for Active; 'I' for Inactive)
REMARK    1  A    between atoms: C_7  and  C_12
REMARK    2  A    between atoms: C_12  and  S_13
REMARK    3  A    between atoms: S_13  and  C_14
REMARK    4  A    between atoms: C_19  and  N_23
REMARK    5  A    between atoms: C_24  and  C_25
REMARK    6  A    between atoms: C_30  and  O_31
REMARK                            x       y       z     vdW  Elec       q    Type
REMARK                         _______ _______ _______ _____ _____    ______ ____
ROOT
ATOM      1  C   UNL     1      -1.981  -4.159  -1.542  0.00  0.00    +0.136 A 
ATOM      2  N   UNL     1      -2.583  -4.549  -0.440  0.00  0.00    -0.233 NA
ATOM      3  C   UNL     1      -3.721  -5.276  -0.453  0.00  0.00    +0.080 A 
ATOM      4  C   UNL     1      -4.461  -5.755   0.655  0.00  0.00    +0.031 A 
ATOM      5  C   UNL     1      -5.595  -6.479   0.480  0.00  0.00    +0.030 A 
ATOM      6  C   UNL     1      -6.078  -6.783  -0.800  0.00  0.00    +0.065 A 
ATOM      7  C   UNL     1      -5.372  -6.326  -1.917  0.00  0.00    +0.045 A 
ATOM      8  C   UNL     1      -4.229  -5.595  -1.735  0.00  0.00    +0.042 A 
ATOM      9  S   UNL     1      -3.046  -4.824  -2.814  0.00  0.00    -0.061 S 
ENDROOT
BRANCH   6  10
ATOM     10  N   UNL     1      -7.223  -7.516  -0.954  0.00  0.00    -0.255 NA
ATOM     11  C   UNL     1      -7.412  -8.588  -0.237  0.00  0.00    +0.123 C 
BRANCH  11  12
ATOM     12  C   UNL     1      -8.642  -9.376  -0.403  0.00  0.00    +0.037 A 
ATOM     13  C   UNL     1      -8.852 -10.524   0.368  0.00  0.00    +0.033 A 
ATOM     14  C   UNL     1     -10.008 -11.258   0.208  0.00  0.00    +0.043 A 
ATOM     15  C   UNL     1     -10.965 -10.863  -0.714  0.00  0.00    +0.043 A 
ATOM     16  C   UNL     1     -10.770  -9.730  -1.483  0.00  0.00    +0.084 A 
ATOM     17  C   UNL     1      -9.615  -8.977  -1.331  0.00  0.00    +0.144 A 
ATOM     18 CL   UNL     1     -11.975  -9.246  -2.634  0.00  0.00    -0.080 Cl
ATOM     19 CL   UNL     1     -10.267 -12.683   1.165  0.00  0.00    -0.083 Cl
BRANCH  17  20
ATOM     20  O   UNL     1      -9.426  -7.861  -2.081  0.00  0.00    -0.505 OA
ATOM     21  H   UNL     1      -8.976  -8.024  -2.921  0.00  0.00    +0.292 HD
ENDBRANCH  17  20
ENDBRANCH  11  12
ENDBRANCH   6  10
BRANCH   1  22
ATOM     22  S   UNL     1      -0.505  -3.214  -1.720  0.00  0.00    -0.094 S 
BRANCH  22  23
ATOM     23  C   UNL     1       0.022  -2.897  -0.013  0.00  0.00    +0.112 C 
BRANCH  23  30
ATOM     24  C   UNL     1      -0.016   1.357   0.009  0.00  0.00    +0.001 A 
ATOM     25  C   UNL     1       1.169   2.091   0.002  0.00  0.00    +0.001 A 
ATOM     26  C   UNL     1       2.378   1.467  -0.013  0.00  0.00    +0.011 A 
ATOM     27  C   UNL     1       2.438   0.064  -0.021  0.00  0.00    +0.018 A 
ATOM     28  C   UNL     1       1.233  -0.683  -0.013  0.00  0.00    -0.011 A 
ATOM     29  C   UNL     1       0.002  -0.004   0.002  0.00  0.00    +0.009 A 
ATOM     30  C   UNL     1       1.292  -2.087  -0.021  0.00  0.00    -0.029 A 
ATOM     31  C   UNL     1       2.502  -2.711  -0.035  0.00  0.00    +0.008 A 
ATOM     32  C   UNL     1       3.687  -1.979  -0.042  0.00  0.00    +0.039 A 
ATOM     33  C   UNL     1       3.670  -0.616  -0.036  0.00  0.00    +0.131 A 
ATOM     34  F   UNL     1       4.829   0.079  -0.044  0.00  0.00    -0.205 F 
ENDBRANCH  23  30
ENDBRANCH  22  23
ENDBRANCH   1  22
TORSDOF 6
