REMARK  Name = ZINC66128530
REMARK  4 active torsions:
REMARK  status: ('A' for Active; 'I' for Inactive)
REMARK    1  A    between atoms: C_9  and  O_23
REMARK    2  A    between atoms: C_10  and  C_11
REMARK    3  A    between atoms: O_23  and  C_24
REMARK    4  A    between atoms: C_24  and  C_25
REMARK                            x       y       z     vdW  Elec       q    Type
REMARK                         _______ _______ _______ _____ _____    ______ ____
ROOT
ATOM      1  C   UNL     1       0.013   1.314   0.585  0.00  0.00    +0.001 A 
ATOM      2  C   UNL     1       1.198   2.048   0.580  0.00  0.00    +0.001 A 
ATOM      3  C   UNL     1       2.399   1.439   0.379  0.00  0.00    +0.009 A 
ATOM      4  C   UNL     1       2.448   0.049   0.173  0.00  0.00    -0.008 A 
ATOM      5  C   UNL     1       1.242  -0.697   0.178  0.00  0.00    -0.017 A 
ATOM      6  C   UNL     1       0.022  -0.033   0.389  0.00  0.00    +0.008 A 
ATOM      7  C   UNL     1       1.289  -2.087  -0.027  0.00  0.00    +0.012 A 
ATOM      8  C   UNL     1       2.487  -2.699  -0.228  0.00  0.00    +0.046 A 
ATOM      9  C   UNL     1       3.677  -1.965  -0.233  0.00  0.00    +0.128 A 
ATOM     10  C   UNL     1       3.668  -0.613  -0.037  0.00  0.00    +0.040 A 
ENDROOT
BRANCH  10  11
ATOM     11  C   UNL     1       4.960   0.163  -0.046  0.00  0.00    +0.194 C 
ATOM     12  N   UNL     1       4.971   1.100   1.084  0.00  0.00    -0.322 N 
ATOM     13  C   UNL     1       5.210   0.600   2.359  0.00  0.00    +0.041 A 
ATOM     14  C   UNL     1       4.679   1.194   3.490  0.00  0.00    +0.024 A 
ATOM     15  C   UNL     1       4.944   0.655   4.734  0.00  0.00    +0.002 A 
ATOM     16  C   UNL     1       5.738  -0.475   4.858  0.00  0.00    +0.001 A 
ATOM     17  C   UNL     1       6.276  -1.079   3.740  0.00  0.00    +0.015 A 
ATOM     18  C   UNL     1       6.018  -0.545   2.480  0.00  0.00    +0.058 A 
ATOM     19  C   UNL     1       6.574  -1.144   1.254  0.00  0.00    +0.247 C 
ATOM     20  O   UNL     1       7.465  -1.970   1.323  0.00  0.00    -0.270 OA
ATOM     21  N   UNL     1       6.084  -0.767   0.059  0.00  0.00    -0.289 N 
ATOM     22  H   UNL     1       4.817   2.047   0.944  0.00  0.00    +0.148 HD
ATOM     23  H   UNL     1       6.486  -1.121  -0.750  0.00  0.00    +0.151 HD
ENDBRANCH  10  11
BRANCH   9  24
ATOM     24  O   UNL     1       4.859  -2.605  -0.435  0.00  0.00    -0.489 OA
BRANCH  24  25
ATOM     25  C   UNL     1       4.805  -4.019  -0.634  0.00  0.00    +0.260 C 
BRANCH  25  26
ATOM     26  C   UNL     1       6.221  -4.559  -0.844  0.00  0.00    +0.156 C 
ATOM     27  C   UNL     1       6.163  -6.065  -1.179  0.00  0.00    +0.037 C 
ATOM     28  C   UNL     1       7.383  -6.624  -0.397  0.00  0.00    +0.031 C 
ATOM     29  C   UNL     1       7.380  -5.704   0.850  0.00  0.00    +0.160 C 
ATOM     30  O   UNL     1       6.981  -4.411   0.362  0.00  0.00    -0.373 OA
ENDBRANCH  25  26
ENDBRANCH  24  25
ENDBRANCH   9  24
TORSDOF 4
