REMARK  Name = ZINC63658929
REMARK  11 active torsions:
REMARK  status: ('A' for Active; 'I' for Inactive)
REMARK    1  A    between atoms: C_1  and  C_2
REMARK    2  A    between atoms: C_4  and  C_13
REMARK    3  A    between atoms: C_13  and  C_14
REMARK    4  A    between atoms: C_14  and  N_15
REMARK    5  A    between atoms: N_15  and  C_16
REMARK    6  A    between atoms: N_15  and  C_22
REMARK    7  A    between atoms: C_16  and  C_17
REMARK    8  A    between atoms: C_22  and  N_24
REMARK    9  A    between atoms: N_24  and  C_25
REMARK   10  A    between atoms: C_28  and  O_31
REMARK   11  A    between atoms: O_31  and  C_32
REMARK                            x       y       z     vdW  Elec       q    Type
REMARK                         _______ _______ _______ _____ _____    ______ ____
ROOT
ATOM      1  N   UNL     1      -5.008  -1.012  -1.457  0.00  0.00    -0.305 N 
ENDROOT
BRANCH   1   2
ATOM      2  C   UNL     1      -5.825   0.051  -1.313  0.00  0.00    +0.138 C 
ATOM      3  S   UNL     1      -5.850   0.919   0.162  0.00  0.00    -0.018 S 
BRANCH   2   4
ATOM      4  N   UNL     1      -6.622   0.430  -2.332  0.00  0.00    -0.297 N 
ATOM      5  H   UNL     1      -6.551  -0.009  -3.193  0.00  0.00    +0.154 HD
BRANCH   4   6
ATOM      6  C   UNL     1      -7.553   1.460  -2.146  0.00  0.00    +0.033 A 
ATOM      7  C   UNL     1      -7.738   2.417  -3.135  0.00  0.00    +0.027 A 
ATOM      8  C   UNL     1      -8.656   3.432  -2.952  0.00  0.00    +0.047 A 
ATOM      9  C   UNL     1      -9.394   3.496  -1.779  0.00  0.00    +0.120 A 
ATOM     10  C   UNL     1      -9.210   2.541  -0.790  0.00  0.00    +0.047 A 
ATOM     11  C   UNL     1      -8.297   1.522  -0.975  0.00  0.00    +0.027 A 
BRANCH   9  12
ATOM     12  O   UNL     1     -10.298   4.495  -1.599  0.00  0.00    -0.495 OA
ATOM     13  C   UNL     1     -11.023   4.500  -0.367  0.00  0.00    +0.277 C 
ENDBRANCH   9  12
ENDBRANCH   4   6
ENDBRANCH   2   4
ENDBRANCH   1   2
BRANCH   1  14
ATOM     14  C   UNL     1      -4.142  -1.424  -0.350  0.00  0.00    +0.111 C 
BRANCH  14  15
ATOM     15  C   UNL     1      -2.798  -0.701  -0.457  0.00  0.00    +0.052 C 
BRANCH  15  18
ATOM     16  C   UNL     1      -0.480   0.858   1.187  0.00  0.00    +0.035 C 
ATOM     17  C   UNL     1      -0.496  -0.654   0.956  0.00  0.00    +0.103 C 
ATOM     18  C   UNL     1      -1.907  -1.125   0.682  0.00  0.00    -0.037 C 
ATOM     19  C   UNL     1      -2.207  -2.003   1.665  0.00  0.00    +0.001 A 
ATOM     20  C   UNL     1      -3.407  -2.796   1.958  0.00  0.00    +0.030 A 
ATOM     21  C   UNL     1      -3.409  -3.607   3.042  0.00  0.00    +0.042 A 
ATOM     22  C   UNL     1      -2.297  -3.708   3.890  0.00  0.00    +0.022 A 
ATOM     23  C   UNL     1      -1.159  -3.010   3.685  0.00  0.00    +0.027 A 
ATOM     24  C   UNL     1      -1.046  -2.128   2.576  0.00  0.00    +0.043 A 
ATOM     25  N   UNL     1      -0.065  -1.356   2.170  0.00  0.00    -0.378 N 
ATOM     26 CL   UNL     1      -4.827  -4.546   3.392  0.00  0.00    -0.084 Cl
ATOM     27  H   UNL     1       0.799  -1.264   2.600  0.00  0.00    +0.160 HD
ENDBRANCH  15  18
ENDBRANCH  14  15
ENDBRANCH   1  14
BRANCH   1  28
ATOM     28  C   UNL     1      -4.987  -1.754  -2.719  0.00  0.00    +0.181 C 
BRANCH  28  29
ATOM     29  C   UNL     1      -6.006  -2.863  -2.667  0.00  0.00    +0.122 A 
ATOM     30  C   UNL     1      -7.292  -2.769  -3.054  0.00  0.00    +0.046 A 
ATOM     31  C   UNL     1      -7.879  -4.036  -2.833  0.00  0.00    +0.041 A 
ATOM     32  C   UNL     1      -6.918  -4.828  -2.325  0.00  0.00    +0.195 A 
ATOM     33  O   UNL     1      -5.785  -4.114  -2.232  0.00  0.00    -0.466 OA
ENDBRANCH  28  29
ENDBRANCH   1  28
TORSDOF 9
