REMARK  Name = ZINC62727165
REMARK  5 active torsions:
REMARK  status: ('A' for Active; 'I' for Inactive)
REMARK    1  A    between atoms: C_4  and  N_17
REMARK    2  A    between atoms: C_5  and  C_7
REMARK    3  A    between atoms: C_7  and  C_8
REMARK    4  A    between atoms: C_8  and  C_9
REMARK    5  A    between atoms: C_14  and  O_16
REMARK                            x       y       z     vdW  Elec       q    Type
REMARK                         _______ _______ _______ _____ _____    ______ ____
ROOT
ATOM      1  C   UNL     1      -0.063   1.258  -0.186  0.00  0.00    +0.000 A 
ATOM      2  C   UNL     1       1.034   2.077   0.010  0.00  0.00    +0.002 A 
ATOM      3  C   UNL     1       2.287   1.522   0.190  0.00  0.00    +0.033 A 
ATOM      4  C   UNL     1       2.443   0.148   0.175  0.00  0.00    +0.129 A 
ATOM      5  C   UNL     1       1.346  -0.670  -0.019  0.00  0.00    -0.017 A 
ATOM      6  C   UNL     1       0.093  -0.115  -0.201  0.00  0.00    +0.006 A 
ENDROOT
BRANCH   4   7
ATOM      7  N   UNL     1       3.785  -0.446   0.368  0.00  0.00    +0.057 N 
ATOM      8  O   UNL     1       4.758   0.267   0.433  0.00  0.00    -0.126 OA
ATOM      9  O   UNL     1       3.907  -1.646   0.460  0.00  0.00    -0.126 OA
ENDBRANCH   4   7
BRANCH   5  10
ATOM     10  C   UNL     1       1.517  -2.167  -0.036  0.00  0.00    +0.038 C 
BRANCH  10  11
ATOM     11  C   UNL     1       1.563  -2.692   1.400  0.00  0.00    +0.011 C 
BRANCH  11  12
ATOM     12  C   UNL     1       1.736  -4.212   1.383  0.00  0.00    +0.018 C 
ATOM     13  C   UNL     1       0.474  -4.881   0.801  0.00  0.00    +0.006 C 
ATOM     14  C   UNL     1       0.308  -6.173   1.639  0.00  0.00    +0.003 C 
ATOM     15  C   UNL     1       0.718  -5.713   3.060  0.00  0.00    +0.031 C 
ATOM     16  C   UNL     1       1.893  -4.741   2.819  0.00  0.00    +0.118 C 
BRANCH  16  17
ATOM     17  O   UNL     1       1.831  -3.658   3.749  0.00  0.00    -0.392 OA
ATOM     18  H   UNL     1       1.923  -3.927   4.673  0.00  0.00    +0.210 HD
ENDBRANCH  16  17
ENDBRANCH  11  12
ENDBRANCH  10  11
ENDBRANCH   5  10
TORSDOF 5
