REMARK  Name = ZINC12933533
REMARK  8 active torsions:
REMARK  status: ('A' for Active; 'I' for Inactive)
REMARK    1  A    between atoms: C_1  and  C_2
REMARK    2  A    between atoms: C_8  and  C_27
REMARK    3  A    between atoms: C_12  and  C_13
REMARK    4  A    between atoms: N_15  and  C_16
REMARK    5  A    between atoms: N_15  and  C_17
REMARK    6  A    between atoms: C_17  and  C_18
REMARK    7  A    between atoms: C_18  and  O_19
REMARK    8  A    between atoms: O_19  and  C_20
REMARK                            x       y       z     vdW  Elec       q    Type
REMARK                         _______ _______ _______ _____ _____    ______ ____
ROOT
ATOM      1  C   UNL     1       0.584  -1.925   3.894  0.00  0.00    +0.046 C 
ATOM      2  C   UNL     1       0.325  -0.454   3.692  0.00  0.00    -0.017 A 
ATOM      3  C   UNL     1       0.292   0.407   4.790  0.00  0.00    +0.076 A 
ATOM      4  C   UNL     1       0.483   0.095   6.225  0.00  0.00    +0.260 A 
ATOM      5  O   UNL     1       0.710  -1.045   6.590  0.00  0.00    -0.267 OA
ATOM      6  N   UNL     1       0.400   1.101   7.117  0.00  0.00    -0.304 N 
ATOM      7  H   UNL     1       0.523   0.912   8.061  0.00  0.00    +0.170 HD
ATOM      8  C   UNL     1       0.146   2.385   6.716  0.00  0.00    +0.178 A 
ATOM      9  N   UNL     1      -0.028   2.689   5.444  0.00  0.00    -0.219 NA
ATOM     10  C   UNL     1       0.035   1.768   4.498  0.00  0.00    +0.117 A 
ATOM     11  S   UNL     1      -0.137   1.779   2.731  0.00  0.00    -0.064 S 
ATOM     12  C   UNL     1       0.127   0.039   2.435  0.00  0.00    +0.080 A 
ENDROOT
BRANCH   8  13
ATOM     13  C   UNL     1       0.065   3.447   7.724  0.00  0.00    +0.170 A 
ATOM     14  C   UNL     1      -0.175   4.769   7.479  0.00  0.00    +0.053 A 
ATOM     15  C   UNL     1      -0.169   5.418   8.724  0.00  0.00    +0.042 A 
ATOM     16  C   UNL     1       0.080   4.478   9.661  0.00  0.00    +0.196 A 
ATOM     17  O   UNL     1       0.220   3.291   9.055  0.00  0.00    -0.460 OA
ENDBRANCH   8  13
BRANCH  12  18
ATOM     18  C   UNL     1       0.124  -0.683   1.160  0.00  0.00    +0.253 C 
ATOM     19  O   UNL     1       0.455  -1.854   1.123  0.00  0.00    -0.269 OA
ATOM     20  N   UNL     1      -0.244  -0.050   0.029  0.00  0.00    -0.297 N 
ATOM     21  C   UNL     1      -0.593   1.373   0.065  0.00  0.00    +0.132 C 
BRANCH  20  22
ATOM     22  C   UNL     1      -0.296  -0.785  -1.238  0.00  0.00    +0.148 C 
BRANCH  22  23
ATOM     23  C   UNL     1       1.063  -0.696  -1.935  0.00  0.00    +0.248 C 
BRANCH  23  24
ATOM     24  O   UNL     1       2.047  -1.370  -1.147  0.00  0.00    -0.488 OA
BRANCH  24  25
ATOM     25  C   UNL     1       3.319  -1.384  -1.628  0.00  0.00    +0.156 A 
ATOM     26  C   UNL     1       3.612  -0.769  -2.835  0.00  0.00    +0.048 A 
ATOM     27  C   UNL     1       4.906  -0.781  -3.320  0.00  0.00    +0.004 A 
ATOM     28  C   UNL     1       5.907  -1.415  -2.608  0.00  0.00    +0.003 A 
ATOM     29  C   UNL     1       5.618  -2.035  -1.406  0.00  0.00    +0.042 A 
ATOM     30  C   UNL     1       4.325  -2.021  -0.913  0.00  0.00    +0.165 A 
ATOM     31  F   UNL     1       4.043  -2.627   0.261  0.00  0.00    -0.202 F 
ENDBRANCH  24  25
ENDBRANCH  23  24
ENDBRANCH  22  23
ENDBRANCH  20  22
ENDBRANCH  12  18
TORSDOF 6
