REMARK  Name = ZINC36977108
REMARK  5 active torsions:
REMARK  status: ('A' for Active; 'I' for Inactive)
REMARK    1  A    between atoms: C_1  and  C_2
REMARK    2  A    between atoms: C_2  and  C_4
REMARK    3  A    between atoms: C_2  and  N_13
REMARK    4  A    between atoms: C_9  and  N_10
REMARK    5  A    between atoms: N_13  and  C_14
REMARK                            x       y       z     vdW  Elec       q    Type
REMARK                         _______ _______ _______ _____ _____    ______ ____
ROOT
ATOM      1  N   UNL     1       0.814  -0.489   1.126  0.00  0.00    +0.391 N 
ATOM      2  H   UNL     1       0.709  -1.462   0.882  0.00  0.00    -0.084 HD
ATOM      3  H   UNL     1       1.794  -0.273   1.234  0.00  0.00    -0.084 HD
ENDROOT
BRANCH   1   4
ATOM      4  C   UNL     1       0.111  -0.222   2.389  0.00  0.00    +0.017 C 
ATOM      5  C   UNL     1      -1.103  -1.146   2.506  0.00  0.00    -0.007 C 
ATOM      6  C   UNL     1      -0.809  -2.501   1.889  0.00  0.00    +0.000 C 
ATOM      7  C   UNL     1       0.242  -3.300   2.636  0.00  0.00    +0.019 C 
ATOM      8  C   UNL     1       1.613  -2.630   2.531  0.00  0.00    +0.104 C 
ATOM      9  N   UNL     1       1.734  -1.632   3.607  0.00  0.00    -0.317 N 
ATOM     10  C   UNL     1       1.040  -0.491   3.554  0.00  0.00    +0.199 C 
ATOM     11  O   UNL     1       1.148   0.329   4.442  0.00  0.00    -0.278 OA
ATOM     12  H   UNL     1       2.322  -1.803   4.358  0.00  0.00    +0.149 HD
ENDBRANCH   1   4
BRANCH   1  14
ATOM     13  C   UNL     1       0.543   1.819   0.353  0.00  0.00    -0.009 C 
ATOM     14  C   UNL     1       0.243   0.347   0.062  0.00  0.00    -0.041 C 
BRANCH  14  15
ATOM     15  C   UNL     1       0.854  -0.037  -1.261  0.00  0.00    -0.031 A 
ATOM     16  C   UNL     1       2.053  -0.724  -1.295  0.00  0.00    +0.004 A 
ATOM     17  C   UNL     1       2.613  -1.077  -2.509  0.00  0.00    +0.000 A 
ATOM     18  C   UNL     1       1.974  -0.744  -3.688  0.00  0.00    +0.002 A 
ATOM     19  C   UNL     1       0.774  -0.058  -3.654  0.00  0.00    +0.033 A 
ATOM     20  C   UNL     1       0.212   0.291  -2.440  0.00  0.00    +0.128 A 
BRANCH  20  21
ATOM     21  N   UNL     1      -1.076   1.021  -2.404  0.00  0.00    +0.057 N 
ATOM     22  O   UNL     1      -1.637   1.308  -3.435  0.00  0.00    -0.126 OA
ATOM     23  O   UNL     1      -1.565   1.330  -1.342  0.00  0.00    -0.126 OA
ENDBRANCH  20  21
ENDBRANCH  14  15
ENDBRANCH   1  14
TORSDOF 4
