REMARK  Name = ZINC14971858
REMARK  10 active torsions:
REMARK  status: ('A' for Active; 'I' for Inactive)
REMARK    1  A    between atoms: C_1  and  O_2
REMARK    2  A    between atoms: O_2  and  C_3
REMARK    3  A    between atoms: C_6  and  C_11
REMARK    4  A    between atoms: C_8  and  O_9
REMARK    5  A    between atoms: O_9  and  C_10
REMARK    6  A    between atoms: C_11  and  C_12
REMARK    7  A    between atoms: C_12  and  N_62
REMARK    8  A    between atoms: C_13  and  N_62
REMARK    9  A    between atoms: N_24  and  C_27
REMARK   10  A    between atoms: C_27  and  C_28
REMARK                            x       y       z     vdW  Elec       q    Type
REMARK                         _______ _______ _______ _____ _____    ______ ____
ROOT
ATOM      1  C   UNL     1       2.409   1.467  -0.389  0.00  0.00    -0.067 C 
ATOM      2  C   UNL     1       2.442   0.180   0.442  0.00  0.00    -0.011 C 
ATOM      3  C   UNL     1       1.327  -0.761  -0.015  0.00  0.00    +0.035 C 
ATOM      4  C   UNL     1       0.002  -0.004   0.002  0.00  0.00    -0.023 A 
ATOM      5  C   UNL     1      -0.016   1.350   0.009  0.00  0.00    -0.006 A 
ATOM      6  S   UNL     1      -1.736   1.791   0.020  0.00  0.00    -0.073 S 
ATOM      7  C   UNL     1      -2.424   0.166   0.024  0.00  0.00    +0.116 A 
ATOM      8  C   UNL     1      -1.287  -0.673   0.011  0.00  0.00    +0.076 A 
ATOM      9  C   UNL     1      -1.521  -2.089   0.006  0.00  0.00    +0.263 A 
ATOM     10  O   UNL     1      -0.609  -2.897  -0.005  0.00  0.00    -0.267 OA
ATOM     11  N   UNL     1      -2.821  -2.469   0.016  0.00  0.00    -0.294 N 
ATOM     12  C   UNL     1      -3.849  -1.587   0.029  0.00  0.00    +0.203 A 
ATOM     13  N   UNL     1      -3.675  -0.284   0.033  0.00  0.00    -0.230 NA
ATOM     14  C   UNL     1       1.163   2.273   0.003  0.00  0.00    +0.027 C 
ENDROOT
BRANCH   1  15
ATOM     15  N   UNL     1       3.621   2.260  -0.107  0.00  0.00    +0.381 N 
ATOM     16  H   UNL     1       3.464   2.832   0.731  0.00  0.00    -0.086 HD
ATOM     17  H   UNL     1       4.411   1.625   0.055  0.00  0.00    -0.086 HD
BRANCH  15  18
ATOM     18  C   UNL     1       3.932   3.142  -1.247  0.00  0.00    -0.078 C 
BRANCH  18  19
ATOM     19  C   UNL     1       5.191   3.950  -0.927  0.00  0.00    +0.016 C 
BRANCH  19  23
ATOM     20  C   UNL     1       6.111   6.523  -4.217  0.00  0.00    +0.161 A 
ATOM     21  C   UNL     1       5.284   6.966  -3.198  0.00  0.00    +0.049 A 
ATOM     22  C   UNL     1       4.988   6.132  -2.136  0.00  0.00    +0.007 A 
ATOM     23  C   UNL     1       5.516   4.855  -2.088  0.00  0.00    -0.045 A 
ATOM     24  C   UNL     1       6.346   4.409  -3.099  0.00  0.00    +0.053 A 
ATOM     25  C   UNL     1       6.642   5.237  -4.169  0.00  0.00    +0.162 A 
BRANCH  20  27
ATOM     26  C   UNL     1       5.823   8.648  -5.245  0.00  0.00    +0.277 C 
ATOM     27  O   UNL     1       6.403   7.342  -5.263  0.00  0.00    -0.491 OA
ENDBRANCH  20  27
BRANCH  25  28
ATOM     28  O   UNL     1       7.455   4.798  -5.167  0.00  0.00    -0.491 OA
ATOM     29  C   UNL     1       7.963   3.467  -5.051  0.00  0.00    +0.277 C 
ENDBRANCH  25  28
ENDBRANCH  19  23
ENDBRANCH  18  19
ENDBRANCH  15  18
ENDBRANCH   1  15
BRANCH  11  30
ATOM     30  C   UNL     1      -3.129  -3.901   0.012  0.00  0.00    +0.161 C 
BRANCH  30  31
ATOM     31  C   UNL     1      -3.248  -4.386  -1.410  0.00  0.00    -0.028 A 
ATOM     32  C   UNL     1      -4.474  -4.362  -2.048  0.00  0.00    +0.005 A 
ATOM     33  C   UNL     1      -4.581  -4.802  -3.354  0.00  0.00    +0.000 A 
ATOM     34  C   UNL     1      -3.466  -5.276  -4.018  0.00  0.00    +0.000 A 
ATOM     35  C   UNL     1      -2.241  -5.306  -3.378  0.00  0.00    +0.000 A 
ATOM     36  C   UNL     1      -2.132  -4.861  -2.073  0.00  0.00    +0.005 A 
ENDBRANCH  30  31
ENDBRANCH  11  30
TORSDOF 8
