REMARK  Name = ZINC20411170
REMARK  7 active torsions:
REMARK  status: ('A' for Active; 'I' for Inactive)
REMARK    1  A    between atoms: C_1  and  C_2
REMARK    2  A    between atoms: C_2  and  C_3
REMARK    3  A    between atoms: C_3  and  C_4
REMARK    4  A    between atoms: C_4  and  C_5
REMARK    5  A    between atoms: C_5  and  C_6
REMARK    6  A    between atoms: C_6  and  N_7
REMARK    7  A    between atoms: C_10  and  C_16
REMARK                            x       y       z     vdW  Elec       q    Type
REMARK                         _______ _______ _______ _____ _____    ______ ____
ROOT
ATOM      1  N   UNL     1      -4.202  -4.630   0.017  0.00  0.00    -0.261 N 
ATOM      2  C   UNL     1      -4.820  -4.862   1.192  0.00  0.00    +0.262 A 
ATOM      3  O   UNL     1      -4.239  -4.652   2.243  0.00  0.00    -0.267 OA
ATOM      4  C   UNL     1      -6.139  -5.349   1.197  0.00  0.00    +0.073 A 
ATOM      5  C   UNL     1      -6.766  -5.575   0.008  0.00  0.00    +0.260 A 
ATOM      6  N   UNL     1      -6.100  -5.325  -1.165  0.00  0.00    -0.275 N 
ATOM      7  C   UNL     1      -4.839  -4.855  -1.146  0.00  0.00    +0.332 A 
ATOM      8  O   UNL     1      -4.266  -4.634  -2.196  0.00  0.00    -0.246 OA
ATOM      9  O   UNL     1      -8.033  -6.042  -0.016  0.00  0.00    -0.267 OA
ATOM     10  H   UNL     1      -6.542  -5.485  -2.014  0.00  0.00    +0.173 HD
ENDROOT
BRANCH   4  11
ATOM     11  C   UNL     1      -6.850  -5.617   2.498  0.00  0.00    +0.018 C 
ATOM     12  C   UNL     1      -7.040  -4.320   3.248  0.00  0.00    +0.011 A 
ATOM     13  C   UNL     1      -6.837  -4.205   4.581  0.00  0.00    -0.022 A 
ATOM     14  C   UNL     1      -7.109  -2.831   4.939  0.00  0.00    +0.003 A 
ATOM     15  C   UNL     1      -7.066  -2.137   6.152  0.00  0.00    +0.010 A 
ATOM     16  C   UNL     1      -7.397  -0.805   6.118  0.00  0.00    +0.001 A 
ATOM     17  C   UNL     1      -7.758  -0.166   4.943  0.00  0.00    +0.002 A 
ATOM     18  C   UNL     1      -7.810  -0.828   3.728  0.00  0.00    +0.026 A 
ATOM     19  C   UNL     1      -7.479  -2.181   3.732  0.00  0.00    +0.047 A 
ATOM     20  N   UNL     1      -7.426  -3.112   2.734  0.00  0.00    -0.359 N 
ATOM     21  H   UNL     1      -7.632  -2.943   1.802  0.00  0.00    +0.166 HD
ATOM     22  C   UNL     1      -6.408  -5.357   5.454  0.00  0.00    +0.018 C 
ATOM     23  C   UNL     1      -6.634  -6.654   4.664  0.00  0.00    -0.076 C 
ATOM     24  N   UNL     1      -6.042  -6.527   3.324  0.00  0.00    +0.388 N 
ATOM     25  H   UNL     1      -6.006  -7.434   2.884  0.00  0.00    -0.084 HD
ATOM     26  H   UNL     1      -5.106  -6.160   3.408  0.00  0.00    -0.084 HD
ENDBRANCH   4  11
BRANCH   1  27
ATOM     27  C   UNL     1      -2.827  -4.123   0.007  0.00  0.00    +0.130 C 
BRANCH  27  28
ATOM     28  C   UNL     1      -2.848  -2.593   0.015  0.00  0.00    +0.022 C 
BRANCH  28  29
ATOM     29  C   UNL     1      -1.413  -2.063   0.004  0.00  0.00    +0.002 C 
BRANCH  29  30
ATOM     30  C   UNL     1      -1.433  -0.534   0.013  0.00  0.00    -0.000 C 
BRANCH  30  32
ATOM     31  C   UNL     1      -0.019   1.526   0.010  0.00  0.00    +0.004 C 
ATOM     32  C   UNL     1       0.002  -0.004   0.002  0.00  0.00    -0.003 C 
ENDBRANCH  30  32
ENDBRANCH  29  30
ENDBRANCH  28  29
ENDBRANCH  27  28
ENDBRANCH   1  27
TORSDOF 6
