REMARK  Name = ZINC49268630
REMARK  7 active torsions:
REMARK  status: ('A' for Active; 'I' for Inactive)
REMARK    1  A    between atoms: C_1  and  C_2
REMARK    2  A    between atoms: N_5  and  C_11
REMARK    3  A    between atoms: C_7  and  C_10
REMARK    4  A    between atoms: C_13  and  C_14
REMARK    5  A    between atoms: C_13  and  C_16
REMARK    6  A    between atoms: C_16  and  C_18
REMARK    7  A    between atoms: C_19  and  C_20
REMARK                            x       y       z     vdW  Elec       q    Type
REMARK                         _______ _______ _______ _____ _____    ______ ____
ROOT
ATOM      1  C   UNL     1      -2.076  -2.827  -0.635  0.00  0.00    +0.261 C 
ATOM      2  O   UNL     1      -2.893  -2.314  -1.575  0.00  0.00    -0.269 OA
ATOM      3  C   UNL     1      -1.935  -4.208  -0.511  0.00  0.00    +0.160 C 
ENDROOT
BRANCH   1   7
ATOM      4  C   UNL     1      -2.270   0.600   2.802  0.00  0.00    +0.039 C 
ATOM      5  C   UNL     1      -1.812   0.050   1.450  0.00  0.00    +0.133 C 
ATOM      6  C   UNL     1      -2.005  -1.470   1.423  0.00  0.00    +0.139 C 
ATOM      7  N   UNL     1      -1.388  -1.995   0.195  0.00  0.00    -0.292 N 
ATOM      8  C   UNL     1      -0.005  -1.596  -0.109  0.00  0.00    +0.139 C 
ATOM      9  C   UNL     1       0.091  -0.069  -0.008  0.00  0.00    +0.133 C 
ATOM     10  O   UNL     1      -0.429   0.353   1.255  0.00  0.00    -0.371 OA
ATOM     11  C   UNL     1       1.554   0.361  -0.130  0.00  0.00    +0.039 C 
ENDBRANCH   1   7
BRANCH   3  12
ATOM     12  C   UNL     1      -1.154  -4.755   0.556  0.00  0.00    +0.108 C 
ATOM     13  N   UNL     1      -0.533  -5.190   1.403  0.00  0.00    -0.191 NA
ENDBRANCH   3  12
BRANCH   3  14
ATOM     14  C   UNL     1      -2.587  -5.100  -1.473  0.00  0.00    +0.201 C 
ATOM     15  O   UNL     1      -3.253  -4.633  -2.382  0.00  0.00    -0.286 OA
BRANCH  14  16
ATOM     16  C   UNL     1      -2.440  -6.551  -1.343  0.00  0.00    +0.053 C 
ATOM     17  C   UNL     1      -3.040  -7.372  -2.230  0.00  0.00    +0.017 C 
BRANCH  17  18
ATOM     18  C   UNL     1      -2.892  -8.829  -2.099  0.00  0.00    +0.045 A 
ATOM     19  C   UNL     1      -1.621  -9.396  -1.939  0.00  0.00    +0.133 A 
ATOM     20  C   UNL     1      -1.492 -10.766  -1.817  0.00  0.00    +0.039 A 
ATOM     21  C   UNL     1      -2.612 -11.577  -1.852  0.00  0.00    +0.006 A 
ATOM     22  C   UNL     1      -3.871 -11.026  -2.011  0.00  0.00    +0.039 A 
ATOM     23  C   UNL     1      -4.021  -9.658  -2.129  0.00  0.00    +0.133 A 
ATOM     24  F   UNL     1      -5.252  -9.121  -2.278  0.00  0.00    -0.205 F 
ATOM     25  F   UNL     1      -0.525  -8.607  -1.904  0.00  0.00    -0.205 F 
ENDBRANCH  17  18
ENDBRANCH  14  16
ENDBRANCH   3  14
TORSDOF 5
