REMARK  Name = ZINC22200890
REMARK  9 active torsions:
REMARK  status: ('A' for Active; 'I' for Inactive)
REMARK    1  A    between atoms: C_1  and  C_2
REMARK    2  A    between atoms: C_4  and  C_8
REMARK    3  A    between atoms: C_5  and  C_7
REMARK    4  A    between atoms: C_10  and  C_18
REMARK    5  A    between atoms: C_12  and  C_17
REMARK    6  A    between atoms: N_20  and  C_21
REMARK    7  A    between atoms: C_21  and  C_22
REMARK    8  A    between atoms: C_22  and  C_23
REMARK    9  A    between atoms: C_26  and  N_29
REMARK                            x       y       z     vdW  Elec       q    Type
REMARK                         _______ _______ _______ _____ _____    ______ ____
ROOT
ATOM      1  C   UNL     1       3.668   2.247  -0.680  0.00  0.00    +0.079 A 
ATOM      2  C   UNL     1       2.493   1.500  -0.814  0.00  0.00    +0.042 A 
ATOM      3  C   UNL     1       1.266   2.140  -0.678  0.00  0.00    +0.053 A 
ATOM      4  C   UNL     1       1.268   3.526  -0.414  0.00  0.00    +0.076 A 
ATOM      5  C   UNL     1       0.216   4.521  -0.217  0.00  0.00    +0.091 A 
ATOM      6  N   UNL     1       0.798   5.662  -0.004  0.00  0.00    -0.080 NA
ATOM      7  O   UNL     1       2.201   5.495  -0.035  0.00  0.00    -0.334 OA
ATOM      8  C   UNL     1       2.493   4.203  -0.288  0.00  0.00    +0.260 A 
ATOM      9  N   UNL     1       3.634   3.546  -0.427  0.00  0.00    -0.210 NA
ATOM     10  C   UNL     1      -1.269   4.270  -0.254  0.00  0.00    +0.070 C 
ENDROOT
BRANCH   1  14
ATOM     11  C   UNL     1       7.274  -1.297  -1.408  0.00  0.00    +0.086 C 
ATOM     12  C   UNL     1       6.549  -0.002  -1.147  0.00  0.00    +0.103 A 
ATOM     13  C   UNL     1       5.215   0.149  -1.104  0.00  0.00    +0.054 A 
ATOM     14  C   UNL     1       4.978   1.571  -0.825  0.00  0.00    +0.041 A 
ATOM     15  C   UNL     1       6.210   2.139  -0.731  0.00  0.00    +0.111 A 
ATOM     16  O   UNL     1       7.132   1.185  -0.921  0.00  0.00    -0.464 OA
ATOM     17  C   UNL     1       6.491   3.594  -0.458  0.00  0.00    +0.087 C 
ENDBRANCH   1  14
BRANCH   3  18
ATOM     18  C   UNL     1      -0.004   1.391  -0.812  0.00  0.00    +0.245 C 
ATOM     19  O   UNL     1      -1.060   1.935  -0.558  0.00  0.00    -0.270 OA
ATOM     20  N   UNL     1       0.011   0.106  -1.220  0.00  0.00    -0.311 N 
ATOM     21  H   UNL     1       0.967  -0.385  -1.453  0.00  0.00    +0.149 HD
BRANCH  20  22
ATOM     22  C   UNL     1      -1.245  -0.635  -1.352  0.00  0.00    +0.109 C 
BRANCH  22  23
ATOM     23  C   UNL     1      -0.949  -2.059  -1.827  0.00  0.00    +0.054 C 
BRANCH  23  24
ATOM     24  C   UNL     1      -2.242  -2.822  -1.964  0.00  0.00    -0.046 A 
ATOM     25  C   UNL     1      -2.738  -3.537  -0.889  0.00  0.00    +0.006 A 
ATOM     26  C   UNL     1      -3.925  -4.233  -1.009  0.00  0.00    +0.028 A 
ATOM     27  C   UNL     1      -4.614  -4.223  -2.214  0.00  0.00    +0.065 A 
ATOM     28  C   UNL     1      -4.111  -3.509  -3.293  0.00  0.00    +0.028 A 
ATOM     29  C   UNL     1      -2.927  -2.811  -3.165  0.00  0.00    +0.006 A 
BRANCH  27  30
ATOM     30  N   UNL     1      -5.816  -4.934  -2.341  0.00  0.00    -0.240 N 
ATOM     31  C   UNL     1      -6.411  -5.671  -1.376  0.00  0.00    +0.114 A 
ATOM     32  C   UNL     1      -7.548  -6.189  -1.895  0.00  0.00    +0.041 A 
ATOM     33  C   UNL     1      -7.647  -5.764  -3.225  0.00  0.00    +0.135 A 
ATOM     34  N   UNL     1      -6.610  -5.012  -3.493  0.00  0.00    -0.175 NA
ENDBRANCH  27  30
ENDBRANCH  23  24
ENDBRANCH  22  23
ENDBRANCH  20  22
ENDBRANCH   3  18
TORSDOF 6
