REMARK  Name = ZINC14460448
REMARK  4 active torsions:
REMARK  status: ('A' for Active; 'I' for Inactive)
REMARK    1  A    between atoms: C_1  and  N_2
REMARK    2  A    between atoms: N_2  and  C_3
REMARK    3  A    between atoms: C_9  and  C_11
REMARK    4  A    between atoms: C_18  and  C_27
REMARK                            x       y       z     vdW  Elec       q    Type
REMARK                         _______ _______ _______ _____ _____    ______ ____
ROOT
ATOM      1  C   UNL     1      -5.844   1.882   1.615  0.00  0.00    +0.058 A 
ATOM      2  C   UNL     1      -7.194   1.919   1.272  0.00  0.00    +0.015 A 
ATOM      3  C   UNL     1      -7.667   1.133   0.245  0.00  0.00    +0.001 A 
ATOM      4  C   UNL     1      -6.799   0.301  -0.442  0.00  0.00    +0.006 A 
ATOM      5  C   UNL     1      -5.463   0.245  -0.112  0.00  0.00    -0.019 A 
ATOM      6  C   UNL     1      -4.952   1.042   0.917  0.00  0.00    +0.044 A 
ATOM      7  N   UNL     1      -3.621   1.064   1.297  0.00  0.00    -0.336 N 
ATOM      8  C   UNL     1      -2.723   0.107   0.630  0.00  0.00    +0.105 C 
ATOM      9  C   UNL     1      -3.139   0.045  -0.824  0.00  0.00    +0.029 C 
ATOM     10  C   UNL     1      -4.528  -0.666  -0.807  0.00  0.00    +0.049 C 
ATOM     11  C   UNL     1      -4.712  -1.075  -2.221  0.00  0.00    -0.023 C 
ATOM     12  C   UNL     1      -3.514  -1.263  -2.765  0.00  0.00    -0.030 C 
ATOM     13  C   UNL     1      -2.421  -0.950  -1.740  0.00  0.00    +0.033 C 
ATOM     14  H   UNL     1      -3.248   2.001   1.252  0.00  0.00    +0.147 HD
ENDROOT
BRANCH   8  15
ATOM     15  C   UNL     1      -1.296   0.581   0.737  0.00  0.00    -0.026 A 
ATOM     16  C   UNL     1      -0.280  -0.331   0.958  0.00  0.00    +0.005 A 
ATOM     17  C   UNL     1       1.029   0.102   1.051  0.00  0.00    +0.002 A 
ATOM     18  C   UNL     1       1.323   1.447   0.928  0.00  0.00    +0.020 A 
ATOM     19  C   UNL     1       0.306   2.360   0.713  0.00  0.00    +0.041 A 
ATOM     20  C   UNL     1      -1.004   1.926   0.620  0.00  0.00    +0.025 A 
ATOM     21 CL   UNL     1       0.674   4.050   0.559  0.00  0.00    -0.084 Cl
ENDBRANCH   8  15
BRANCH   1  24
ATOM     22  C   UNL     1      -6.548   4.609   1.743  0.00  0.00    +0.132 C 
ATOM     23  N   UNL     1      -5.646   4.040   2.747  0.00  0.00    -0.297 N 
ATOM     24  C   UNL     1      -5.345   2.727   2.716  0.00  0.00    +0.248 C 
ATOM     25  O   UNL     1      -4.661   2.239   3.595  0.00  0.00    -0.270 OA
BRANCH  23  26
ATOM     26  C   UNL     1      -5.071   4.899   3.785  0.00  0.00    +0.076 C 
ATOM     27  C   UNL     1      -6.196   5.524   4.611  0.00  0.00    +0.022 C 
ATOM     28  C   UNL     1      -5.596   6.421   5.696  0.00  0.00    +0.002 C 
ATOM     29  C   UNL     1      -4.769   7.529   5.040  0.00  0.00    +0.000 C 
ATOM     30  C   UNL     1      -3.643   6.904   4.213  0.00  0.00    +0.002 C 
ATOM     31  C   UNL     1      -4.244   6.007   3.129  0.00  0.00    +0.022 C 
ENDBRANCH  23  26
ENDBRANCH   1  24
TORSDOF 3
