REMARK  Name = ZINC20729427
REMARK  6 active torsions:
REMARK  status: ('A' for Active; 'I' for Inactive)
REMARK    1  A    between atoms: C_1  and  C_2
REMARK    2  A    between atoms: C_14  and  O_28
REMARK    3  A    between atoms: C_16  and  C_18
REMARK    4  A    between atoms: C_21  and  O_24
REMARK    5  A    between atoms: O_24  and  C_25
REMARK    6  A    between atoms: C_25  and  C_26
REMARK                            x       y       z     vdW  Elec       q    Type
REMARK                         _______ _______ _______ _____ _____    ______ ____
ROOT
ATOM      1  C   UNL     1      -0.018   1.503   0.010  0.00  0.00    +0.068 C 
ATOM      2  C   UNL     1       0.002  -0.004   0.002  0.00  0.00    +0.066 A 
ATOM      3  C   UNL     1       0.008  -0.806  -1.125  0.00  0.00    +0.027 A 
ATOM      4  C   UNL     1       0.032  -2.129  -0.707  0.00  0.00    +0.167 A 
ATOM      5  N   UNL     1       0.033  -2.119   0.648  0.00  0.00    -0.179 N 
ATOM      6  N   UNL     1       0.023  -0.777   1.063  0.00  0.00    -0.167 NA
ATOM      7  C   UNL     1       0.047  -3.237   1.479  0.00  0.00    +0.253 A 
ATOM      8  N   UNL     1       0.066  -4.444   0.937  0.00  0.00    -0.219 NA
ATOM      9  C   UNL     1       0.079  -5.527   1.696  0.00  0.00    +0.116 A 
ATOM     10  C   UNL     1       0.074  -5.386   3.075  0.00  0.00    +0.039 A 
ATOM     11  C   UNL     1       0.055  -4.106   3.609  0.00  0.00    +0.116 A 
ATOM     12  N   UNL     1       0.047  -3.067   2.792  0.00  0.00    -0.219 NA
ATOM     13  N   UNL     1       0.057  -3.159  -1.599  0.00  0.00    -0.197 NA
ATOM     14  C   UNL     1       0.344  -2.912  -2.842  0.00  0.00    +0.190 C 
ATOM     15  C   UNL     1       0.716  -1.552  -3.354  0.00  0.00    +0.108 C 
ATOM     16  C   UNL     1      -0.011  -0.441  -2.587  0.00  0.00    +0.063 C 
ENDROOT
BRANCH  16  17
ATOM     17  C   UNL     1      -1.435  -0.336  -3.069  0.00  0.00    -0.039 A 
ATOM     18  C   UNL     1      -2.274  -1.432  -2.987  0.00  0.00    +0.008 A 
ATOM     19  C   UNL     1      -3.580  -1.338  -3.429  0.00  0.00    +0.046 A 
ATOM     20  C   UNL     1      -4.049  -0.143  -3.954  0.00  0.00    +0.122 A 
ATOM     21  C   UNL     1      -3.206   0.955  -4.035  0.00  0.00    +0.046 A 
ATOM     22  C   UNL     1      -1.902   0.858  -3.587  0.00  0.00    +0.008 A 
BRANCH  20  23
ATOM     23  O   UNL     1      -5.333  -0.049  -4.389  0.00  0.00    -0.480 OA
BRANCH  23  24
ATOM     24  C   UNL     1      -5.748   1.213  -4.918  0.00  0.00    +0.317 C 
BRANCH  24  25
ATOM     25  C   UNL     1      -7.157   1.130  -5.337  0.00  0.00    -0.065 C 
ATOM     26  C   UNL     1      -8.280   1.064  -5.671  0.00  0.00    +0.007 C 
ENDBRANCH  24  25
ENDBRANCH  23  24
ENDBRANCH  20  23
ENDBRANCH  16  17
BRANCH  14  27
ATOM     27  O   UNL     1       0.307  -3.935  -3.720  0.00  0.00    -0.495 OA
ATOM     28  H   UNL     1       0.061  -4.783  -3.326  0.00  0.00    +0.293 HD
ENDBRANCH  14  27
TORSDOF 5
