REMARK  Name = ZINC11982111
REMARK  5 active torsions:
REMARK  status: ('A' for Active; 'I' for Inactive)
REMARK    1  A    between atoms: C_5  and  C_7
REMARK    2  A    between atoms: C_7  and  C_8
REMARK    3  A    between atoms: C_8  and  C_15
REMARK    4  A    between atoms: C_20  and  C_21
REMARK    5  A    between atoms: C_20  and  N_56
REMARK                            x       y       z     vdW  Elec       q    Type
REMARK                         _______ _______ _______ _____ _____    ______ ____
ROOT
ATOM      1  C   UNL     1      -0.718   1.436  -1.216  0.00  0.00    +0.119 C 
ATOM      2  C   UNL     1      -2.158   0.962  -1.231  0.00  0.00    +0.245 C 
ATOM      3  O   UNL     1      -2.552  -0.182  -1.307  0.00  0.00    -0.273 OA
ATOM      4  N   UNL     1      -2.909   2.078  -1.143  0.00  0.00    -0.238 N 
ATOM      5  C   UNL     1      -2.151   3.179  -1.076  0.00  0.00    +0.307 C 
ATOM      6  O   UNL     1      -2.601   4.304  -0.991  0.00  0.00    -0.252 OA
ATOM      7  N   UNL     1      -0.836   2.900  -1.112  0.00  0.00    -0.284 N 
ATOM      8  H   UNL     1      -3.879   2.082  -1.130  0.00  0.00    +0.159 HD
ATOM      9  H   UNL     1      -0.107   3.539  -1.076  0.00  0.00    +0.151 HD
ENDROOT
BRANCH   1  10
ATOM     10  C   UNL     1      -0.007   1.040  -2.512  0.00  0.00    +0.018 C 
ATOM     11  C   UNL     1       1.419   1.597  -2.504  0.00  0.00    -0.013 C 
ATOM     12  C   UNL     1       2.103   1.250  -3.829  0.00  0.00    -0.078 C 
ATOM     13  C   UNL     1      -0.019   1.272  -4.998  0.00  0.00    -0.078 C 
ATOM     14  C   UNL     1      -0.767   1.620  -3.709  0.00  0.00    -0.013 C 
ATOM     15  N   UNL     1       1.337   1.857  -4.938  0.00  0.00    +0.380 N 
ATOM     16  H   UNL     1       1.258   2.868  -4.774  0.00  0.00    -0.082 HD
BRANCH  15  17
ATOM     17  C   UNL     1       2.041   1.634  -6.218  0.00  0.00    -0.075 C 
BRANCH  17  18
ATOM     18  C   UNL     1       3.479   2.139  -6.091  0.00  0.00    -0.024 C 
ATOM     19  C   UNL     1       4.229   1.896  -7.408  0.00  0.00    +0.006 C 
ATOM     20  C   UNL     1       5.704   2.244  -7.196  0.00  0.00    +0.027 C 
ATOM     21  C   UNL     1       5.830   3.593  -6.551  0.00  0.00    -0.031 C 
ATOM     22  C   UNL     1       4.861   4.199  -5.943  0.00  0.00    -0.031 C 
ATOM     23  C   UNL     1       3.474   3.642  -5.808  0.00  0.00    +0.028 C 
ENDBRANCH  17  18
ENDBRANCH  15  17
ENDBRANCH   1  10
BRANCH   1  24
ATOM     24  C   UNL     1       0.023   0.868  -0.003  0.00  0.00    +0.073 C 
BRANCH  24  29
ATOM     25  C   UNL     1      -0.852   2.849   3.089  0.00  0.00    +0.000 A 
ATOM     26  C   UNL     1      -1.930   2.135   3.580  0.00  0.00    +0.003 A 
ATOM     27  C   UNL     1      -2.377   1.010   2.913  0.00  0.00    +0.038 A 
ATOM     28  C   UNL     1      -1.745   0.599   1.751  0.00  0.00    +0.127 A 
ATOM     29  C   UNL     1      -0.666   1.314   1.260  0.00  0.00    -0.010 A 
ATOM     30  C   UNL     1      -0.217   2.435   1.933  0.00  0.00    +0.006 A 
ATOM     31  F   UNL     1      -2.180  -0.500   1.098  0.00  0.00    -0.205 F 
ENDBRANCH  24  29
ENDBRANCH   1  24
TORSDOF 5
