REMARK  Name = ZINC01124486
REMARK  6 active torsions:
REMARK  status: ('A' for Active; 'I' for Inactive)
REMARK    1  A    between atoms: C_1  and  C_2
REMARK    2  A    between atoms: C_2  and  C_3
REMARK    3  A    between atoms: C_14  and  C_30
REMARK    4  A    between atoms: N_16  and  C_24
REMARK    5  A    between atoms: C_19  and  N_23
REMARK    6  A    between atoms: C_20  and  C_21
REMARK                            x       y       z     vdW  Elec       q    Type
REMARK                         _______ _______ _______ _____ _____    ______ ____
ROOT
ATOM      1  C   UNL     1       0.457  -4.511   1.970  0.00  0.00    -0.026 A 
ATOM      2  C   UNL     1       0.853  -4.212   3.265  0.00  0.00    +0.005 A 
ATOM      3  C   UNL     1       1.619  -3.103   3.557  0.00  0.00    +0.001 A 
ATOM      4  C   UNL     1       2.031  -2.225   2.559  0.00  0.00    +0.007 A 
ATOM      5  C   UNL     1       1.641  -2.515   1.270  0.00  0.00    -0.001 A 
ATOM      6  C   UNL     1       0.865  -3.639   0.960  0.00  0.00    +0.041 A 
ATOM      7  N   UNL     1       0.618  -3.693  -0.400  0.00  0.00    -0.284 N 
ATOM      8  C   UNL     1       1.187  -2.661  -1.059  0.00  0.00    +0.238 C 
ATOM      9  O   UNL     1       1.139  -2.453  -2.253  0.00  0.00    -0.274 OA
ATOM     10  C   UNL     1       1.894  -1.813  -0.025  0.00  0.00    +0.145 C 
ATOM     11  C   UNL     1       1.326  -0.422  -0.013  0.00  0.00    +0.062 A 
ATOM     12  C   UNL     1       0.002  -0.004   0.002  0.00  0.00    +0.069 A 
ATOM     13  N   UNL     1      -0.016   1.308   0.009  0.00  0.00    -0.168 NA
ATOM     14  N   UNL     1       1.310   1.771  -0.001  0.00  0.00    -0.200 N 
ATOM     15  C   UNL     1       2.122   0.692  -0.015  0.00  0.00    +0.230 A 
ATOM     16  O   UNL     1       3.476   0.622  -0.029  0.00  0.00    -0.423 OA
ATOM     17  C   UNL     1       4.044  -0.568  -0.311  0.00  0.00    +0.201 C 
ATOM     18  C   UNL     1       3.365  -1.739  -0.328  0.00  0.00    +0.110 C 
ATOM     19  C   UNL     1      -1.207  -0.903   0.008  0.00  0.00    +0.068 C 
ATOM     20  H   UNL     1       0.099  -4.390  -0.830  0.00  0.00    +0.155 HD
ENDROOT
BRANCH  14  21
ATOM     21  C   UNL     1       1.717   3.112   0.002  0.00  0.00    +0.069 A 
ATOM     22  C   UNL     1       2.864   3.489   0.687  0.00  0.00    +0.028 A 
ATOM     23  C   UNL     1       3.266   4.810   0.684  0.00  0.00    +0.002 A 
ATOM     24  C   UNL     1       2.520   5.760   0.009  0.00  0.00    +0.000 A 
ATOM     25  C   UNL     1       1.374   5.388  -0.669  0.00  0.00    +0.002 A 
ATOM     26  C   UNL     1       0.970   4.067  -0.674  0.00  0.00    +0.028 A 
ENDBRANCH  14  21
BRANCH  17  27
ATOM     27  N   UNL     1       5.386  -0.593  -0.598  0.00  0.00    -0.328 N 
ATOM     28  H   UNL     1       5.823  -1.434  -0.804  0.00  0.00    +0.145 HD
ATOM     29  H   UNL     1       5.899   0.231  -0.593  0.00  0.00    +0.145 HD
ENDBRANCH  17  27
BRANCH   1  31
ATOM     30  C   UNL     1       0.533  -6.884   1.255  0.00  0.00    +0.009 C 
ATOM     31  C   UNL     1      -0.380  -5.727   1.666  0.00  0.00    +0.033 C 
ENDBRANCH   1  31
BRANCH  18  32
ATOM     32  C   UNL     1       4.070  -2.944  -0.645  0.00  0.00    +0.102 C 
ATOM     33  N   UNL     1       4.629  -3.901  -0.896  0.00  0.00    -0.191 NA
ENDBRANCH  18  32
TORSDOF 4
