REMARK  Name = ZINC67271546
REMARK  6 active torsions:
REMARK  status: ('A' for Active; 'I' for Inactive)
REMARK    1  A    between atoms: C_3  and  C_14
REMARK    2  A    between atoms: C_5  and  S_7
REMARK    3  A    between atoms: S_7  and  C_10
REMARK    4  A    between atoms: C_10  and  C_11
REMARK    5  A    between atoms: C_21  and  C_23
REMARK    6  A    between atoms: C_23  and  C_24
REMARK                            x       y       z     vdW  Elec       q    Type
REMARK                         _______ _______ _______ _____ _____    ______ ____
ROOT
ATOM      1  C   UNL     1       3.618   2.224  -0.698  0.00  0.00    +0.247 C 
ATOM      2  O   UNL     1       4.648   1.585  -0.614  0.00  0.00    -0.270 OA
ATOM      3  N   UNL     1       3.635   3.558  -0.502  0.00  0.00    -0.294 N 
ATOM      4  C   UNL     1       2.390   4.336  -0.543  0.00  0.00    +0.108 C 
ATOM      5  C   UNL     1       2.559   5.484  -1.544  0.00  0.00    +0.019 C 
ATOM      6  C   UNL     1       3.799   6.301  -1.172  0.00  0.00    +0.003 C 
ATOM      7  C   UNL     1       5.040   5.409  -1.246  0.00  0.00    +0.023 C 
ATOM      8  C   UNL     1       4.898   4.259  -0.236  0.00  0.00    +0.085 C 
ENDROOT
BRANCH   1  11
ATOM      9  C   UNL     1      -0.025   1.309  -0.710  0.00  0.00    +0.003 A 
ATOM     10  C   UNL     1       1.159   1.952  -0.409  0.00  0.00    +0.013 A 
ATOM     11  C   UNL     1       2.346   1.540  -1.015  0.00  0.00    +0.039 A 
ATOM     12  C   UNL     1       2.329   0.479  -1.923  0.00  0.00    +0.040 A 
ATOM     13  C   UNL     1       1.139  -0.155  -2.214  0.00  0.00    +0.089 A 
ATOM     14  C   UNL     1      -0.035   0.259  -1.610  0.00  0.00    +0.027 A 
BRANCH  13  15
ATOM     15  S   UNL     1       1.114  -1.493  -3.360  0.00  0.00    +0.002 S 
ATOM     16  O   UNL     1      -0.206  -1.496  -3.886  0.00  0.00    -0.169 OA
ATOM     17  O   UNL     1       2.231  -1.266  -4.207  0.00  0.00    -0.169 OA
BRANCH  15  18
ATOM     18  C   UNL     1       1.387  -2.976  -2.350  0.00  0.00    +0.243 C 
BRANCH  18  19
ATOM     19  C   UNL     1       1.385  -4.213  -3.250  0.00  0.00    +0.362 C 
ATOM     20  F   UNL     1       0.151  -4.313  -3.902  0.00  0.00    -0.207 F 
ATOM     21  F   UNL     1       2.406  -4.101  -4.199  0.00  0.00    -0.207 F 
ENDBRANCH  18  19
ENDBRANCH  15  18
ENDBRANCH  13  15
ENDBRANCH   1  11
BRANCH   8  22
ATOM     22  C   UNL     1       6.069   3.287  -0.396  0.00  0.00    +0.118 C 
BRANCH  22  23
ATOM     23  C   UNL     1       6.140   2.384   0.809  0.00  0.00    +0.212 C 
ATOM     24  O   UNL     1       5.334   2.507   1.707  0.00  0.00    -0.276 OA
ATOM     25  N   UNL     1       7.099   1.441   0.889  0.00  0.00    -0.329 N 
ATOM     26  H   UNL     1       7.743   1.343   0.171  0.00  0.00    +0.145 HD
ATOM     27  H   UNL     1       7.145   0.860   1.664  0.00  0.00    +0.145 HD
ENDBRANCH  22  23
ENDBRANCH   8  22
TORSDOF 6
