REMARK  Name = ZINC24503582
REMARK  5 active torsions:
REMARK  status: ('A' for Active; 'I' for Inactive)
REMARK    1  A    between atoms: C_1  and  C_2
REMARK    2  A    between atoms: C_3  and  N_9
REMARK    3  A    between atoms: C_13  and  S_15
REMARK    4  A    between atoms: S_15  and  C_16
REMARK    5  A    between atoms: C_16  and  C_17
REMARK                            x       y       z     vdW  Elec       q    Type
REMARK                         _______ _______ _______ _____ _____    ______ ____
ROOT
ATOM      1  S   UNL     1       0.471  -1.921  -7.858  0.00  0.00    -0.089 S 
ENDROOT
BRANCH   1   6
ATOM      2  N   UNL     1      -0.010   0.010  -2.412  0.00  0.00    -0.292 N 
ATOM      3  C   UNL     1       0.098  -0.676  -3.617  0.00  0.00    +0.187 A 
ATOM      4  N   UNL     1       0.129  -1.976  -3.839  0.00  0.00    -0.125 NA
ATOM      5  N   UNL     1       0.243  -2.448  -5.126  0.00  0.00    -0.133 NA
ATOM      6  C   UNL     1       0.321  -1.598  -6.132  0.00  0.00    +0.160 A 
ATOM      7  S   UNL     1       0.226  -0.032  -5.278  0.00  0.00    -0.024 S 
ATOM      8  H   UNL     1      -0.090   0.976  -2.409  0.00  0.00    +0.154 HD
BRANCH   2  11
ATOM      9  C   UNL     1      -0.515   1.455  -0.013  0.00  0.00    +0.047 C 
ATOM     10  C   UNL     1      -0.247  -0.028  -0.010  0.00  0.00    -0.011 A 
ATOM     11  C   UNL     1      -0.005  -0.694  -1.205  0.00  0.00    +0.037 A 
ATOM     12  C   UNL     1       0.242  -2.061  -1.197  0.00  0.00    +0.023 A 
ATOM     13  C   UNL     1       0.246  -2.754  -0.002  0.00  0.00    +0.003 A 
ATOM     14  C   UNL     1       0.005  -2.090   1.185  0.00  0.00    +0.020 A 
ATOM     15  C   UNL     1      -0.236  -0.726   1.183  0.00  0.00    +0.046 A 
ATOM     16 CL   UNL     1      -0.532   0.105   2.677  0.00  0.00    -0.083 Cl
ENDBRANCH   2  11
ENDBRANCH   1   6
BRANCH   1  17
ATOM     17  C   UNL     1       0.496  -3.732  -7.965  0.00  0.00    +0.150 C 
BRANCH  17  18
ATOM     18  C   UNL     1       0.623  -4.148  -9.407  0.00  0.00    +0.121 A 
ATOM     19  N   UNL     1       0.656  -5.469  -9.719  0.00  0.00    -0.310 N 
ATOM     20  H   UNL     1       0.596  -6.127  -9.008  0.00  0.00    +0.170 HD
ATOM     21  C   UNL     1       0.768  -5.885 -10.995  0.00  0.00    +0.260 A 
ATOM     22  O   UNL     1       0.796  -7.075 -11.260  0.00  0.00    -0.267 OA
ATOM     23  C   UNL     1       0.855  -4.904 -12.035  0.00  0.00    +0.075 A 
ATOM     24  C   UNL     1       0.981  -5.125 -13.483  0.00  0.00    -0.023 A 
ATOM     25  C   UNL     1       1.046  -4.032 -14.261  0.00  0.00    -0.004 A 
ATOM     26  S   UNL     1       0.940  -2.659 -13.136  0.00  0.00    -0.073 S 
ATOM     27  C   UNL     1       0.813  -3.567 -11.617  0.00  0.00    +0.116 A 
ATOM     28  N   UNL     1       0.694  -3.231 -10.335  0.00  0.00    -0.226 NA
ATOM     29  C   UNL     1       1.179  -4.380 -15.720  0.00  0.00    +0.043 C 
ATOM     30  C   UNL     1       1.624  -5.859 -15.726  0.00  0.00    +0.010 C 
ATOM     31  C   UNL     1       1.060  -6.362 -14.383  0.00  0.00    +0.037 C 
ENDBRANCH  17  18
ENDBRANCH   1  17
TORSDOF 4
