REMARK  Name = ZINC36593209
REMARK  10 active torsions:
REMARK  status: ('A' for Active; 'I' for Inactive)
REMARK    1  A    between atoms: C_1  and  C_2
REMARK    2  A    between atoms: C_2  and  C_3
REMARK    3  A    between atoms: C_2  and  C_4
REMARK    4  A    between atoms: C_2  and  N_5
REMARK    5  A    between atoms: N_5  and  C_6
REMARK    6  A    between atoms: C_6  and  C_8
REMARK    7  A    between atoms: C_6  and  C_15
REMARK    8  A    between atoms: C_13  and  O_14
REMARK    9  A    between atoms: N_17  and  C_18
REMARK   10  A    between atoms: C_24  and  C_26
REMARK                            x       y       z     vdW  Elec       q    Type
REMARK                         _______ _______ _______ _____ _____    ______ ____
ROOT
ATOM      1  C   UNL     1       2.511  -0.430  -1.966  0.00  0.00    +0.196 C 
ENDROOT
BRANCH   1   2
ATOM      2  C   UNL     1       2.283   1.059  -2.006  0.00  0.00    +0.023 A 
ATOM      3  C   UNL     1       1.344   1.637  -1.173  0.00  0.00    +0.009 A 
ATOM      4  C   UNL     1       1.134   3.003  -1.210  0.00  0.00    +0.001 A 
ATOM      5  C   UNL     1       1.864   3.794  -2.078  0.00  0.00    +0.004 A 
ATOM      6  C   UNL     1       2.804   3.221  -2.912  0.00  0.00    +0.046 A 
ATOM      7  C   UNL     1       3.020   1.851  -2.874  0.00  0.00    +0.122 A 
BRANCH   7   8
ATOM      8  O   UNL     1       3.949   1.285  -3.689  0.00  0.00    -0.506 OA
ATOM      9  H   UNL     1       3.602   1.010  -4.549  0.00  0.00    +0.292 HD
ENDBRANCH   7   8
ENDBRANCH   1   2
BRANCH   1  10
ATOM     10  C   UNL     1       3.748  -0.728  -1.160  0.00  0.00    +0.238 C 
ATOM     11  O   UNL     1       3.647  -1.175  -0.036  0.00  0.00    -0.273 OA
ATOM     12  N   UNL     1       4.968  -0.498  -1.686  0.00  0.00    -0.311 N 
ATOM     13  H   UNL     1       5.048  -0.141  -2.584  0.00  0.00    +0.149 HD
BRANCH  12  14
ATOM     14  C   UNL     1       6.171  -0.787  -0.902  0.00  0.00    +0.073 C 
ATOM     15  C   UNL     1       6.494   0.409  -0.004  0.00  0.00    +0.022 C 
ATOM     16  C   UNL     1       7.751   0.107   0.814  0.00  0.00    +0.002 C 
ATOM     17  C   UNL     1       8.925  -0.154  -0.131  0.00  0.00    +0.000 C 
ATOM     18  C   UNL     1       8.602  -1.350  -1.029  0.00  0.00    +0.002 C 
ATOM     19  C   UNL     1       7.345  -1.048  -1.847  0.00  0.00    +0.022 C 
ENDBRANCH  12  14
ENDBRANCH   1  10
BRANCH   1  20
ATOM     20  N   UNL     1       1.355  -1.085  -1.347  0.00  0.00    -0.277 N 
ATOM     21  C   UNL     1       0.905  -0.664  -0.148  0.00  0.00    +0.248 C 
ATOM     22  O   UNL     1      -0.197  -1.000   0.239  0.00  0.00    -0.270 OA
BRANCH  21  23
ATOM     23  C   UNL     1       1.751   0.205   0.695  0.00  0.00    +0.037 A 
ATOM     24  C   UNL     1       2.880   0.823   0.153  0.00  0.00    +0.016 A 
ATOM     25  C   UNL     1       3.666   1.633   0.945  0.00  0.00    +0.039 A 
ATOM     26  C   UNL     1       3.337   1.833   2.277  0.00  0.00    +0.123 A 
ATOM     27  C   UNL     1       2.218   1.222   2.820  0.00  0.00    +0.039 A 
ATOM     28  C   UNL     1       1.422   0.415   2.036  0.00  0.00    +0.016 A 
ATOM     29  F   UNL     1       4.112   2.627   3.048  0.00  0.00    -0.205 F 
ENDBRANCH  21  23
BRANCH  20  31
ATOM     30  C   UNL     1       1.620  -2.765  -3.104  0.00  0.00    +0.031 C 
ATOM     31  C   UNL     1       0.690  -2.196  -2.031  0.00  0.00    +0.030 C 
ATOM     32  C   UNL     1      -0.598  -1.693  -2.687  0.00  0.00    +0.031 C 
ATOM     33  C   UNL     1       0.351  -3.290  -1.017  0.00  0.00    +0.031 C 
ENDBRANCH  20  31
ENDBRANCH   1  20
TORSDOF 7
