REMARK  Name = ZINC66740424
REMARK  2 active torsions:
REMARK  status: ('A' for Active; 'I' for Inactive)
REMARK    1  A    between atoms: C_1  and  C_2
REMARK    2  A    between atoms: C_14  and  C_22
REMARK                            x       y       z     vdW  Elec       q    Type
REMARK                         _______ _______ _______ _____ _____    ______ ____
ROOT
ATOM      1  C   UNL     1      -0.018   1.503   0.010  0.00  0.00    +0.046 C 
ATOM      2  C   UNL     1       0.002  -0.004   0.002  0.00  0.00    -0.028 A 
ATOM      3  C   UNL     1       0.006  -0.720  -1.185  0.00  0.00    +0.020 A 
ATOM      4  C   UNL     1       0.025  -2.100  -1.206  0.00  0.00    +0.019 A 
ATOM      5  C   UNL     1       0.040  -2.842  -0.029  0.00  0.00    +0.025 A 
ATOM      6  C   UNL     1       0.037  -2.137   1.154  0.00  0.00    +0.025 A 
ATOM      7  C   UNL     1       0.023  -0.737   1.189  0.00  0.00    +0.044 A 
ATOM      8  N   UNL     1       0.029  -0.289   2.498  0.00  0.00    -0.281 N 
ATOM      9  C   UNL     1       0.054  -1.307   3.382  0.00  0.00    +0.264 C 
ATOM     10  O   UNL     1       0.065  -1.211   4.591  0.00  0.00    -0.271 OA
ATOM     11  C   UNL     1       0.051  -2.595   2.581  0.00  0.00    +0.206 C 
ATOM     12  N   UNL     1      -1.170  -3.357   2.881  0.00  0.00    -0.309 N 
ATOM     13  C   UNL     1      -1.153  -4.726   2.580  0.00  0.00    +0.082 A 
ATOM     14  C   UNL     1      -2.093  -5.639   2.319  0.00  0.00    +0.055 A 
ATOM     15  N   UNL     1      -1.444  -6.819   2.090  0.00  0.00    -0.279 N 
ATOM     16  H   UNL     1      -1.880  -7.658   1.872  0.00  0.00    +0.189 HD
ATOM     17  N   UNL     1      -0.168  -6.657   2.206  0.00  0.00    -0.167 NA
ATOM     18  C   UNL     1       0.098  -5.421   2.506  0.00  0.00    +0.168 A 
ATOM     19  C   UNL     1       1.354  -4.691   2.766  0.00  0.00    +0.268 C 
ATOM     20  O   UNL     1       2.417  -5.271   2.879  0.00  0.00    -0.268 OA
ATOM     21  N   UNL     1       1.267  -3.344   2.873  0.00  0.00    -0.278 N 
ATOM     22  C   UNL     1      -3.582  -5.410   2.283  0.00  0.00    +0.067 C 
ATOM     23 BR   UNL     1       0.028  -3.001  -2.869  0.00  0.00    -0.050 Br
ATOM     24  H   UNL     1       0.018   0.648   2.750  0.00  0.00    +0.155 HD
ATOM     25  H   UNL     1      -1.951  -2.932   3.269  0.00  0.00    +0.149 HD
ATOM     26  H   UNL     1       2.053  -2.852   3.157  0.00  0.00    +0.152 HD
ENDROOT
TORSDOF 0
