REMARK  Name = ZINC11881124
REMARK  8 active torsions:
REMARK  status: ('A' for Active; 'I' for Inactive)
REMARK    1  A    between atoms: C_1  and  C_2
REMARK    2  A    between atoms: C_2  and  C_3
REMARK    3  A    between atoms: C_3  and  C_4
REMARK    4  A    between atoms: C_4  and  C_17
REMARK    5  A    between atoms: N_7  and  C_11
REMARK    6  A    between atoms: C_11  and  C_12
REMARK    7  A    between atoms: C_23  and  C_25
REMARK    8  A    between atoms: C_25  and  C_26
REMARK                            x       y       z     vdW  Elec       q    Type
REMARK                         _______ _______ _______ _____ _____    ______ ____
ROOT
ATOM      1  C   UNL     1      -1.235   2.107   0.018  0.00  0.00    +0.115 C 
ATOM      2  C   UNL     1      -0.014   1.208   0.009  0.00  0.00    +0.247 C 
ATOM      3  O   UNL     1       0.002  -0.004   0.002  0.00  0.00    -0.273 OA
ATOM      4  N   UNL     1       1.048   2.037   0.003  0.00  0.00    -0.217 N 
ATOM      5  C   UNL     1       0.673   3.321   0.013  0.00  0.00    +0.310 C 
ATOM      6  O   UNL     1       1.453   4.253   0.010  0.00  0.00    -0.252 OA
ATOM      7  N   UNL     1      -0.664   3.465   0.026  0.00  0.00    -0.285 N 
ATOM      8  H   UNL     1      -1.157   4.301   0.035  0.00  0.00    +0.151 HD
ENDROOT
BRANCH   1   9
ATOM      9  C   UNL     1      -2.068   1.870   1.279  0.00  0.00    +0.024 C 
ATOM     10  C   UNL     1      -3.283   2.800   1.270  0.00  0.00    +0.025 C 
ATOM     11  C   UNL     1      -4.134   2.535   2.517  0.00  0.00    +0.108 C 
ATOM     12  N   UNL     1      -3.282   2.666   3.707  0.00  0.00    -0.301 N 
ATOM     13  C   UNL     1      -2.041   1.883   3.777  0.00  0.00    +0.108 C 
ATOM     14  C   UNL     1      -1.214   2.155   2.517  0.00  0.00    +0.025 C 
ATOM     15  C   UNL     1      -3.633   3.490   4.714  0.00  0.00    +0.220 C 
ATOM     16  O   UNL     1      -2.921   3.590   5.691  0.00  0.00    -0.275 OA
BRANCH  15  17
ATOM     17  C   UNL     1      -4.909   4.287   4.627  0.00  0.00    +0.126 C 
BRANCH  17  18
ATOM     18  C   UNL     1      -5.066   5.121   5.872  0.00  0.00    -0.065 C 
ATOM     19  C   UNL     1      -4.644   6.344   5.841  0.00  0.00    -0.027 C 
ATOM     20  C   UNL     1      -4.728   7.293   7.001  0.00  0.00    +0.027 C 
ATOM     21  C   UNL     1      -5.721   6.770   8.040  0.00  0.00    +0.004 C 
ATOM     22  C   UNL     1      -5.392   5.300   8.329  0.00  0.00    +0.005 C 
ATOM     23  C   UNL     1      -5.697   4.480   7.074  0.00  0.00    +0.031 C 
ENDBRANCH  17  18
ENDBRANCH  15  17
ENDBRANCH   1   9
BRANCH   1  24
ATOM     24  C   UNL     1      -2.079   1.882  -1.237  0.00  0.00    +0.035 C 
BRANCH  24  26
ATOM     25  C   UNL     1      -2.081   1.955  -3.735  0.00  0.00    +0.004 C 
ATOM     26  C   UNL     1      -1.236   2.180  -2.479  0.00  0.00    -0.001 C 
ENDBRANCH  24  26
ENDBRANCH   1  24
BRANCH   4  27
ATOM     27  C   UNL     1       2.443   1.587  -0.013  0.00  0.00    +0.192 C 
BRANCH  27  28
ATOM     28  C   UNL     1       2.907   1.440  -1.439  0.00  0.00    +0.123 A 
ATOM     29  C   UNL     1       3.480   2.404  -2.183  0.00  0.00    +0.046 A 
ATOM     30  C   UNL     1       3.755   1.835  -3.447  0.00  0.00    +0.041 A 
ATOM     31  C   UNL     1       3.327   0.561  -3.404  0.00  0.00    +0.195 A 
ATOM     32  O   UNL     1       2.814   0.327  -2.185  0.00  0.00    -0.466 OA
ENDBRANCH  27  28
ENDBRANCH   4  27
TORSDOF 7
