REMARK  Name = ZINC39631175
REMARK  12 active torsions:
REMARK  status: ('A' for Active; 'I' for Inactive)
REMARK    1  A    between atoms: C_1  and  C_2
REMARK    2  A    between atoms: C_6  and  C_8
REMARK    3  A    between atoms: C_12  and  C_21
REMARK    4  A    between atoms: N_23  and  C_24
REMARK    5  A    between atoms: C_24  and  C_26
REMARK    6  A    between atoms: C_24  and  C_27
REMARK    7  A    between atoms: C_27  and  C_28
REMARK    8  A    between atoms: C_28  and  C_29
REMARK    9  A    between atoms: C_29  and  C_30
REMARK   10  A    between atoms: C_30  and  C_31
REMARK   11  A    between atoms: C_30  and  C_32
REMARK   12  A    between atoms: C_30  and  O_33
REMARK                            x       y       z     vdW  Elec       q    Type
REMARK                         _______ _______ _______ _____ _____    ______ ____
ROOT
ATOM      1  C   UNL     1       0.141  -2.785   2.227  0.00  0.00    +0.247 C 
ATOM      2  O   UNL     1       0.172  -2.146   3.260  0.00  0.00    -0.270 OA
ATOM      3  N   UNL     1      -0.003  -4.124   2.266  0.00  0.00    -0.296 N 
ATOM      4  C   UNL     1       0.068  -5.079   1.135  0.00  0.00    +0.121 C 
ATOM      5  C   UNL     1       0.819  -6.303   1.705  0.00  0.00    +0.100 C 
ATOM      6  C   UNL     1       0.593  -6.231   3.224  0.00  0.00    -0.004 C 
ATOM      7  C   UNL     1      -0.262  -4.976   3.452  0.00  0.00    +0.115 C 
ATOM      8  C   UNL     1      -0.149  -7.472   3.708  0.00  0.00    -0.010 C 
ATOM      9  C   UNL     1      -0.310  -7.404   5.230  0.00  0.00    -0.082 C 
ATOM     10  N   UNL     1       1.012  -7.324   5.861  0.00  0.00    +0.379 N 
ATOM     11  C   UNL     1       1.682  -6.080   5.462  0.00  0.00    -0.082 C 
ATOM     12  C   UNL     1       1.928  -6.092   3.950  0.00  0.00    -0.010 C 
ATOM     13  H   UNL     1       0.906  -7.340   6.864  0.00  0.00    -0.086 HD
ATOM     14  H   UNL     1       1.570  -8.113   5.571  0.00  0.00    -0.086 HD
ENDROOT
BRANCH   1  20
ATOM     15  C   UNL     1      -0.576  -2.717  -2.711  0.00  0.00    +0.044 C 
ATOM     16  C   UNL     1      -0.081  -2.056  -1.451  0.00  0.00    -0.050 A 
ATOM     17  C   UNL     1       0.489  -0.796  -1.511  0.00  0.00    +0.003 A 
ATOM     18  C   UNL     1       0.946  -0.182  -0.359  0.00  0.00    +0.001 A 
ATOM     19  C   UNL     1       0.836  -0.822   0.859  0.00  0.00    +0.013 A 
ATOM     20  C   UNL     1       0.262  -2.092   0.926  0.00  0.00    +0.037 A 
ATOM     21  C   UNL     1      -0.202  -2.704  -0.240  0.00  0.00    +0.016 A 
ENDBRANCH   1  20
BRANCH   5  22
ATOM     22  C   UNL     1       0.242  -7.579   1.147  0.00  0.00    +0.218 C 
ATOM     23  O   UNL     1      -0.938  -7.641   0.871  0.00  0.00    -0.275 OA
ATOM     24  N   UNL     1       1.036  -8.651   0.955  0.00  0.00    -0.312 N 
ATOM     25  H   UNL     1       1.980  -8.601   1.175  0.00  0.00    +0.149 HD
BRANCH  24  26
ATOM     26  C   UNL     1       0.476  -9.891   0.412  0.00  0.00    +0.070 C 
ATOM     27  C   UNL     1       0.455  -9.816  -1.116  0.00  0.00    +0.028 C 
BRANCH  26  28
ATOM     28  C   UNL     1       1.337 -11.076   0.853  0.00  0.00    +0.022 C 
BRANCH  28  29
ATOM     29  C   UNL     1       1.257 -11.226   2.374  0.00  0.00    +0.005 C 
BRANCH  29  30
ATOM     30  C   UNL     1       2.119 -12.411   2.815  0.00  0.00    +0.034 C 
BRANCH  30  31
ATOM     31  C   UNL     1       2.039 -12.562   4.335  0.00  0.00    +0.061 C 
ATOM     32  C   UNL     1       2.995 -13.666   4.789  0.00  0.00    +0.041 C 
ATOM     33  C   UNL     1       2.432 -11.241   5.000  0.00  0.00    +0.041 C 
BRANCH  31  34
ATOM     34  O   UNL     1       0.703 -12.905   4.710  0.00  0.00    -0.389 OA
ATOM     35  H   UNL     1       0.387 -13.733   4.325  0.00  0.00    +0.210 HD
ENDBRANCH  31  34
ENDBRANCH  30  31
ENDBRANCH  29  30
ENDBRANCH  28  29
ENDBRANCH  26  28
ENDBRANCH  24  26
ENDBRANCH   5  22
TORSDOF 8
