REMARK  Name = ZINC41585967
REMARK  7 active torsions:
REMARK  status: ('A' for Active; 'I' for Inactive)
REMARK    1  A    between atoms: C_1  and  C_2
REMARK    2  A    between atoms: C_3  and  C_27
REMARK    3  A    between atoms: C_9  and  O_26
REMARK    4  A    between atoms: C_10  and  C_13
REMARK    5  A    between atoms: C_13  and  N_14
REMARK    6  A    between atoms: C_30  and  O_33
REMARK    7  A    between atoms: O_33  and  C_34
REMARK                            x       y       z     vdW  Elec       q    Type
REMARK                         _______ _______ _______ _____ _____    ______ ____
ROOT
ATOM      1  C   UNL     1       0.048   1.553   0.088  0.00  0.00    +0.087 C 
ATOM      2  C   UNL     1       0.050   0.046   0.071  0.00  0.00    +0.114 A 
ATOM      3  C   UNL     1      -1.143  -0.606   0.084  0.00  0.00    +0.067 A 
ATOM      4  C   UNL     1      -1.130  -2.081   0.085  0.00  0.00    +0.200 A 
ATOM      5  O   UNL     1      -2.135  -2.737  -0.129  0.00  0.00    -0.286 OA
ATOM      6  C   UNL     1       0.174  -2.716   0.360  0.00  0.00    +0.065 A 
ATOM      7  C   UNL     1       0.275  -4.078   0.641  0.00  0.00    +0.019 A 
ATOM      8  C   UNL     1       1.500  -4.626   0.896  0.00  0.00    +0.046 A 
ATOM      9  C   UNL     1       2.644  -3.831   0.878  0.00  0.00    +0.125 A 
ATOM     10  C   UNL     1       2.558  -2.478   0.599  0.00  0.00    +0.051 A 
ATOM     11  C   UNL     1       1.322  -1.904   0.332  0.00  0.00    +0.147 A 
ATOM     12  O   UNL     1       1.221  -0.592   0.039  0.00  0.00    -0.459 OA
ENDROOT
BRANCH   3  13
ATOM     13  C   UNL     1      -2.422   0.145   0.097  0.00  0.00    -0.011 A 
ATOM     14  C   UNL     1      -2.752   0.943   1.191  0.00  0.00    +0.012 A 
ATOM     15  C   UNL     1      -3.942   1.640   1.201  0.00  0.00    +0.046 A 
ATOM     16  C   UNL     1      -4.811   1.547   0.122  0.00  0.00    +0.120 A 
ATOM     17  C   UNL     1      -4.486   0.752  -0.969  0.00  0.00    +0.046 A 
ATOM     18  C   UNL     1      -3.294   0.058  -0.987  0.00  0.00    +0.012 A 
BRANCH  16  19
ATOM     19  O   UNL     1      -5.983   2.234   0.135  0.00  0.00    -0.495 OA
ATOM     20  C   UNL     1      -6.830   2.093  -1.007  0.00  0.00    +0.277 C 
ENDBRANCH  16  19
ENDBRANCH   3  13
BRANCH   9  21
ATOM     21  O   UNL     1       3.854  -4.388   1.138  0.00  0.00    -0.506 OA
ATOM     22  H   UNL     1       4.310  -4.721   0.353  0.00  0.00    +0.292 HD
ENDBRANCH   9  21
BRANCH  10  23
ATOM     23  C   UNL     1       3.804  -1.629   0.583  0.00  0.00    +0.127 C 
BRANCH  23  24
ATOM     24  N   UNL     1       4.374  -1.622  -0.771  0.00  0.00    -0.295 NA
ATOM     25  C   UNL     1       3.474  -0.951  -1.718  0.00  0.00    +0.103 C 
ATOM     26  C   UNL     1       4.015  -1.123  -3.142  0.00  0.00    +0.122 C 
ATOM     27  N   UNL     1       5.409  -0.655  -3.171  0.00  0.00    -0.314 N 
ATOM     28  C   UNL     1       6.341  -1.181  -2.162  0.00  0.00    +0.122 C 
ATOM     29  C   UNL     1       5.708  -1.007  -0.777  0.00  0.00    +0.103 C 
ATOM     30  C   UNL     1       5.834   0.261  -4.127  0.00  0.00    +0.099 A 
ATOM     31  C   UNL     1       7.124   0.779  -4.059  0.00  0.00    +0.042 A 
ATOM     32  C   UNL     1       7.534   1.689  -5.017  0.00  0.00    +0.005 A 
ATOM     33  C   UNL     1       6.637   2.052  -6.013  0.00  0.00    +0.018 A 
ATOM     34  C   UNL     1       5.372   1.499  -6.019  0.00  0.00    +0.084 A 
ATOM     35  N   UNL     1       5.010   0.628  -5.096  0.00  0.00    -0.350 N 
ATOM     36  H   UNL     1       4.117   0.251  -5.125  0.00  0.00    +0.166 HD
ENDBRANCH  23  24
ENDBRANCH  10  23
TORSDOF 5
