REMARK  Name = ZINC40780346
REMARK  3 active torsions:
REMARK  status: ('A' for Active; 'I' for Inactive)
REMARK    1  A    between atoms: C_12  and  N_26
REMARK    2  A    between atoms: C_13  and  N_17
REMARK    3  A    between atoms: N_17  and  C_18
REMARK                            x       y       z     vdW  Elec       q    Type
REMARK                         _______ _______ _______ _____ _____    ______ ____
ROOT
ATOM      1  C   UNL     1       2.119  -0.790   3.876  0.00  0.00    +0.000 A 
ATOM      2  C   UNL     1       3.421  -0.389   3.636  0.00  0.00    +0.002 A 
ATOM      3  C   UNL     1       3.896  -0.332   2.342  0.00  0.00    +0.024 A 
ATOM      4  C   UNL     1       3.067  -0.677   1.280  0.00  0.00    +0.038 A 
ATOM      5  C   UNL     1       1.764  -1.082   1.521  0.00  0.00    -0.026 A 
ATOM      6  C   UNL     1       1.294  -1.135   2.823  0.00  0.00    +0.005 A 
ATOM      7  C   UNL     1       0.841  -1.474   0.397  0.00  0.00    +0.038 C 
ATOM      8  C   UNL     1       1.331  -0.888  -0.927  0.00  0.00    +0.024 C 
ATOM      9  C   UNL     1       2.811  -1.248  -1.111  0.00  0.00    +0.113 C 
ATOM     10  N   UNL     1       3.567  -0.608  -0.026  0.00  0.00    -0.283 N 
ATOM     11  C   UNL     1       4.760   0.056  -0.292  0.00  0.00    +0.151 A 
ATOM     12  C   UNL     1       4.752   1.393  -0.697  0.00  0.00    +0.104 A 
ATOM     13  C   UNL     1       5.977   2.011  -0.951  0.00  0.00    +0.126 A 
ATOM     14  N   UNL     1       7.098   1.309  -0.798  0.00  0.00    -0.333 N 
ATOM     15  C   UNL     1       7.061   0.050  -0.414  0.00  0.00    +0.200 A 
ATOM     16  N   UNL     1       5.926  -0.570  -0.159  0.00  0.00    -0.220 NA
ATOM     17  H   UNL     1       7.954   1.731  -0.972  0.00  0.00    +0.168 HD
ENDROOT
BRANCH  12  18
ATOM     18  N   UNL     1       3.545   2.094  -0.845  0.00  0.00    -0.353 N 
ATOM     19  H   UNL     1       2.707   1.676  -0.594  0.00  0.00    +0.143 HD
ATOM     20  H   UNL     1       3.550   2.998  -1.199  0.00  0.00    +0.143 HD
ENDBRANCH  12  18
BRANCH  13  21
ATOM     21  N   UNL     1       6.027   3.340  -1.357  0.00  0.00    -0.297 N 
ATOM     22  H   UNL     1       5.214   3.869  -1.384  0.00  0.00    +0.154 HD
BRANCH  21  23
ATOM     23  C   UNL     1       7.249   3.914  -1.727  0.00  0.00    +0.068 A 
ATOM     24  C   UNL     1       7.803   4.928  -0.958  0.00  0.00    +0.029 A 
ATOM     25  C   UNL     1       9.009   5.493  -1.325  0.00  0.00    +0.040 A 
ATOM     26  C   UNL     1       9.666   5.049  -2.459  0.00  0.00    +0.126 A 
ATOM     27  C   UNL     1       9.117   4.038  -3.230  0.00  0.00    +0.078 A 
ATOM     28  C   UNL     1       7.913   3.465  -2.864  0.00  0.00    +0.147 A 
ATOM     29  F   UNL     1       7.380   2.475  -3.612  0.00  0.00    -0.203 F 
ATOM     30  F   UNL     1      10.846   5.603  -2.815  0.00  0.00    -0.205 F 
ENDBRANCH  21  23
ENDBRANCH  13  21
TORSDOF 3
