REMARK  Name = ZINC43288397
REMARK  8 active torsions:
REMARK  status: ('A' for Active; 'I' for Inactive)
REMARK    1  A    between atoms: C_1  and  C_2
REMARK    2  A    between atoms: C_2  and  C_4
REMARK    3  A    between atoms: C_2  and  N_22
REMARK    4  A    between atoms: C_4  and  C_6
REMARK    5  A    between atoms: C_4  and  O_12
REMARK    6  A    between atoms: O_12  and  C_13
REMARK    7  A    between atoms: C_16  and  C_19
REMARK    8  A    between atoms: C_19  and  C_20
REMARK                            x       y       z     vdW  Elec       q    Type
REMARK                         _______ _______ _______ _____ _____    ______ ____
ROOT
ATOM      1  C   UNL     1       0.751  -0.518   1.249  0.00  0.00    +0.196 C 
ENDROOT
BRANCH   1   2
ATOM      2  C   UNL     1       0.859  -2.020   1.300  0.00  0.00    +0.029 A 
ATOM      3  C   UNL     1       1.901  -2.813   0.947  0.00  0.00    +0.030 A 
ATOM      4  C   UNL     1       1.775  -4.184   1.080  0.00  0.00    +0.025 A 
ATOM      5  C   UNL     1       0.614  -4.694   1.560  0.00  0.00    +0.060 A 
ATOM      6  S   UNL     1      -0.347  -3.217   1.848  0.00  0.00    -0.097 S 
ATOM      7 BR   UNL     1       3.201  -5.329   0.600  0.00  0.00    -0.050 Br
ENDBRANCH   1   2
BRANCH   1   9
ATOM      8  C   UNL     1      -0.147   1.419  -0.048  0.00  0.00    -0.010 C 
ATOM      9  C   UNL     1      -0.036  -0.106   0.004  0.00  0.00    -0.032 C 
BRANCH   9  10
ATOM     10  N   UNL     1       0.660  -0.587  -1.197  0.00  0.00    +0.382 N 
ATOM     11  H   UNL     1       1.584  -0.184  -1.234  0.00  0.00    -0.089 HD
ATOM     12  H   UNL     1       0.733  -1.593  -1.163  0.00  0.00    -0.089 HD
ATOM     13  H   UNL     1       0.141  -0.315  -2.018  0.00  0.00    -0.089 HD
ENDBRANCH   9  10
ENDBRANCH   1   9
BRANCH   1  14
ATOM     14  O   UNL     1       0.073  -0.050   2.417  0.00  0.00    -0.485 OA
BRANCH  14  15
ATOM     15  C   UNL     1       0.539   1.094   2.984  0.00  0.00    +0.121 A 
ATOM     16  C   UNL     1       0.009   1.540   4.186  0.00  0.00    +0.046 A 
ATOM     17  C   UNL     1       0.485   2.703   4.760  0.00  0.00    +0.008 A 
ATOM     18  C   UNL     1       1.488   3.423   4.137  0.00  0.00    -0.033 A 
ATOM     19  C   UNL     1       2.017   2.981   2.938  0.00  0.00    +0.008 A 
ATOM     20  C   UNL     1       1.549   1.815   2.364  0.00  0.00    +0.046 A 
BRANCH  18  21
ATOM     21  C   UNL     1       2.004   4.692   4.765  0.00  0.00    +0.153 C 
BRANCH  21  22
ATOM     22  C   UNL     1       3.127   4.373   5.662  0.00  0.00    +0.067 C 
ATOM     23  N   UNL     1       3.994   4.128   6.353  0.00  0.00    -0.196 NA
ENDBRANCH  21  22
ENDBRANCH  18  21
ENDBRANCH  14  15
ENDBRANCH   1  14
TORSDOF 7
