REMARK  Name = ZINC54504179
REMARK  12 active torsions:
REMARK  status: ('A' for Active; 'I' for Inactive)
REMARK    1  A    between atoms: C_1  and  C_2
REMARK    2  A    between atoms: C_2  and  N_14
REMARK    3  A    between atoms: N_6  and  C_13
REMARK    4  A    between atoms: N_9  and  C_12
REMARK    5  A    between atoms: N_14  and  C_15
REMARK    6  A    between atoms: C_15  and  C_16
REMARK    7  A    between atoms: C_16  and  C_18
REMARK    8  A    between atoms: C_16  and  N_26
REMARK    9  A    between atoms: C_23  and  O_24
REMARK   10  A    between atoms: O_24  and  C_25
REMARK   11  A    between atoms: N_26  and  C_27
REMARK   12  A    between atoms: N_26  and  C_28
REMARK                            x       y       z     vdW  Elec       q    Type
REMARK                         _______ _______ _______ _____ _____    ______ ____
ROOT
ATOM      1  N   UNL     1       1.106   0.432  -1.805  0.00  0.00    -0.348 N 
ATOM      2  H   UNL     1       1.923   0.179  -2.263  0.00  0.00    +0.146 HD
ENDROOT
BRANCH   1   4
ATOM      3  C   UNL     1      -0.097   1.617   0.003  0.00  0.00    +0.061 C 
ATOM      4  C   UNL     1       1.151   1.312  -0.785  0.00  0.00    +0.018 C 
ATOM      5  C   UNL     1       2.342   1.936  -0.463  0.00  0.00    +0.116 C 
ATOM      6  C   UNL     1       3.543   1.782  -1.302  0.00  0.00    +0.260 C 
ATOM      7  O   UNL     1       3.519   1.097  -2.307  0.00  0.00    -0.269 OA
ATOM      8  N   UNL     1       4.670   2.420  -0.925  0.00  0.00    -0.224 N 
ATOM      9  C   UNL     1       4.711   3.178   0.180  0.00  0.00    +0.317 C 
ATOM     10  O   UNL     1       5.757   3.727   0.463  0.00  0.00    -0.252 OA
ATOM     11  N   UNL     1       3.658   3.363   0.988  0.00  0.00    -0.224 N 
ATOM     12  C   UNL     1       2.463   2.790   0.733  0.00  0.00    +0.260 C 
ATOM     13  O   UNL     1       1.513   2.970   1.471  0.00  0.00    -0.269 OA
ATOM     14  C   UNL     1       3.806   4.211   2.174  0.00  0.00    +0.143 C 
ATOM     15  C   UNL     1       5.878   2.282  -1.743  0.00  0.00    +0.143 C 
ENDBRANCH   1   4
BRANCH   1  16
ATOM     16  C   UNL     1      -0.175  -0.144  -2.220  0.00  0.00    +0.090 C 
BRANCH  16  17
ATOM     17  C   UNL     1       0.034  -1.010  -3.464  0.00  0.00    -0.018 C 
BRANCH  17  18
ATOM     18  C   UNL     1       0.454  -0.139  -4.619  0.00  0.00    -0.018 A 
ATOM     19  C   UNL     1       1.786  -0.063  -4.979  0.00  0.00    +0.005 A 
ATOM     20  C   UNL     1       2.172   0.737  -6.038  0.00  0.00    +0.000 A 
ATOM     21  C   UNL     1       1.227   1.463  -6.740  0.00  0.00    +0.004 A 
ATOM     22  C   UNL     1      -0.106   1.390  -6.385  0.00  0.00    +0.046 A 
ATOM     23  C   UNL     1      -0.497   0.584  -5.325  0.00  0.00    +0.122 A 
BRANCH  23  24
ATOM     24  O   UNL     1      -1.808   0.506  -4.976  0.00  0.00    -0.495 OA
ATOM     25  C   UNL     1      -2.731   1.277  -5.748  0.00  0.00    +0.277 C 
ENDBRANCH  23  24
ENDBRANCH  17  18
BRANCH  17  26
ATOM     26  N   UNL     1       1.080  -2.006  -3.196  0.00  0.00    +0.382 N 
ATOM     27  C   UNL     1       0.717  -2.790  -2.008  0.00  0.00    -0.096 C 
ATOM     28  C   UNL     1       1.210  -2.902  -4.353  0.00  0.00    -0.096 C 
ATOM     29  H   UNL     1       1.958  -1.537  -3.034  0.00  0.00    -0.082 HD
ENDBRANCH  17  26
ENDBRANCH  16  17
ENDBRANCH   1  16
TORSDOF 6
