REMARK  Name = ZINC14006714
REMARK  11 active torsions:
REMARK  status: ('A' for Active; 'I' for Inactive)
REMARK    1  A    between atoms: C_1  and  C_2
REMARK    2  A    between atoms: C_7  and  O_8
REMARK    3  A    between atoms: O_8  and  C_9
REMARK    4  A    between atoms: C_9  and  C_10
REMARK    5  A    between atoms: N_12  and  N_13
REMARK    6  A    between atoms: C_14  and  C_16
REMARK    7  A    between atoms: C_16  and  C_18
REMARK    8  A    between atoms: C_16  and  O_19
REMARK    9  A    between atoms: O_19  and  C_20
REMARK   10  A    between atoms: C_25  and  O_26
REMARK   11  A    between atoms: O_26  and  C_27
REMARK                            x       y       z     vdW  Elec       q    Type
REMARK                         _______ _______ _______ _____ _____    ______ ____
ROOT
ATOM      1  C   UNL     1      -2.384   4.112   9.133  0.00  0.00    +0.267 C 
ATOM      2  O   UNL     1      -3.591   4.202   9.216  0.00  0.00    -0.271 OA
ATOM      3  N   UNL     1      -1.814   3.750   7.966  0.00  0.00    -0.231 N 
ATOM      4  H   UNL     1      -0.849   3.679   7.899  0.00  0.00    +0.173 HD
ENDROOT
BRANCH   3   5
ATOM      5  N   UNL     1      -2.616   3.478   6.850  0.00  0.00    -0.231 N 
ATOM      6  C   UNL     1      -2.046   3.117   5.683  0.00  0.00    +0.270 C 
ATOM      7  O   UNL     1      -0.839   3.027   5.600  0.00  0.00    -0.270 OA
ATOM      8  H   UNL     1      -3.581   3.550   6.916  0.00  0.00    +0.173 HD
BRANCH   6   9
ATOM      9  C   UNL     1      -2.908   2.824   4.482  0.00  0.00    +0.257 C 
ATOM     10  C   UNL     1      -3.630   4.102   4.049  0.00  0.00    +0.062 C 
BRANCH   9  11
ATOM     11  O   UNL     1      -2.088   2.353   3.410  0.00  0.00    -0.476 OA
BRANCH  11  12
ATOM     12  C   UNL     1      -2.686   1.570   2.473  0.00  0.00    +0.163 A 
ATOM     13  C   UNL     1      -4.054   1.355   2.519  0.00  0.00    +0.049 A 
ATOM     14  C   UNL     1      -4.660   0.554   1.569  0.00  0.00    +0.004 A 
ATOM     15  C   UNL     1      -3.905  -0.029   0.568  0.00  0.00    +0.004 A 
ATOM     16  C   UNL     1      -2.540   0.187   0.513  0.00  0.00    +0.049 A 
ATOM     17  C   UNL     1      -1.927   0.988   1.463  0.00  0.00    +0.162 A 
BRANCH  17  18
ATOM     18  O   UNL     1      -0.585   1.201   1.410  0.00  0.00    -0.491 OA
ATOM     19  C   UNL     1       0.132   0.567   0.349  0.00  0.00    +0.277 C 
ENDBRANCH  17  18
ENDBRANCH  11  12
ENDBRANCH   9  11
ENDBRANCH   6   9
ENDBRANCH   3   5
BRANCH   1  20
ATOM     20  C   UNL     1      -1.522   4.405  10.334  0.00  0.00    +0.326 C 
BRANCH  20  21
ATOM     21  O   UNL     1      -2.353   4.763  11.440  0.00  0.00    -0.481 OA
BRANCH  21  28
ATOM     22  C   UNL     1      -1.621   7.456  11.878  0.00  0.00    +0.047 C 
ATOM     23  C   UNL     1      -1.345   6.365  12.881  0.00  0.00    -0.007 A 
ATOM     24  C   UNL     1      -0.710   6.665  14.071  0.00  0.00    +0.022 A 
ATOM     25  C   UNL     1      -0.456   5.665  14.992  0.00  0.00    +0.019 A 
ATOM     26  C   UNL     1      -0.837   4.362  14.724  0.00  0.00    +0.034 A 
ATOM     27  C   UNL     1      -1.476   4.059  13.537  0.00  0.00    +0.061 A 
ATOM     28  C   UNL     1      -1.727   5.061  12.610  0.00  0.00    +0.138 A 
ATOM     29 BR   UNL     1      -2.003   2.279  13.175  0.00  0.00    -0.046 Br
ATOM     30 BR   UNL     1       0.413   6.079  16.620  0.00  0.00    -0.050 Br
ENDBRANCH  21  28
ENDBRANCH  20  21
ENDBRANCH   1  20
TORSDOF 8
