REMARK  Name = ZINC12371746
REMARK  7 active torsions:
REMARK  status: ('A' for Active; 'I' for Inactive)
REMARK    1  A    between atoms: C_1  and  O_2
REMARK    2  A    between atoms: O_2  and  C_3
REMARK    3  A    between atoms: C_8  and  C_9
REMARK    4  A    between atoms: C_12  and  C_35
REMARK    5  A    between atoms: C_17  and  C_19
REMARK    6  A    between atoms: N_21  and  C_22
REMARK    7  A    between atoms: C_22  and  C_23
REMARK                            x       y       z     vdW  Elec       q    Type
REMARK                         _______ _______ _______ _____ _____    ______ ____
ROOT
ATOM      1  C   UNL     1       0.018  -2.829  -0.013  0.00  0.00    +0.108 C 
ATOM      2  C   UNL     1       0.569  -2.892  -1.442  0.00  0.00    +0.063 C 
ATOM      3  C   UNL     1       1.901  -3.651  -1.455  0.00  0.00    +0.215 C 
ATOM      4  N   UNL     1       1.732  -4.918  -0.737  0.00  0.00    -0.237 N 
ATOM      5  C   UNL     1       0.717  -5.161   0.144  0.00  0.00    +0.137 A 
ATOM      6  C   UNL     1       0.860  -6.416   0.615  0.00  0.00    +0.112 A 
ATOM      7  C   UNL     1       2.008  -6.972   0.005  0.00  0.00    +0.167 A 
ATOM      8  N   UNL     1       2.524  -6.064  -0.805  0.00  0.00    -0.163 NA
ATOM      9 CL   UNL     1      -0.176  -7.205   1.762  0.00  0.00    -0.078 Cl
ATOM     10  N   UNL     1      -0.258  -4.203   0.449  0.00  0.00    -0.321 N 
ATOM     11  H   UNL     1      -1.069  -4.430   0.932  0.00  0.00    +0.148 HD
ENDROOT
BRANCH   1  17
ATOM     12  C   UNL     1      -1.200  -0.637   0.010  0.00  0.00    +0.125 A 
ATOM     13  C   UNL     1      -2.375   0.101   0.019  0.00  0.00    +0.046 A 
ATOM     14  C   UNL     1      -3.596  -0.545   0.027  0.00  0.00    +0.004 A 
ATOM     15  C   UNL     1      -3.648  -1.927   0.026  0.00  0.00    +0.001 A 
ATOM     16  C   UNL     1      -2.479  -2.665   0.017  0.00  0.00    +0.009 A 
ATOM     17  C   UNL     1      -1.255  -2.023   0.003  0.00  0.00    +0.014 A 
BRANCH  12  19
ATOM     18  C   UNL     1      -0.017   1.425   0.010  0.00  0.00    +0.277 C 
ATOM     19  O   UNL     1       0.002  -0.004   0.002  0.00  0.00    -0.495 OA
ENDBRANCH  12  19
ENDBRANCH   1  17
BRANCH   7  20
ATOM     20  C   UNL     1       2.538  -8.331   0.234  0.00  0.00    +0.266 C 
ATOM     21  O   UNL     1       1.975  -9.081   1.007  0.00  0.00    -0.268 OA
ATOM     22  N   UNL     1       3.647  -8.740  -0.415  0.00  0.00    -0.309 N 
ATOM     23  H   UNL     1       4.096  -8.141  -1.032  0.00  0.00    +0.149 HD
BRANCH  22  24
ATOM     24  C   UNL     1       4.173 -10.088  -0.188  0.00  0.00    +0.111 C 
BRANCH  24  25
ATOM     25  C   UNL     1       5.427 -10.296  -1.039  0.00  0.00    -0.013 C 
ATOM     26  C   UNL     1       6.486  -9.263  -0.648  0.00  0.00    +0.012 C 
ATOM     27  C   UNL     1       7.740  -9.471  -1.500  0.00  0.00    -0.010 C 
ATOM     28  C   UNL     1       8.289 -10.879  -1.263  0.00  0.00    +0.007 C 
ATOM     29  C   UNL     1       7.230 -11.912  -1.654  0.00  0.00    -0.010 C 
ATOM     30  C   UNL     1       5.976 -11.704  -0.802  0.00  0.00    +0.012 C 
ATOM     31  C   UNL     1       6.876 -11.745  -3.133  0.00  0.00    +0.007 C 
ATOM     32  C   UNL     1       6.327 -10.337  -3.370  0.00  0.00    -0.010 C 
ATOM     33  C   UNL     1       7.386  -9.304  -2.979  0.00  0.00    +0.007 C 
ATOM     34  C   UNL     1       5.073 -10.129  -2.518  0.00  0.00    +0.012 C 
ENDBRANCH  24  25
ENDBRANCH  22  24
ENDBRANCH   7  20
BRANCH   3  35
ATOM     35  C   UNL     1       2.318  -3.929  -2.900  0.00  0.00    +0.412 C 
ATOM     36  F   UNL     1       2.466  -2.718  -3.584  0.00  0.00    -0.168 F 
ATOM     37  F   UNL     1       3.534  -4.622  -2.910  0.00  0.00    -0.168 F 
ATOM     38  F   UNL     1       1.336  -4.703  -3.528  0.00  0.00    -0.168 F 
ENDBRANCH   3  35
TORSDOF 6
