REMARK  Name = ZINC42631248
REMARK  6 active torsions:
REMARK  status: ('A' for Active; 'I' for Inactive)
REMARK    1  A    between atoms: C_1  and  C_2
REMARK    2  A    between atoms: C_2  and  C_3
REMARK    3  A    between atoms: C_3  and  C_4
REMARK    4  A    between atoms: C_4  and  N_5
REMARK    5  A    between atoms: C_10  and  C_12
REMARK    6  A    between atoms: C_17  and  C_20
REMARK                            x       y       z     vdW  Elec       q    Type
REMARK                         _______ _______ _______ _____ _____    ______ ____
ROOT
ATOM      1  C   UNL     1      -5.208  -3.473   2.548  0.00  0.00    +0.270 C 
ATOM      2  O   UNL     1      -6.346  -3.893   2.626  0.00  0.00    -0.268 OA
ATOM      3  N   UNL     1      -4.505  -3.218   3.670  0.00  0.00    -0.259 N 
ATOM      4  C   UNL     1      -5.082  -3.435   4.914  0.00  0.00    +0.165 A 
ATOM      5  N   UNL     1      -4.570  -3.245   6.116  0.00  0.00    -0.224 NA
ATOM      6  C   UNL     1      -5.269  -3.508   7.211  0.00  0.00    +0.087 A 
ATOM      7  C   UNL     1      -6.546  -3.985   7.092  0.00  0.00    +0.077 A 
ATOM      8  S   UNL     1      -6.716  -4.038   5.313  0.00  0.00    -0.060 S 
ATOM      9  H   UNL     1      -3.597  -2.883   3.607  0.00  0.00    +0.157 HD
ENDROOT
BRANCH   1  15
ATOM     10  N   UNL     1      -2.787  -2.571   0.015  0.00  0.00    -0.229 N 
ATOM     11  C   UNL     1      -3.410  -2.796  -1.157  0.00  0.00    +0.267 A 
ATOM     12  O   UNL     1      -2.835  -2.580  -2.210  0.00  0.00    -0.266 OA
ATOM     13  C   UNL     1      -4.736  -3.285  -1.158  0.00  0.00    +0.074 A 
ATOM     14  C   UNL     1      -5.335  -3.510   0.046  0.00  0.00    +0.040 A 
ATOM     15  C   UNL     1      -4.594  -3.242   1.223  0.00  0.00    +0.146 A 
ATOM     16  N   UNL     1      -3.362  -2.793   1.141  0.00  0.00    -0.164 NA
BRANCH  10  17
ATOM     17  C   UNL     1      -1.413  -2.063   0.004  0.00  0.00    +0.147 C 
BRANCH  17  18
ATOM     18  C   UNL     1      -1.433  -0.534   0.013  0.00  0.00    +0.023 C 
BRANCH  18  20
ATOM     19  C   UNL     1      -0.019   1.526   0.010  0.00  0.00    +0.004 C 
ATOM     20  C   UNL     1       0.002  -0.004   0.002  0.00  0.00    -0.002 C 
ENDBRANCH  18  20
ENDBRANCH  17  18
ENDBRANCH  10  17
ENDBRANCH   1  15
BRANCH   6  21
ATOM     21  C   UNL     1      -4.674  -3.288   8.547  0.00  0.00    +0.038 A 
ATOM     22  C   UNL     1      -3.430  -2.817   8.871  0.00  0.00    +0.017 A 
ATOM     23  C   UNL     1      -3.094  -2.695  10.203  0.00  0.00    +0.008 A 
ATOM     24  C   UNL     1      -4.003  -3.043  11.148  0.00  0.00    +0.046 A 
ATOM     25  S   UNL     1      -5.395  -3.559  10.157  0.00  0.00    -0.095 S 
ENDBRANCH   6  21
TORSDOF 5
