REMARK  Name = ZINC15760202
REMARK  12 active torsions:
REMARK  status: ('A' for Active; 'I' for Inactive)
REMARK    1  A    between atoms: C_1  and  C_2
REMARK    2  A    between atoms: C_3  and  C_13
REMARK    3  A    between atoms: C_4  and  C_12
REMARK    4  A    between atoms: C_9  and  C_10
REMARK    5  A    between atoms: C_13  and  C_14
REMARK    6  A    between atoms: C_14  and  C_15
REMARK    7  A    between atoms: N_17  and  N_18
REMARK    8  A    between atoms: C_19  and  C_21
REMARK    9  A    between atoms: C_28  and  C_31
REMARK   10  A    between atoms: C_31  and  C_32
REMARK   11  A    between atoms: C_31  and  C_33
REMARK   12  A    between atoms: C_31  and  C_34
REMARK                            x       y       z     vdW  Elec       q    Type
REMARK                         _______ _______ _______ _____ _____    ______ ____
ROOT
ATOM      1  C   UNL     1       4.191   4.830  -1.448  0.00  0.00    +0.229 C 
ATOM      2  O   UNL     1       4.776   5.037  -0.405  0.00  0.00    -0.274 OA
ATOM      3  N   UNL     1       4.721   5.252  -2.613  0.00  0.00    -0.234 N 
ATOM      4  H   UNL     1       4.253   5.086  -3.446  0.00  0.00    +0.173 HD
ENDROOT
BRANCH   3   5
ATOM      5  N   UNL     1       5.947   5.930  -2.620  0.00  0.00    -0.230 N 
ATOM      6  C   UNL     1       6.476   6.352  -3.786  0.00  0.00    +0.267 C 
ATOM      7  O   UNL     1       5.889   6.144  -4.832  0.00  0.00    -0.268 OA
ATOM      8  H   UNL     1       6.414   6.096  -1.787  0.00  0.00    +0.173 HD
BRANCH   6   9
ATOM      9  C   UNL     1       7.759   7.062  -3.794  0.00  0.00    +0.076 A 
ATOM     10  C   UNL     1       8.466   7.572  -4.867  0.00  0.00    +0.024 A 
ATOM     11  C   UNL     1       9.670   8.209  -4.613  0.00  0.00    -0.036 A 
ATOM     12  C   UNL     1      10.064   8.282  -3.307  0.00  0.00    -0.006 A 
ATOM     13  S   UNL     1       8.811   7.500  -2.421  0.00  0.00    -0.088 S 
ATOM     14  C   UNL     1      11.314   8.912  -2.775  0.00  0.00    +0.043 C 
ATOM     15  C   UNL     1      12.277   9.143  -3.948  0.00  0.00    +0.009 C 
ATOM     16  C   UNL     1      11.508   9.810  -5.092  0.00  0.00    -0.001 C 
ATOM     17  C   UNL     1      10.534   8.811  -5.718  0.00  0.00    +0.040 C 
BRANCH  16  18
ATOM     18  C   UNL     1      12.497  10.290  -6.157  0.00  0.00    -0.035 C 
ATOM     19  C   UNL     1      11.732  10.967  -7.295  0.00  0.00    +0.011 C 
ATOM     20  C   UNL     1      13.473  11.290  -5.533  0.00  0.00    +0.011 C 
ATOM     21  C   UNL     1      13.276   9.093  -6.707  0.00  0.00    +0.011 C 
ENDBRANCH  16  18
ENDBRANCH   6   9
ENDBRANCH   3   5
BRANCH   1  22
ATOM     22  C   UNL     1       2.873   4.100  -1.439  0.00  0.00    +0.102 C 
BRANCH  22  23
ATOM     23  C   UNL     1       2.501   3.735  -0.001  0.00  0.00    +0.046 C 
BRANCH  23  26
ATOM     24  C   UNL     1       0.003   5.233   0.031  0.00  0.00    +0.045 C 
ATOM     25  C   UNL     1      -0.012   3.726   0.022  0.00  0.00    -0.023 A 
ATOM     26  C   UNL     1       1.183   3.005   0.007  0.00  0.00    -0.024 A 
ATOM     27  C   UNL     1       1.159   1.649  -0.000  0.00  0.00    +0.019 A 
ATOM     28  N   UNL     1      -0.011   0.966   0.007  0.00  0.00    -0.325 N 
ATOM     29  H   UNL     1       0.002  -0.004   0.002  0.00  0.00    +0.169 HD
ATOM     30  C   UNL     1      -1.192   1.612   0.017  0.00  0.00    +0.267 A 
ATOM     31  O   UNL     1      -2.235   0.981   0.018  0.00  0.00    -0.266 OA
ATOM     32  C   UNL     1      -1.219   3.031   0.029  0.00  0.00    +0.119 A 
ATOM     33  C   UNL     1       2.460   0.887  -0.017  0.00  0.00    +0.063 C 
BRANCH  32  34
ATOM     34  C   UNL     1      -2.466   3.736   0.045  0.00  0.00    +0.105 C 
ATOM     35  N   UNL     1      -3.454   4.296   0.057  0.00  0.00    -0.191 NA
ENDBRANCH  32  34
ENDBRANCH  23  26
ENDBRANCH  22  23
ENDBRANCH   1  22
TORSDOF 7
