REMARK  Name = ZINC38706005
REMARK  10 active torsions:
REMARK  status: ('A' for Active; 'I' for Inactive)
REMARK    1  A    between atoms: C_1  and  C_2
REMARK    2  A    between atoms: C_4  and  C_35
REMARK    3  A    between atoms: C_5  and  C_9
REMARK    4  A    between atoms: C_6  and  O_8
REMARK    5  A    between atoms: N_17  and  C_29
REMARK    6  A    between atoms: C_18  and  C_20
REMARK    7  A    between atoms: C_23  and  C_26
REMARK    8  A    between atoms: C_26  and  C_27
REMARK    9  A    between atoms: C_26  and  C_28
REMARK   10  A    between atoms: C_29  and  C_30
REMARK                            x       y       z     vdW  Elec       q    Type
REMARK                         _______ _______ _______ _____ _____    ______ ____
ROOT
ATOM      1  C   UNL     1       0.195  -4.484  -0.141  0.00  0.00    +0.102 A 
ATOM      2  C   UNL     1       0.234  -5.229   1.042  0.00  0.00    +0.035 A 
ATOM      3  C   UNL     1       0.185  -6.554   0.653  0.00  0.00    +0.126 A 
ATOM      4  N   UNL     1       0.120  -6.548  -0.711  0.00  0.00    -0.272 N 
ATOM      5  H   UNL     1       0.074  -7.339  -1.271  0.00  0.00    +0.189 HD
ATOM      6  N   UNL     1       0.122  -5.337  -1.144  0.00  0.00    -0.173 NA
ATOM      7  C   UNL     1       0.222  -7.395   1.855  0.00  0.00    +0.266 C 
ATOM      8  O   UNL     1       0.193  -8.611   1.854  0.00  0.00    -0.268 OA
ATOM      9  N   UNL     1       0.292  -6.630   2.960  0.00  0.00    -0.278 N 
ATOM     10  C   UNL     1       0.306  -5.221   2.544  0.00  0.00    +0.142 C 
ENDROOT
BRANCH   1  15
ATOM     11  C   UNL     1       0.314   1.263  -0.562  0.00  0.00    +0.044 C 
ATOM     12  C   UNL     1       0.281  -0.239  -0.450  0.00  0.00    -0.047 A 
ATOM     13  C   UNL     1       1.146  -1.006  -1.210  0.00  0.00    +0.007 A 
ATOM     14  C   UNL     1       1.122  -2.383  -1.114  0.00  0.00    -0.037 A 
ATOM     15  C   UNL     1       0.225  -3.004  -0.248  0.00  0.00    +0.047 A 
ATOM     16  C   UNL     1      -0.648  -2.227   0.519  0.00  0.00    +0.127 A 
ATOM     17  C   UNL     1      -0.610  -0.845   0.416  0.00  0.00    +0.049 A 
ATOM     18  C   UNL     1       2.066  -3.213  -1.945  0.00  0.00    +0.044 C 
BRANCH  16  19
ATOM     19  O   UNL     1      -1.526  -2.824   1.365  0.00  0.00    -0.506 OA
ATOM     20  H   UNL     1      -1.212  -2.887   2.278  0.00  0.00    +0.292 HD
ENDBRANCH  16  19
ENDBRANCH   1  15
BRANCH  10  21
ATOM     21  C   UNL     1       1.581  -4.558   2.998  0.00  0.00    -0.022 A 
ATOM     22  C   UNL     1       2.798  -5.174   2.775  0.00  0.00    +0.006 A 
ATOM     23  C   UNL     1       3.968  -4.566   3.192  0.00  0.00    +0.004 A 
ATOM     24  C   UNL     1       3.920  -3.342   3.832  0.00  0.00    -0.045 A 
ATOM     25  C   UNL     1       2.703  -2.725   4.054  0.00  0.00    +0.004 A 
ATOM     26  C   UNL     1       1.534  -3.331   3.633  0.00  0.00    +0.006 A 
BRANCH  24  27
ATOM     27  C   UNL     1       5.195  -2.679   4.287  0.00  0.00    +0.013 C 
ATOM     28  C   UNL     1       5.338  -1.321   3.598  0.00  0.00    +0.012 C 
ATOM     29  C   UNL     1       5.152  -2.480   5.804  0.00  0.00    +0.012 C 
ENDBRANCH  24  27
ENDBRANCH  10  21
BRANCH   9  30
ATOM     30  C   UNL     1       0.345  -7.118   4.340  0.00  0.00    +0.183 C 
BRANCH  30  31
ATOM     31  C   UNL     1       1.782  -7.319   4.747  0.00  0.00    +0.122 A 
ATOM     32  C   UNL     1       2.572  -6.397   5.326  0.00  0.00    +0.046 A 
ATOM     33  C   UNL     1       3.830  -7.008   5.533  0.00  0.00    +0.041 A 
ATOM     34  C   UNL     1       3.734  -8.266   5.067  0.00  0.00    +0.195 A 
ATOM     35  O   UNL     1       2.489  -8.451   4.598  0.00  0.00    -0.466 OA
ENDBRANCH  30  31
ENDBRANCH   9  30
TORSDOF 6
