REMARK  Name = ZINC13079003
REMARK  12 active torsions:
REMARK  status: ('A' for Active; 'I' for Inactive)
REMARK    1  A    between atoms: C_1  and  C_2
REMARK    2  A    between atoms: C_2  and  C_3
REMARK    3  A    between atoms: C_3  and  C_4
REMARK    4  A    between atoms: C_4  and  C_5
REMARK    5  A    between atoms: C_5  and  N_6
REMARK    6  A    between atoms: C_15  and  C_17
REMARK    7  A    between atoms: N_19  and  N_20
REMARK    8  A    between atoms: N_20  and  S_21
REMARK    9  A    between atoms: S_21  and  C_24
REMARK   10  A    between atoms: C_26  and  C_32
REMARK   11  A    between atoms: C_28  and  C_31
REMARK   12  A    between atoms: C_29  and  C_30
REMARK                            x       y       z     vdW  Elec       q    Type
REMARK                         _______ _______ _______ _____ _____    ______ ____
ROOT
ATOM      1  C   UNL     1      -1.418   1.877   0.431  0.00  0.00    +0.279 C 
ATOM      2  O   UNL     1      -1.329   3.089   0.415  0.00  0.00    -0.267 OA
ATOM      3  N   UNL     1      -2.621   1.287   0.287  0.00  0.00    -0.226 N 
ATOM      4  H   UNL     1      -2.692   0.320   0.300  0.00  0.00    +0.171 HD
ENDROOT
BRANCH   1  14
ATOM      5  N   UNL     1       0.705  -1.044   0.773  0.00  0.00    -0.228 N 
ATOM      6  C   UNL     1       1.975  -0.614   0.924  0.00  0.00    +0.275 A 
ATOM      7  O   UNL     1       2.889  -1.407   1.058  0.00  0.00    -0.266 OA
ATOM      8  C   UNL     1       2.229   0.833   0.923  0.00  0.00    +0.050 A 
ATOM      9  C   UNL     1       3.501   1.377   1.071  0.00  0.00    +0.014 A 
ATOM     10  C   UNL     1       3.655   2.747   1.058  0.00  0.00    +0.001 A 
ATOM     11  C   UNL     1       2.558   3.584   0.900  0.00  0.00    +0.001 A 
ATOM     12  C   UNL     1       1.290   3.064   0.752  0.00  0.00    +0.011 A 
ATOM     13  C   UNL     1       1.112   1.685   0.762  0.00  0.00    +0.020 A 
ATOM     14  C   UNL     1      -0.207   1.050   0.610  0.00  0.00    +0.155 A 
ATOM     15  N   UNL     1      -0.294  -0.258   0.629  0.00  0.00    -0.163 NA
BRANCH   5  16
ATOM     16  C   UNL     1       0.457  -2.487   0.775  0.00  0.00    +0.147 C 
BRANCH  16  17
ATOM     17  C   UNL     1       0.189  -2.957   2.206  0.00  0.00    +0.023 C 
BRANCH  17  18
ATOM     18  C   UNL     1      -0.070  -4.465   2.208  0.00  0.00    +0.002 C 
BRANCH  18  20
ATOM     19  C   UNL     1      -0.598  -6.443   3.641  0.00  0.00    +0.004 C 
ATOM     20  C   UNL     1      -0.338  -4.935   3.639  0.00  0.00    -0.003 C 
ENDBRANCH  18  20
ENDBRANCH  17  18
ENDBRANCH  16  17
ENDBRANCH   5  16
ENDBRANCH   1  14
BRANCH   3  21
ATOM     21  N   UNL     1      -3.770   2.071   0.117  0.00  0.00    -0.108 NA
ATOM     22  H   UNL     1      -3.993   2.752   0.771  0.00  0.00    +0.172 HD
BRANCH  21  23
ATOM     23  S   UNL     1      -4.747   1.835  -1.199  0.00  0.00    +0.074 S 
ATOM     24  O   UNL     1      -5.896   2.647  -1.002  0.00  0.00    -0.152 OA
ATOM     25  O   UNL     1      -3.917   1.954  -2.346  0.00  0.00    -0.152 OA
BRANCH  23  26
ATOM     26  C   UNL     1      -5.297   0.162  -1.146  0.00  0.00    +0.111 A 
ATOM     27  C   UNL     1      -4.908  -0.721  -2.132  0.00  0.00    +0.044 A 
ATOM     28  C   UNL     1      -5.345  -2.047  -2.088  0.00  0.00    +0.065 A 
ATOM     29  C   UNL     1      -6.173  -2.469  -1.046  0.00  0.00    +0.018 A 
ATOM     30  C   UNL     1      -6.554  -1.575  -0.067  0.00  0.00    -0.045 A 
ATOM     31  C   UNL     1      -6.113  -0.264  -0.113  0.00  0.00    -0.021 A 
ATOM     32  C   UNL     1      -6.529   0.706   0.963  0.00  0.00    +0.046 C 
ATOM     33  C   UNL     1      -7.447  -2.028   1.059  0.00  0.00    +0.044 C 
BRANCH  28  34
ATOM     34  C   UNL     1      -4.932  -2.999  -3.140  0.00  0.00    +0.387 C 
ATOM     35  O   UNL     1      -4.212  -2.629  -4.045  0.00  0.00    -0.241 OA
ATOM     36  O   UNL     1      -5.355  -4.277  -3.095  0.00  0.00    -0.241 OA
ENDBRANCH  28  34
ENDBRANCH  23  26
ENDBRANCH  21  23
ENDBRANCH   3  21
TORSDOF 9
