REMARK  Name = ZINC41159744
REMARK  8 active torsions:
REMARK  status: ('A' for Active; 'I' for Inactive)
REMARK    1  A    between atoms: C_1  and  C_2
REMARK    2  A    between atoms: C_5  and  C_27
REMARK    3  A    between atoms: C_6  and  S_8
REMARK    4  A    between atoms: S_8  and  N_11
REMARK    5  A    between atoms: N_11  and  C_12
REMARK    6  A    between atoms: C_12  and  C_13
REMARK    7  A    between atoms: C_17  and  C_26
REMARK    8  A    between atoms: C_19  and  C_25
REMARK                            x       y       z     vdW  Elec       q    Type
REMARK                         _______ _______ _______ _____ _____    ______ ____
ROOT
ATOM      1  C   UNL     1      -1.316  -4.858   0.774  0.00  0.00    +0.146 C 
ENDROOT
BRANCH   1   2
ATOM      2  C   UNL     1      -2.366  -5.934   0.889  0.00  0.00    +0.033 A 
ATOM      3  C   UNL     1      -3.566  -5.775   0.277  0.00  0.00    +0.020 A 
ATOM      4  C   UNL     1      -4.563  -6.838   0.407  0.00  0.00    -0.001 A 
ATOM      5  C   UNL     1      -5.818  -6.732  -0.201  0.00  0.00    +0.013 A 
ATOM      6  C   UNL     1      -6.727  -7.742  -0.061  0.00  0.00    -0.050 A 
ATOM      7  C   UNL     1      -6.416  -8.874   0.681  0.00  0.00    +0.008 A 
ATOM      8  C   UNL     1      -5.186  -9.000   1.289  0.00  0.00    -0.026 A 
ATOM      9  C   UNL     1      -4.244  -7.985   1.159  0.00  0.00    +0.052 A 
ATOM     10  N   UNL     1      -3.006  -8.085   1.756  0.00  0.00    -0.322 N 
ATOM     11  H   UNL     1      -2.787  -8.876   2.274  0.00  0.00    +0.169 HD
ATOM     12  C   UNL     1      -2.094  -7.106   1.627  0.00  0.00    +0.254 A 
ATOM     13  O   UNL     1      -1.007  -7.230   2.164  0.00  0.00    -0.268 OA
ATOM     14  C   UNL     1      -4.862 -10.234   2.092  0.00  0.00    +0.046 C 
ATOM     15  C   UNL     1      -8.079  -7.627  -0.716  0.00  0.00    +0.044 C 
ENDBRANCH   1   2
BRANCH   1  16
ATOM     16  N   UNL     1      -1.394  -3.974   1.940  0.00  0.00    -0.185 NA
ATOM     17  H   UNL     1      -2.169  -4.006   2.522  0.00  0.00    +0.148 HD
BRANCH  16  18
ATOM     18  S   UNL     1      -0.158  -2.920   2.264  0.00  0.00    +0.059 S 
ATOM     19  O   UNL     1       1.048  -3.665   2.163  0.00  0.00    -0.153 OA
ATOM     20  O   UNL     1      -0.523  -2.217   3.443  0.00  0.00    -0.153 OA
BRANCH  18  26
ATOM     21  C   UNL     1       2.209  -0.604  -1.780  0.00  0.00    +0.044 C 
ATOM     22  C   UNL     1       1.002  -0.709  -0.884  0.00  0.00    -0.049 A 
ATOM     23  C   UNL     1      -0.083   0.124  -1.086  0.00  0.00    +0.004 A 
ATOM     24  C   UNL     1      -1.190   0.028  -0.264  0.00  0.00    +0.005 A 
ATOM     25  C   UNL     1      -1.213  -0.902   0.759  0.00  0.00    -0.024 A 
ATOM     26  C   UNL     1      -0.129  -1.736   0.960  0.00  0.00    +0.108 A 
ATOM     27  C   UNL     1       0.976  -1.642   0.135  0.00  0.00    +0.032 A 
ATOM     28  C   UNL     1      -2.420  -1.006   1.656  0.00  0.00    +0.046 C 
ENDBRANCH  18  26
ENDBRANCH  16  18
ENDBRANCH   1  16
TORSDOF 4
