REMARK  Name = ZINC12881775
REMARK  8 active torsions:
REMARK  status: ('A' for Active; 'I' for Inactive)
REMARK    1  A    between atoms: C_1  and  C_2
REMARK    2  A    between atoms: C_4  and  C_35
REMARK    3  A    between atoms: C_13  and  C_15
REMARK    4  A    between atoms: C_15  and  C_17
REMARK    5  A    between atoms: C_15  and  O_18
REMARK    6  A    between atoms: N_21  and  C_24
REMARK    7  A    between atoms: C_24  and  C_25
REMARK    8  A    between atoms: C_25  and  C_26
REMARK                            x       y       z     vdW  Elec       q    Type
REMARK                         _______ _______ _______ _____ _____    ______ ____
ROOT
ATOM      1  C   UNL     1       3.972  -2.437   1.935  0.00  0.00    +0.044 C 
ATOM      2  C   UNL     1       3.543  -0.992   1.899  0.00  0.00    -0.050 A 
ATOM      3  C   UNL     1       4.029  -0.102   2.839  0.00  0.00    +0.008 A 
ATOM      4  C   UNL     1       3.640   1.222   2.810  0.00  0.00    -0.029 A 
ATOM      5  C   UNL     1       2.755   1.671   1.833  0.00  0.00    +0.039 A 
ATOM      6  C   UNL     1       2.273   0.766   0.892  0.00  0.00    -0.027 A 
ATOM      7  C   UNL     1       2.664  -0.554   0.925  0.00  0.00    +0.008 A 
ATOM      8  C   UNL     1       1.358   1.552  -0.003  0.00  0.00    +0.050 C 
ATOM      9  C   UNL     1       1.820   1.504  -1.464  0.00  0.00    +0.088 C 
ATOM     10  C   UNL     1       0.504   1.480  -2.290  0.00  0.00    +0.075 C 
ATOM     11  C   UNL     1      -0.625   1.536  -1.238  0.00  0.00    -0.028 C 
ATOM     12  C   UNL     1       0.543   2.789  -3.046  0.00  0.00    +0.224 C 
ATOM     13  O   UNL     1      -0.304   3.176  -3.821  0.00  0.00    -0.275 OA
ATOM     14  N   UNL     1       1.659   3.454  -2.725  0.00  0.00    -0.241 N 
ATOM     15  C   UNL     1       2.447   2.825  -1.845  0.00  0.00    +0.225 C 
ATOM     16  O   UNL     1       3.500   3.250  -1.420  0.00  0.00    -0.275 OA
ATOM     17  C   UNL     1       1.392   2.955   0.538  0.00  0.00    +0.211 C 
ATOM     18  O   UNL     1       0.788   3.914   0.104  0.00  0.00    -0.277 OA
ATOM     19  N   UNL     1       2.223   2.941   1.599  0.00  0.00    -0.286 N 
ATOM     20  C   UNL     1       4.176   2.184   3.839  0.00  0.00    +0.045 C 
ATOM     21  H   UNL     1       2.427   3.721   2.137  0.00  0.00    +0.155 HD
ATOM     22  N   UNL     1       0.004   1.027  -0.018  0.00  0.00    +0.396 N 
ATOM     23  H   UNL     1      -0.512   1.351   0.809  0.00  0.00    -0.083 HD
ATOM     24  H   UNL     1       0.021   0.000  -0.030  0.00  0.00    -0.083 HD
ENDROOT
BRANCH  11  25
ATOM     25  C   UNL     1      -1.800   0.657  -1.671  0.00  0.00    +0.098 C 
ATOM     26  C   UNL     1      -2.872   0.667  -0.579  0.00  0.00    +0.036 C 
BRANCH  25  27
ATOM     27  O   UNL     1      -1.343  -0.681  -1.877  0.00  0.00    -0.394 OA
ATOM     28  H   UNL     1      -0.954  -1.090  -1.092  0.00  0.00    +0.210 HD
ENDBRANCH  25  27
ENDBRANCH  11  25
BRANCH  14  29
ATOM     29  C   UNL     1       1.991   4.764  -3.292  0.00  0.00    +0.121 C 
BRANCH  29  30
ATOM     30  C   UNL     1       2.803   4.574  -4.574  0.00  0.00    +0.054 C 
BRANCH  30  31
ATOM     31  C   UNL     1       3.145   5.921  -5.157  0.00  0.00    -0.046 A 
ATOM     32  C   UNL     1       2.292   6.517  -6.066  0.00  0.00    +0.004 A 
ATOM     33  C   UNL     1       2.602   7.755  -6.597  0.00  0.00    +0.000 A 
ATOM     34  C   UNL     1       3.772   8.392  -6.226  0.00  0.00    +0.000 A 
ATOM     35  C   UNL     1       4.627   7.794  -5.320  0.00  0.00    +0.000 A 
ATOM     36  C   UNL     1       4.314   6.558  -4.786  0.00  0.00    +0.004 A 
ENDBRANCH  30  31
ENDBRANCH  29  30
ENDBRANCH  14  29
TORSDOF 5
