REMARK  Name = ZINC39459319
REMARK  8 active torsions:
REMARK  status: ('A' for Active; 'I' for Inactive)
REMARK    1  A    between atoms: C_1  and  C_2
REMARK    2  A    between atoms: C_2  and  O_3
REMARK    3  A    between atoms: O_3  and  N_4
REMARK    4  A    between atoms: C_5  and  C_35
REMARK    5  A    between atoms: C_6  and  C_28
REMARK    6  A    between atoms: C_11  and  S_15
REMARK    7  A    between atoms: S_15  and  C_18
REMARK    8  A    between atoms: C_33  and  O_34
REMARK                            x       y       z     vdW  Elec       q    Type
REMARK                         _______ _______ _______ _____ _____    ______ ____
ROOT
ATOM      1  N   UNL     1       0.630  -1.268  -2.183  0.00  0.00    -0.184 N 
ATOM      2  C   UNL     1       1.762  -1.929  -1.815  0.00  0.00    +0.063 A 
ATOM      3  C   UNL     1       1.577  -3.264  -2.041  0.00  0.00    +0.013 A 
ATOM      4  C   UNL     1       0.286  -3.425  -2.568  0.00  0.00    -0.009 A 
ATOM      5  C   UNL     1      -0.283  -2.180  -2.629  0.00  0.00    +0.110 A 
ATOM      6  C   UNL     1      -1.665  -1.963  -3.094  0.00  0.00    +0.103 A 
ATOM      7  C   UNL     1      -2.654  -2.845  -2.590  0.00  0.00    +0.070 A 
ATOM      8  C   UNL     1      -3.970  -2.709  -3.035  0.00  0.00    +0.108 A 
ATOM      9  C   UNL     1      -4.248  -1.694  -3.936  0.00  0.00    +0.048 A 
ATOM     10  C   UNL     1      -3.231  -0.855  -4.363  0.00  0.00    +0.113 A 
ATOM     11  N   UNL     1      -1.989  -1.004  -3.943  0.00  0.00    -0.253 NA
ATOM     12  C   UNL     1      -2.262  -3.849  -1.603  0.00  0.00    +0.167 C 
ATOM     13  O   UNL     1      -2.559  -3.685  -0.438  0.00  0.00    -0.292 OA
ATOM     14  C   UNL     1      -1.492  -5.087  -2.005  0.00  0.00    +0.084 C 
ATOM     15  C   UNL     1      -0.390  -4.693  -3.010  0.00  0.00    +0.046 C 
ATOM     16  C   UNL     1       3.008  -1.295  -1.252  0.00  0.00    +0.068 C 
ENDROOT
BRANCH   3  17
ATOM     17  C   UNL     1       2.560  -4.345  -1.777  0.00  0.00    +0.026 A 
ATOM     18  C   UNL     1       2.580  -4.985  -0.541  0.00  0.00    +0.012 A 
ATOM     19  C   UNL     1       3.496  -5.990  -0.300  0.00  0.00    +0.001 A 
ATOM     20  C   UNL     1       4.396  -6.362  -1.283  0.00  0.00    +0.004 A 
ATOM     21  C   UNL     1       4.385  -5.732  -2.513  0.00  0.00    +0.046 A 
ATOM     22  C   UNL     1       3.466  -4.727  -2.770  0.00  0.00    +0.125 A 
BRANCH  22  23
ATOM     23  O   UNL     1       3.451  -4.111  -3.981  0.00  0.00    -0.506 OA
ATOM     24  H   UNL     1       4.024  -3.334  -4.034  0.00  0.00    +0.292 HD
ENDBRANCH  22  23
ENDBRANCH   3  17
BRANCH   8  25
ATOM     25  S   UNL     1      -5.237  -3.794  -2.469  0.00  0.00    +0.026 S 
ATOM     26  O   UNL     1      -6.077  -4.054  -3.585  0.00  0.00    -0.164 OA
ATOM     27  O   UNL     1      -4.590  -4.831  -1.744  0.00  0.00    -0.164 OA
BRANCH  25  28
ATOM     28  C   UNL     1      -6.210  -2.897  -1.305  0.00  0.00    +0.094 A 
ATOM     29  C   UNL     1      -5.940  -3.001   0.047  0.00  0.00    +0.027 A 
ATOM     30  C   UNL     1      -6.702  -2.298   0.960  0.00  0.00    +0.002 A 
ATOM     31  C   UNL     1      -7.735  -1.490   0.522  0.00  0.00    +0.000 A 
ATOM     32  C   UNL     1      -8.004  -1.385  -0.830  0.00  0.00    +0.002 A 
ATOM     33  C   UNL     1      -7.239  -2.085  -1.744  0.00  0.00    +0.027 A 
ENDBRANCH  25  28
ENDBRANCH   8  25
BRANCH   1  34
ATOM     34  O   UNL     1       0.431   0.132  -2.111  0.00  0.00    -0.411 OA
BRANCH  34  36
ATOM     35  C   UNL     1      -0.286   2.098  -0.903  0.00  0.00    +0.051 C 
ATOM     36  C   UNL     1      -0.115   0.578  -0.868  0.00  0.00    +0.257 C 
ENDBRANCH  34  36
ENDBRANCH   1  34
TORSDOF 6
