REMARK  Name = ZINC36206376
REMARK  15 active torsions:
REMARK  status: ('A' for Active; 'I' for Inactive)
REMARK    1  A    between atoms: C_1  and  C_2
REMARK    2  A    between atoms: C_2  and  C_3
REMARK    3  A    between atoms: C_2  and  C_4
REMARK    4  A    between atoms: C_4  and  O_5
REMARK    5  A    between atoms: O_5  and  C_6
REMARK    6  A    between atoms: C_6  and  C_7
REMARK    7  A    between atoms: C_7  and  C_9
REMARK    8  A    between atoms: C_7  and  O_37
REMARK    9  A    between atoms: C_9  and  N_10
REMARK   10  A    between atoms: N_10  and  C_11
REMARK   11  A    between atoms: N_10  and  C_31
REMARK   12  A    between atoms: C_11  and  C_12
REMARK   13  A    between atoms: C_18  and  C_23
REMARK   14  A    between atoms: C_27  and  O_29
REMARK   15  A    between atoms: O_29  and  C_30
REMARK                            x       y       z     vdW  Elec       q    Type
REMARK                         _______ _______ _______ _____ _____    ______ ____
ROOT
ATOM      1  C   UNL     1      -4.860  -6.649  -1.572  0.00  0.00    -0.003 C 
ENDROOT
BRANCH   1   2
ATOM      2  C   UNL     1      -4.357  -7.587  -2.639  0.00  0.00    +0.094 A 
ATOM      3  N   UNL     1      -5.195  -7.976  -3.634  0.00  0.00    -0.312 N 
ATOM      4  H   UNL     1      -6.107  -7.644  -3.645  0.00  0.00    +0.170 HD
ATOM      5  C   UNL     1      -4.785  -8.811  -4.607  0.00  0.00    +0.260 A 
ATOM      6  O   UNL     1      -5.550  -9.150  -5.494  0.00  0.00    -0.267 OA
ATOM      7  C   UNL     1      -3.438  -9.294  -4.584  0.00  0.00    +0.080 A 
ATOM      8  C   UNL     1      -2.766 -10.196  -5.513  0.00  0.00    +0.004 A 
ATOM      9  C   UNL     1      -1.469 -10.516  -5.285  0.00  0.00    +0.056 A 
ATOM     10  S   UNL     1      -1.076  -9.616  -3.798  0.00  0.00    -0.076 S 
ATOM     11  C   UNL     1      -2.646  -8.839  -3.518  0.00  0.00    +0.116 A 
ATOM     12  N   UNL     1      -3.121  -8.007  -2.595  0.00  0.00    -0.229 NA
BRANCH   8  13
ATOM     13  C   UNL     1      -3.487 -10.751  -6.682  0.00  0.00    -0.013 A 
ATOM     14  C   UNL     1      -4.737 -11.347  -6.515  0.00  0.00    +0.009 A 
ATOM     15  C   UNL     1      -5.407 -11.863  -7.606  0.00  0.00    +0.004 A 
ATOM     16  C   UNL     1      -4.842 -11.792  -8.866  0.00  0.00    +0.045 A 
ATOM     17  C   UNL     1      -3.598 -11.201  -9.041  0.00  0.00    +0.121 A 
ATOM     18  C   UNL     1      -2.922 -10.674  -7.953  0.00  0.00    +0.054 A 
BRANCH  17  19
ATOM     19  O   UNL     1      -3.047 -11.134 -10.281  0.00  0.00    -0.495 OA
ATOM     20  C   UNL     1      -3.803 -11.691 -11.358  0.00  0.00    +0.277 C 
ENDBRANCH  17  19
ENDBRANCH   8  13
ENDBRANCH   1   2
BRANCH   1  21
ATOM     21  N   UNL     1      -3.841  -6.511  -0.522  0.00  0.00    +0.388 N 
ATOM     22  H   UNL     1      -2.924  -6.491  -0.944  0.00  0.00    -0.081 HD
BRANCH  21  23
ATOM     23  C   UNL     1      -3.931  -7.650   0.401  0.00  0.00    -0.068 C 
ATOM     24  C   UNL     1      -3.754  -8.954  -0.380  0.00  0.00    -0.015 C 
ATOM     25  C   UNL     1      -3.847 -10.141   0.581  0.00  0.00    -0.002 C 
ATOM     26  C   UNL     1      -5.216 -10.137   1.264  0.00  0.00    -0.000 C 
ATOM     27  C   UNL     1      -5.394  -8.833   2.045  0.00  0.00    -0.002 C 
ATOM     28  C   UNL     1      -5.300  -7.647   1.083  0.00  0.00    -0.015 C 
ENDBRANCH  21  23
BRANCH  21  29
ATOM     29  C   UNL     1      -4.067  -5.262   0.218  0.00  0.00    -0.044 C 
BRANCH  29  30
ATOM     30  C   UNL     1      -2.914  -5.034   1.197  0.00  0.00    +0.124 C 
BRANCH  30  31
ATOM     31  O   UNL     1      -2.966  -6.018   2.232  0.00  0.00    -0.391 OA
ATOM     32  H   UNL     1      -3.812  -6.051   2.701  0.00  0.00    +0.210 HD
ENDBRANCH  30  31
BRANCH  30  33
ATOM     33  C   UNL     1      -3.036  -3.639   1.813  0.00  0.00    +0.189 C 
BRANCH  33  34
ATOM     34  O   UNL     1      -1.898  -3.381   2.638  0.00  0.00    -0.377 OA
BRANCH  34  35
ATOM     35  C   UNL     1      -1.913  -2.097   3.265  0.00  0.00    +0.163 C 
BRANCH  35  37
ATOM     36  C   UNL     1      -0.609  -0.512   4.689  0.00  0.00    +0.009 C 
ATOM     37  C   UNL     1      -0.654  -1.931   4.118  0.00  0.00    +0.009 C 
ATOM     38  C   UNL     1      -0.680  -2.942   5.266  0.00  0.00    +0.009 C 
ENDBRANCH  35  37
ENDBRANCH  34  35
ENDBRANCH  33  34
ENDBRANCH  30  33
ENDBRANCH  29  30
ENDBRANCH  21  29
ENDBRANCH   1  21
TORSDOF 12
