REMARK  Name = ZINC35813935
REMARK  5 active torsions:
REMARK  status: ('A' for Active; 'I' for Inactive)
REMARK    1  A    between atoms: C_2  and  C_3
REMARK    2  A    between atoms: C_3  and  N_4
REMARK    3  A    between atoms: C_5  and  C_7
REMARK    4  A    between atoms: C_11  and  C_24
REMARK    5  A    between atoms: N_17  and  C_18
REMARK                            x       y       z     vdW  Elec       q    Type
REMARK                         _______ _______ _______ _____ _____    ______ ____
ROOT
ATOM      1  C   UNL     1       2.497  -3.206   3.056  0.00  0.00    +0.092 C 
ATOM      2  C   UNL     1       3.877  -3.773   2.718  0.00  0.00    +0.016 C 
ATOM      3  C   UNL     1       4.465  -4.461   3.952  0.00  0.00    +0.028 C 
ATOM      4  C   UNL     1       4.626  -3.433   5.076  0.00  0.00    +0.108 C 
ATOM      5  N   UNL     1       3.331  -2.779   5.309  0.00  0.00    -0.278 N 
ATOM      6  C   UNL     1       2.635  -2.164   4.170  0.00  0.00    +0.122 C 
ATOM      7  C   UNL     1       2.792  -2.744   6.543  0.00  0.00    +0.307 C 
ATOM      8  O   UNL     1       3.418  -3.173   7.493  0.00  0.00    -0.252 OA
ATOM      9  N   UNL     1       1.558  -2.233   6.725  0.00  0.00    -0.269 N 
ATOM     10  H   UNL     1       1.027  -1.963   5.959  0.00  0.00    +0.156 HD
ENDROOT
BRANCH   4  11
ATOM     11  C   UNL     1       5.078  -4.127   6.335  0.00  0.00    -0.027 A 
ATOM     12  C   UNL     1       4.292  -5.115   6.899  0.00  0.00    +0.008 A 
ATOM     13  C   UNL     1       4.706  -5.753   8.053  0.00  0.00    +0.038 A 
ATOM     14  C   UNL     1       5.908  -5.402   8.645  0.00  0.00    +0.123 A 
ATOM     15  C   UNL     1       6.694  -4.412   8.079  0.00  0.00    +0.038 A 
ATOM     16  C   UNL     1       6.281  -3.780   6.922  0.00  0.00    +0.008 A 
ATOM     17  F   UNL     1       6.313  -6.024   9.773  0.00  0.00    -0.205 F 
ENDBRANCH   4  11
BRANCH   9  18
ATOM     18  C   UNL     1       1.042  -2.092   8.018  0.00  0.00    +0.035 A 
ATOM     19  C   UNL     1       1.333  -3.041   8.990  0.00  0.00    +0.023 A 
ATOM     20  C   UNL     1       0.823  -2.899  10.266  0.00  0.00    +0.002 A 
ATOM     21  C   UNL     1       0.023  -1.814  10.576  0.00  0.00    +0.000 A 
ATOM     22  C   UNL     1      -0.269  -0.868   9.610  0.00  0.00    +0.002 A 
ATOM     23  C   UNL     1       0.243  -1.001   8.334  0.00  0.00    +0.023 A 
ENDBRANCH   9  18
BRANCH   1  25
ATOM     24  N   UNL     1       0.686  -1.986   1.893  0.00  0.00    -0.312 N 
ATOM     25  C   UNL     1       1.905  -2.558   1.831  0.00  0.00    +0.218 C 
ATOM     26  O   UNL     1       2.526  -2.550   0.789  0.00  0.00    -0.275 OA
ATOM     27  H   UNL     1       0.190  -1.992   2.727  0.00  0.00    +0.149 HD
BRANCH  24  28
ATOM     28  C   UNL     1       0.111  -1.355   0.703  0.00  0.00    +0.131 C 
BRANCH  28  30
ATOM     29  C   UNL     1      -1.510   0.467   0.809  0.00  0.00    +0.005 C 
ATOM     30  C   UNL     1      -1.248  -0.796   1.037  0.00  0.00    -0.016 C 
ENDBRANCH  28  30
ENDBRANCH  24  28
ENDBRANCH   1  25
TORSDOF 5
