REMARK  Name = ZINC19219604
REMARK  7 active torsions:
REMARK  status: ('A' for Active; 'I' for Inactive)
REMARK    1  A    between atoms: C_1  and  C_2
REMARK    2  A    between atoms: C_10  and  C_34
REMARK    3  A    between atoms: C_11  and  C_12
REMARK    4  A    between atoms: C_12  and  C_14
REMARK    5  A    between atoms: C_12  and  O_33
REMARK    6  A    between atoms: C_14  and  N_15
REMARK    7  A    between atoms: C_22  and  O_32
REMARK                            x       y       z     vdW  Elec       q    Type
REMARK                         _______ _______ _______ _____ _____    ______ ____
ROOT
ATOM      1  N   UNL     1       2.114   1.556  -1.196  0.00  0.00    +0.382 N 
ATOM      2  C   UNL     1       1.419   2.051  -0.001  0.00  0.00    -0.075 C 
ATOM      3  C   UNL     1      -0.019   1.525   0.010  0.00  0.00    +0.029 C 
ATOM      4  C   UNL     1       0.002  -0.004   0.002  0.00  0.00    +0.110 C 
ATOM      5  C   UNL     1       0.776  -0.495  -1.223  0.00  0.00    +0.029 C 
ATOM      6  C   UNL     1       2.190   0.090  -1.195  0.00  0.00    -0.075 C 
ATOM      7  C   UNL     1      -1.434  -0.535  -0.054  0.00  0.00    +0.084 C 
ATOM      8  C   UNL     1      -2.213   0.055   1.125  0.00  0.00    +0.152 C 
ATOM      9  C   UNL     1      -1.415  -0.110   2.393  0.00  0.00    +0.024 A 
ATOM     10  C   UNL     1      -2.068   0.001   3.610  0.00  0.00    +0.029 A 
ATOM     11  C   UNL     1      -1.367  -0.139   4.793  0.00  0.00    +0.042 A 
ATOM     12  C   UNL     1      -0.006  -0.391   4.764  0.00  0.00    +0.023 A 
ATOM     13  C   UNL     1       0.648  -0.503   3.555  0.00  0.00    +0.047 A 
ATOM     14  C   UNL     1      -0.055  -0.365   2.362  0.00  0.00    +0.127 A 
ATOM     15  O   UNL     1       0.623  -0.488   1.191  0.00  0.00    -0.485 OA
ATOM     16 CL   UNL     1      -2.193  -0.001   6.313  0.00  0.00    -0.084 Cl
ATOM     17  H   UNL     1       1.528   1.861  -2.075  0.00  0.00    -0.082 HD
ENDROOT
BRANCH   8  18
ATOM     18  O   UNL     1      -3.463  -0.624   1.257  0.00  0.00    -0.387 OA
ATOM     19  H   UNL     1      -4.164  -0.336   2.054  0.00  0.00    +0.210 HD
ENDBRANCH   8  18
BRANCH   1  20
ATOM     20  C   UNL     1       3.451   2.153  -1.312  0.00  0.00    -0.042 C 
BRANCH  20  21
ATOM     21  C   UNL     1       3.318   3.658  -1.559  0.00  0.00    +0.130 C 
BRANCH  21  32
ATOM     22  C   UNL     1       8.104   7.482   1.574  0.00  0.00    +0.044 C 
ATOM     23  C   UNL     1       7.146   6.636   0.776  0.00  0.00    -0.048 A 
ATOM     24  C   UNL     1       5.914   6.294   1.319  0.00  0.00    +0.004 A 
ATOM     25  C   UNL     1       5.032   5.528   0.611  0.00  0.00    +0.010 A 
ATOM     26  C   UNL     1       5.372   5.084  -0.669  0.00  0.00    +0.005 A 
ATOM     27  C   UNL     1       6.618   5.427  -1.224  0.00  0.00    +0.047 A 
ATOM     28  C   UNL     1       7.500   6.209  -0.485  0.00  0.00    +0.029 A 
ATOM     29  N   UNL     1       6.676   4.858  -2.476  0.00  0.00    -0.358 N 
ATOM     30  H   UNL     1       7.568   4.999  -3.104  0.00  0.00    +0.166 HD
ATOM     31  C   UNL     1       5.521   4.169  -2.728  0.00  0.00    +0.019 A 
ATOM     32  C   UNL     1       4.690   4.270  -1.678  0.00  0.00    +0.007 A 
ATOM     33  C   UNL     1       5.224   3.410  -3.996  0.00  0.00    +0.063 C 
ENDBRANCH  21  32
BRANCH  21  34
ATOM     34  O   UNL     1       2.590   3.879  -2.768  0.00  0.00    -0.389 OA
ATOM     35  H   UNL     1       1.562   3.502  -2.869  0.00  0.00    +0.210 HD
ENDBRANCH  21  34
ENDBRANCH  20  21
ENDBRANCH   1  20
TORSDOF 5
