REMARK  Name = ZINC21255794
REMARK  12 active torsions:
REMARK  status: ('A' for Active; 'I' for Inactive)
REMARK    1  A    between atoms: C_1  and  C_2
REMARK    2  A    between atoms: C_2  and  O_3
REMARK    3  A    between atoms: O_3  and  C_4
REMARK    4  A    between atoms: C_7  and  C_12
REMARK    5  A    between atoms: C_9  and  O_10
REMARK    6  A    between atoms: O_10  and  C_11
REMARK    7  A    between atoms: C_17  and  C_27
REMARK    8  A    between atoms: C_30  and  O_33
REMARK    9  A    between atoms: O_33  and  C_34
REMARK   10  A    between atoms: C_34  and  C_35
REMARK   11  A    between atoms: C_35  and  C_36
REMARK   12  A    between atoms: C_35  and  C_37
REMARK                            x       y       z     vdW  Elec       q    Type
REMARK                         _______ _______ _______ _____ _____    ______ ____
ROOT
ATOM      1  C   UNL     1      -4.369   8.210  -0.881  0.00  0.00    +0.032 C 
ATOM      2  C   UNL     1      -3.265   9.262  -0.961  0.00  0.00    +0.059 C 
ATOM      3  C   UNL     1      -2.063   8.819  -0.143  0.00  0.00    +0.017 C 
ATOM      4  C   UNL     1      -2.228   8.068   0.959  0.00  0.00    +0.036 C 
ATOM      5  C   UNL     1      -1.126   7.561   1.859  0.00  0.00    +0.136 C 
ATOM      6  N   UNL     1       0.169   8.158   1.609  0.00  0.00    -0.331 N 
ATOM      7  C   UNL     1       0.830   7.957   0.402  0.00  0.00    +0.049 A 
ATOM      8  C   UNL     1       2.007   7.226   0.335  0.00  0.00    +0.025 A 
ATOM      9  C   UNL     1       2.587   6.981  -0.897  0.00  0.00    +0.002 A 
ATOM     10  C   UNL     1       2.002   7.460  -2.055  0.00  0.00    +0.002 A 
ATOM     11  C   UNL     1       0.840   8.210  -1.990  0.00  0.00    +0.025 A 
ATOM     12  C   UNL     1       0.270   8.472  -0.757  0.00  0.00    +0.052 A 
ATOM     13  N   UNL     1      -0.868   9.259  -0.613  0.00  0.00    -0.316 N 
ATOM     14  C   UNL     1      -3.525   7.676   1.368  0.00  0.00    +0.163 C 
ATOM     15  O   UNL     1      -3.647   7.015   2.380  0.00  0.00    -0.292 OA
ATOM     16  C   UNL     1      -4.755   8.050   0.594  0.00  0.00    +0.088 C 
ATOM     17  H   UNL     1       0.645   8.781   2.379  0.00  0.00    +0.147 HD
ATOM     18  H   UNL     1      -0.749  10.311  -0.914  0.00  0.00    +0.152 HD
ENDROOT
BRANCH   1  22
ATOM     19  C   UNL     1      -7.767   9.506  -3.131  0.00  0.00    +0.162 A 
ATOM     20  C   UNL     1      -7.307  10.264  -2.067  0.00  0.00    +0.050 A 
ATOM     21  C   UNL     1      -6.212   9.840  -1.338  0.00  0.00    +0.008 A 
ATOM     22  C   UNL     1      -5.566   8.665  -1.676  0.00  0.00    -0.040 A 
ATOM     23  C   UNL     1      -6.020   7.903  -2.736  0.00  0.00    +0.053 A 
ATOM     24  C   UNL     1      -7.121   8.320  -3.467  0.00  0.00    +0.162 A 
BRANCH  24  25
ATOM     25  O   UNL     1      -7.569   7.572  -4.511  0.00  0.00    -0.491 OA
ATOM     26  C   UNL     1      -6.857   6.367  -4.798  0.00  0.00    +0.277 C 
ENDBRANCH  24  25
BRANCH  19  27
ATOM     27  O   UNL     1      -8.848   9.919  -3.846  0.00  0.00    -0.489 OA
BRANCH  27  29
ATOM     28  C   UNL     1     -10.651  11.444  -4.358  0.00  0.00    +0.048 C 
ATOM     29  C   UNL     1      -9.461  11.146  -3.444  0.00  0.00    +0.226 C 
ENDBRANCH  27  29
ENDBRANCH  19  27
ENDBRANCH   1  22
BRANCH   5  30
ATOM     30  C   UNL     1      -1.009   6.070   1.679  0.00  0.00    -0.023 A 
ATOM     31  C   UNL     1      -0.642   5.550   0.452  0.00  0.00    +0.009 A 
ATOM     32  C   UNL     1      -0.534   4.183   0.284  0.00  0.00    +0.046 A 
ATOM     33  C   UNL     1      -0.793   3.332   1.349  0.00  0.00    +0.121 A 
ATOM     34  C   UNL     1      -1.166   3.856   2.578  0.00  0.00    +0.046 A 
ATOM     35  C   UNL     1      -1.268   5.224   2.742  0.00  0.00    +0.009 A 
BRANCH  33  36
ATOM     36  O   UNL     1      -0.688   1.987   1.186  0.00  0.00    -0.492 OA
BRANCH  36  37
ATOM     37  C   UNL     1      -0.969   1.171   2.325  0.00  0.00    +0.232 C 
BRANCH  37  38
ATOM     38  C   UNL     1      -0.799  -0.303   1.953  0.00  0.00    +0.020 C 
ATOM     39  C   UNL     1      -0.978  -1.169   3.201  0.00  0.00    +0.010 C 
ATOM     40  C   UNL     1      -1.848  -0.689   0.909  0.00  0.00    +0.010 C 
ENDBRANCH  37  38
ENDBRANCH  36  37
ENDBRANCH  33  36
ENDBRANCH   5  30
TORSDOF 8
