REMARK  Name = ZINC23858714
REMARK  8 active torsions:
REMARK  status: ('A' for Active; 'I' for Inactive)
REMARK    1  A    between atoms: C_1  and  C_2
REMARK    2  A    between atoms: C_5  and  C_11
REMARK    3  A    between atoms: C_7  and  N_8
REMARK    4  A    between atoms: N_13  and  C_14
REMARK    5  A    between atoms: C_14  and  C_15
REMARK    6  A    between atoms: C_15  and  C_17
REMARK    7  A    between atoms: C_15  and  N_28
REMARK    8  A    between atoms: N_26  and  C_27
REMARK                            x       y       z     vdW  Elec       q    Type
REMARK                         _______ _______ _______ _____ _____    ______ ____
ROOT
ATOM      1  C   UNL     1       3.213  -1.592   4.954  0.00  0.00    -0.020 C 
ENDROOT
BRANCH   1   2
ATOM      2  C   UNL     1       2.117  -1.587   3.919  0.00  0.00    -0.059 A 
ATOM      3  C   UNL     1       1.306  -2.697   3.763  0.00  0.00    +0.004 A 
ATOM      4  C   UNL     1       0.307  -2.692   2.814  0.00  0.00    +0.023 A 
ATOM      5  C   UNL     1       0.105  -1.571   2.007  0.00  0.00    +0.033 A 
ATOM      6  C   UNL     1       0.916  -0.462   2.170  0.00  0.00    -0.026 A 
ATOM      7  C   UNL     1       1.921  -0.476   3.124  0.00  0.00    +0.007 A 
ATOM      8  C   UNL     1       0.744   0.784   1.337  0.00  0.00    +0.038 C 
ATOM      9  C   UNL     1      -0.128   0.472   0.118  0.00  0.00    +0.024 C 
ATOM     10  C   UNL     1      -1.355  -0.310   0.603  0.00  0.00    +0.105 C 
ATOM     11  N   UNL     1      -0.918  -1.630   1.062  0.00  0.00    -0.333 N 
ATOM     12  C   UNL     1      -2.054  -2.415   1.565  0.00  0.00    +0.129 C 
ENDBRANCH   1   2
BRANCH   1  13
ATOM     13  N   UNL     1       3.863  -2.909   4.972  0.00  0.00    +0.385 N 
ATOM     14  C   UNL     1       4.420  -3.246   3.637  0.00  0.00    -0.078 C 
ATOM     15  C   UNL     1       5.473  -4.337   3.957  0.00  0.00    -0.020 C 
ATOM     16  C   UNL     1       6.078  -3.851   5.294  0.00  0.00    -0.020 C 
ATOM     17  C   UNL     1       5.013  -2.919   5.902  0.00  0.00    -0.078 C 
ATOM     18  H   UNL     1       3.086  -3.622   5.283  0.00  0.00    -0.081 HD
ENDBRANCH   1  13
BRANCH   1  19
ATOM     19  C   UNL     1       2.615  -1.299   6.331  0.00  0.00    +0.094 C 
BRANCH  19  22
ATOM     20  C   UNL     1       1.440   0.523   7.442  0.00  0.00    +0.244 C 
ATOM     21  O   UNL     1       1.253  -0.214   8.390  0.00  0.00    -0.270 OA
ATOM     22  N   UNL     1       2.111   0.076   6.362  0.00  0.00    -0.313 N 
ATOM     23  H   UNL     1       2.280   0.744   5.505  0.00  0.00    +0.149 HD
BRANCH  20  28
ATOM     24  C   UNL     1      -0.537   5.926   7.567  0.00  0.00    +0.046 C 
ATOM     25  C   UNL     1      -0.019   4.511   7.534  0.00  0.00    -0.020 A 
ATOM     26  C   UNL     1       0.669   4.055   6.424  0.00  0.00    +0.006 A 
ATOM     27  C   UNL     1       1.150   2.763   6.390  0.00  0.00    +0.013 A 
ATOM     28  C   UNL     1       0.932   1.911   7.474  0.00  0.00    +0.039 A 
ATOM     29  C   UNL     1       0.237   2.378   8.591  0.00  0.00    +0.046 A 
ATOM     30  C   UNL     1      -0.234   3.674   8.614  0.00  0.00    +0.130 A 
BRANCH  30  31
ATOM     31  N   UNL     1      -0.972   4.171   9.798  0.00  0.00    +0.057 N 
ATOM     32  O   UNL     1      -1.262   3.405  10.700  0.00  0.00    -0.126 OA
ATOM     33  O   UNL     1      -1.289   5.345   9.870  0.00  0.00    -0.126 OA
ENDBRANCH  30  31
ENDBRANCH  20  28
ENDBRANCH  19  22
ENDBRANCH   1  19
TORSDOF 6
