REMARK  Name = ZINC20682391
REMARK  10 active torsions:
REMARK  status: ('A' for Active; 'I' for Inactive)
REMARK    1  A    between atoms: C_1  and  C_2
REMARK    2  A    between atoms: C_2  and  C_3
REMARK    3  A    between atoms: C_3  and  N_4
REMARK    4  A    between atoms: N_4  and  C_5
REMARK    5  A    between atoms: C_5  and  C_6
REMARK    6  A    between atoms: C_6  and  C_7
REMARK    7  A    between atoms: C_8  and  C_10
REMARK    8  A    between atoms: C_23  and  C_26
REMARK    9  A    between atoms: C_29  and  O_33
REMARK   10  A    between atoms: C_31  and  O_32
REMARK                            x       y       z     vdW  Elec       q    Type
REMARK                         _______ _______ _______ _____ _____    ______ ____
ROOT
ATOM      1  C   UNL     1      -5.129   2.761   2.236  0.00  0.00    +0.037 A 
ATOM      2  C   UNL     1      -4.854   2.860   3.603  0.00  0.00    +0.015 A 
ATOM      3  C   UNL     1      -3.885   2.067   4.169  0.00  0.00    +0.024 A 
ATOM      4  C   UNL     1      -3.169   1.160   3.391  0.00  0.00    +0.031 A 
ATOM      5  C   UNL     1      -3.436   1.063   2.023  0.00  0.00    -0.019 A 
ATOM      6  C   UNL     1      -4.418   1.848   1.452  0.00  0.00    +0.019 A 
ATOM      7  C   UNL     1      -2.683   0.061   1.238  0.00  0.00    +0.049 C 
ATOM      8  C   UNL     1      -2.447   0.220  -0.220  0.00  0.00    -0.023 C 
ATOM      9  C   UNL     1      -1.277  -0.329  -0.522  0.00  0.00    -0.030 C 
ATOM     10  C   UNL     1      -0.615  -0.879   0.743  0.00  0.00    +0.033 C 
ATOM     11  C   UNL     1      -1.242   0.005   1.829  0.00  0.00    +0.029 C 
ATOM     12  C   UNL     1      -1.396  -0.600   3.213  0.00  0.00    +0.108 C 
ATOM     13  N   UNL     1      -2.181   0.381   3.992  0.00  0.00    -0.336 N 
ATOM     14  H   UNL     1      -1.991   0.508   5.068  0.00  0.00    +0.147 HD
ENDROOT
BRANCH  12  15
ATOM     15  C   UNL     1      -0.043  -0.807   3.844  0.00  0.00    +0.015 A 
ATOM     16  C   UNL     1       0.435   0.104   4.766  0.00  0.00    +0.012 A 
ATOM     17  C   UNL     1       1.673  -0.085   5.350  0.00  0.00    +0.046 A 
ATOM     18  C   UNL     1       2.444  -1.186   5.004  0.00  0.00    +0.120 A 
ATOM     19  C   UNL     1       1.968  -2.099   4.076  0.00  0.00    +0.091 A 
ATOM     20  C   UNL     1       0.723  -1.910   3.495  0.00  0.00    +0.125 A 
BRANCH  20  21
ATOM     21  O   UNL     1       0.255  -2.803   2.584  0.00  0.00    -0.506 OA
ATOM     22  H   UNL     1       0.863  -3.677   2.308  0.00  0.00    +0.292 HD
ENDBRANCH  20  21
BRANCH  18  23
ATOM     23  O   UNL     1       3.663  -1.370   5.575  0.00  0.00    -0.507 OA
ATOM     24  H   UNL     1       4.273  -2.243   5.301  0.00  0.00    +0.292 HD
ENDBRANCH  18  23
ENDBRANCH  12  15
BRANCH   1  26
ATOM     25  N   UNL     1      -7.359   3.766   2.228  0.00  0.00    -0.298 N 
ATOM     26  C   UNL     1      -6.163   3.616   1.623  0.00  0.00    +0.247 C 
ATOM     27  O   UNL     1      -5.938   4.185   0.573  0.00  0.00    -0.270 OA
BRANCH  25  28
ATOM     28  C   UNL     1      -8.430   4.508   1.560  0.00  0.00    +0.108 C 
BRANCH  28  30
ATOM     29  C   UNL     1     -10.385   4.322   0.016  0.00  0.00    +0.005 C 
ATOM     30  C   UNL     1      -9.266   3.546   0.714  0.00  0.00    +0.016 C 
ENDBRANCH  28  30
ENDBRANCH  25  28
BRANCH  25  31
ATOM     31  C   UNL     1      -7.586   3.187   3.555  0.00  0.00    +0.108 C 
BRANCH  31  32
ATOM     32  C   UNL     1      -7.396   4.266   4.622  0.00  0.00    +0.016 C 
ATOM     33  C   UNL     1      -7.500   3.634   6.011  0.00  0.00    +0.005 C 
ENDBRANCH  31  32
ENDBRANCH  25  31
ENDBRANCH   1  26
TORSDOF 8
