REMARK  Name = ZINC38971009
REMARK  6 active torsions:
REMARK  status: ('A' for Active; 'I' for Inactive)
REMARK    1  A    between atoms: C_4  and  C_7
REMARK    2  A    between atoms: C_9  and  C_13
REMARK    3  A    between atoms: N_19  and  N_20
REMARK    4  A    between atoms: C_21  and  C_22
REMARK    5  A    between atoms: C_25  and  O_29
REMARK    6  A    between atoms: C_27  and  O_28
REMARK                            x       y       z     vdW  Elec       q    Type
REMARK                         _______ _______ _______ _____ _____    ______ ____
ROOT
ATOM      1  C   UNL     1       5.811  -2.807  -1.219  0.00  0.00    +0.265 C 
ATOM      2  N   UNL     1       5.608  -2.043  -2.461  0.00  0.00    -0.169 NA
ATOM      3  N   UNL     1       6.667  -2.063  -3.095  0.00  0.00    -0.096 NA
ATOM      4  C   UNL     1       7.647  -2.746  -2.490  0.00  0.00    +0.198 C 
ATOM      5  S   UNL     1       9.226  -2.950  -3.120  0.00  0.00    -0.013 S 
ATOM      6  N   UNL     1       7.214  -3.253  -1.311  0.00  0.00    -0.173 N 
ENDROOT
BRANCH   1   9
ATOM      7  C   UNL     1       4.178  -0.164   0.034  0.00  0.00    +0.091 C 
ATOM      8  C   UNL     1       4.152  -1.507   0.139  0.00  0.00    +0.035 C 
ATOM      9  C   UNL     1       5.609  -1.911   0.004  0.00  0.00    +0.199 C 
ATOM     10  N   UNL     1       6.300  -0.622  -0.172  0.00  0.00    -0.176 NA
ATOM     11  N   UNL     1       5.452   0.272  -0.150  0.00  0.00    -0.154 NA
BRANCH   7  15
ATOM     12  C   UNL     1       0.755   2.351   0.230  0.00  0.00    +0.000 A 
ATOM     13  C   UNL     1       2.008   2.906   0.041  0.00  0.00    +0.001 A 
ATOM     14  C   UNL     1       3.122   2.094  -0.024  0.00  0.00    +0.010 A 
ATOM     15  C   UNL     1       2.984   0.714   0.103  0.00  0.00    +0.002 A 
ATOM     16  C   UNL     1       1.719   0.160   0.293  0.00  0.00    +0.010 A 
ATOM     17  C   UNL     1       0.612   0.981   0.356  0.00  0.00    +0.001 A 
ENDBRANCH   7  15
ENDBRANCH   1   9
BRANCH   6  18
ATOM     18  N   UNL     1       7.933  -4.024  -0.388  0.00  0.00    -0.183 NA
ATOM     19  C   UNL     1       7.332  -4.520   0.652  0.00  0.00    +0.142 C 
BRANCH  19  20
ATOM     20  C   UNL     1       8.108  -5.234   1.680  0.00  0.00    +0.036 A 
ATOM     21  C   UNL     1       7.464  -5.773   2.797  0.00  0.00    +0.016 A 
ATOM     22  C   UNL     1       8.194  -6.440   3.756  0.00  0.00    +0.046 A 
ATOM     23  C   UNL     1       9.570  -6.579   3.618  0.00  0.00    +0.120 A 
ATOM     24  C   UNL     1      10.219  -6.046   2.513  0.00  0.00    +0.091 A 
ATOM     25  C   UNL     1       9.496  -5.380   1.539  0.00  0.00    +0.129 A 
BRANCH  25  26
ATOM     26  O   UNL     1      10.129  -4.864   0.454  0.00  0.00    -0.506 OA
ATOM     27  H   UNL     1      10.436  -3.955   0.574  0.00  0.00    +0.292 HD
ENDBRANCH  25  26
BRANCH  23  28
ATOM     28  O   UNL     1      10.282  -7.237   4.568  0.00  0.00    -0.507 OA
ATOM     29  H   UNL     1      10.368  -8.187   4.407  0.00  0.00    +0.292 HD
ENDBRANCH  23  28
ENDBRANCH  19  20
ENDBRANCH   6  18
TORSDOF 6
