REMARK  Name = ZINC15323037
REMARK  13 active torsions:
REMARK  status: ('A' for Active; 'I' for Inactive)
REMARK    1  A    between atoms: C_1  and  C_2
REMARK    2  A    between atoms: C_2  and  C_3
REMARK    3  A    between atoms: C_3  and  C_4
REMARK    4  A    between atoms: C_4  and  N_5
REMARK    5  A    between atoms: C_6  and  N_36
REMARK    6  A    between atoms: C_7  and  N_14
REMARK    7  A    between atoms: N_14  and  C_15
REMARK    8  A    between atoms: C_15  and  C_16
REMARK    9  A    between atoms: C_16  and  C_17
REMARK   10  A    between atoms: C_17  and  C_18
REMARK   11  A    between atoms: C_17  and  C_19
REMARK   12  A    between atoms: C_20  and  C_22
REMARK   13  A    between atoms: C_22  and  C_23
REMARK                            x       y       z     vdW  Elec       q    Type
REMARK                         _______ _______ _______ _____ _____    ______ ____
ROOT
ATOM      1  N   UNL     1       0.161  -2.902  -2.315  0.00  0.00    -0.264 N 
ATOM      2  C   UNL     1       0.076  -2.294  -3.516  0.00  0.00    +0.224 C 
ATOM      3  O   UNL     1      -0.182  -1.110  -3.580  0.00  0.00    -0.275 OA
ENDROOT
BRANCH   1   6
ATOM      4  N   UNL     1       0.992  -1.264   0.868  0.00  0.00    -0.280 N 
ATOM      5  C   UNL     1       1.131  -2.007  -0.282  0.00  0.00    +0.127 A 
ATOM      6  C   UNL     1       0.052  -2.142  -1.131  0.00  0.00    +0.140 A 
ATOM      7  C   UNL     1      -1.159  -1.506  -0.798  0.00  0.00    +0.277 A 
ATOM      8  O   UNL     1      -2.127  -1.605  -1.532  0.00  0.00    -0.266 OA
ATOM      9  N   UNL     1      -1.240  -0.786   0.338  0.00  0.00    -0.273 N 
ATOM     10  H   UNL     1      -2.100  -0.333   0.576  0.00  0.00    +0.173 HD
ATOM     11  C   UNL     1      -0.179  -0.669   1.156  0.00  0.00    +0.331 A 
ATOM     12  O   UNL     1      -0.280  -0.013   2.175  0.00  0.00    -0.246 OA
BRANCH   5  13
ATOM     13  N   UNL     1       2.329  -2.611  -0.579  0.00  0.00    -0.343 N 
ATOM     14  H   UNL     1       3.051  -2.602   0.070  0.00  0.00    +0.144 HD
ATOM     15  H   UNL     1       2.454  -3.046  -1.437  0.00  0.00    +0.144 HD
ENDBRANCH   5  13
BRANCH   4  16
ATOM     16  C   UNL     1       2.128  -1.116   1.780  0.00  0.00    +0.128 C 
BRANCH  16  17
ATOM     17  C   UNL     1       2.102  -2.242   2.816  0.00  0.00    +0.021 C 
BRANCH  17  19
ATOM     18  C   UNL     1       3.261  -3.214   4.804  0.00  0.00    +0.004 C 
ATOM     19  C   UNL     1       3.288  -2.088   3.769  0.00  0.00    -0.002 C 
ENDBRANCH  17  19
ENDBRANCH  16  17
ENDBRANCH   4  16
ENDBRANCH   1   6
BRANCH   1  20
ATOM     20  C   UNL     1       0.367  -4.350  -2.240  0.00  0.00    +0.114 C 
BRANCH  20  21
ATOM     21  C   UNL     1      -0.987  -5.061  -2.297  0.00  0.00    +0.022 C 
BRANCH  21  22
ATOM     22  C   UNL     1      -0.772  -6.574  -2.218  0.00  0.00    -0.016 C 
ATOM     23  C   UNL     1      -2.128  -7.279  -2.150  0.00  0.00    +0.007 C 
ATOM     24  C   UNL     1      -0.014  -7.046  -3.461  0.00  0.00    +0.007 C 
ENDBRANCH  21  22
ENDBRANCH  20  21
ENDBRANCH   1  20
BRANCH   2  25
ATOM     25  C   UNL     1       0.301  -3.085  -4.779  0.00  0.00    +0.135 C 
BRANCH  25  26
ATOM     26  C   UNL     1       0.150  -2.179  -5.973  0.00  0.00    +0.007 A 
ATOM     27  C   UNL     1      -0.955  -1.999  -6.716  0.00  0.00    +0.200 A 
ATOM     28  O   UNL     1      -0.709  -1.112  -7.695  0.00  0.00    -0.463 OA
ATOM     29  C   UNL     1       0.567  -0.679  -7.642  0.00  0.00    +0.136 A 
ATOM     30  C   UNL     1       1.178  -1.322  -6.562  0.00  0.00    +0.031 A 
ATOM     31  C   UNL     1       2.576  -1.042  -6.262  0.00  0.00    -0.007 A 
ATOM     32  C   UNL     1       3.240  -1.655  -5.194  0.00  0.00    +0.009 A 
ATOM     33  C   UNL     1       4.550  -1.359  -4.954  0.00  0.00    +0.001 A 
ATOM     34  C   UNL     1       5.238  -0.456  -5.759  0.00  0.00    +0.001 A 
ATOM     35  C   UNL     1       4.621   0.158  -6.807  0.00  0.00    +0.008 A 
ATOM     36  C   UNL     1       3.274  -0.122  -7.083  0.00  0.00    -0.017 A 
ATOM     37  C   UNL     1       2.604   0.494  -8.157  0.00  0.00    +0.012 A 
ATOM     38  C   UNL     1       1.302   0.221  -8.422  0.00  0.00    +0.047 A 
ENDBRANCH  25  26
ENDBRANCH   2  25
TORSDOF 10
