REMARK  Name = ZINC63139973
REMARK  6 active torsions:
REMARK  status: ('A' for Active; 'I' for Inactive)
REMARK    1  A    between atoms: C_1  and  O_2
REMARK    2  A    between atoms: O_2  and  C_3
REMARK    3  A    between atoms: C_3  and  C_4
REMARK    4  A    between atoms: C_4  and  C_5
REMARK    5  A    between atoms: C_5  and  N_6
REMARK    6  A    between atoms: C_26  and  C_28
REMARK                            x       y       z     vdW  Elec       q    Type
REMARK                         _______ _______ _______ _____ _____    ______ ____
ROOT
ATOM      1  N   UNL     1      -2.437  -4.229   0.003  0.00  0.00    -0.291 N 
ATOM      2  C   UNL     1      -2.378  -4.905  -1.282  0.00  0.00    +0.203 C 
ATOM      3  C   UNL     1      -2.243  -6.384  -1.136  0.00  0.00    +0.234 C 
ATOM      4  O   UNL     1      -2.187  -7.048  -2.150  0.00  0.00    -0.274 OA
ATOM      5  N   UNL     1      -2.179  -7.031   0.034  0.00  0.00    -0.279 N 
ATOM      6  C   UNL     1      -2.219  -6.340   1.319  0.00  0.00    +0.167 C 
ATOM      7  C   UNL     1      -2.361  -4.861   1.173  0.00  0.00    +0.237 C 
ATOM      8  O   UNL     1      -2.414  -4.193   2.183  0.00  0.00    -0.274 OA
ATOM      9  C   UNL     1      -0.945  -6.657   2.124  0.00  0.00    +0.065 C 
ATOM     10  C   UNL     1      -0.736  -8.148   2.028  0.00  0.00    -0.034 C 
ATOM     11  C   UNL     1      -0.532  -9.070   2.961  0.00  0.00    -0.001 A 
ATOM     12  C   UNL     1      -0.325  -8.966   4.414  0.00  0.00    +0.010 A 
ATOM     13  C   UNL     1      -0.165 -10.138   5.083  0.00  0.00    +0.001 A 
ATOM     14  C   UNL     1      -0.190 -11.390   4.459  0.00  0.00    +0.002 A 
ATOM     15  C   UNL     1      -0.364 -11.579   3.126  0.00  0.00    +0.026 A 
ATOM     16  C   UNL     1      -0.536 -10.419   2.316  0.00  0.00    +0.043 A 
ATOM     17  N   UNL     1      -0.696 -10.308   1.030  0.00  0.00    -0.375 N 
ATOM     18  C   UNL     1      -0.752  -8.885   0.694  0.00  0.00    +0.131 C 
ATOM     19  C   UNL     1      -2.065  -8.506   0.003  0.00  0.00    +0.133 C 
ATOM     20  H   UNL     1      -0.766 -11.043   0.401  0.00  0.00    +0.160 HD
ENDROOT
BRANCH  19  21
ATOM     21  C   UNL     1      -2.049  -8.988  -1.425  0.00  0.00    -0.025 A 
ATOM     22  C   UNL     1      -0.858  -9.031  -2.126  0.00  0.00    +0.005 A 
ATOM     23  C   UNL     1      -0.843  -9.473  -3.436  0.00  0.00    +0.000 A 
ATOM     24  C   UNL     1      -2.018  -9.871  -4.045  0.00  0.00    +0.000 A 
ATOM     25  C   UNL     1      -3.209  -9.829  -3.344  0.00  0.00    +0.000 A 
ATOM     26  C   UNL     1      -3.223  -9.391  -2.032  0.00  0.00    +0.005 A 
ENDBRANCH  19  21
BRANCH   1  27
ATOM     27  C   UNL     1      -2.582  -2.771   0.012  0.00  0.00    +0.110 C 
BRANCH  27  28
ATOM     28  C   UNL     1      -1.198  -2.120  -0.001  0.00  0.00    +0.047 C 
BRANCH  28  29
ATOM     29  C   UNL     1      -1.350  -0.598   0.009  0.00  0.00    +0.161 C 
BRANCH  29  31
ATOM     30  C   UNL     1      -0.086   1.439   0.004  0.00  0.00    +0.193 C 
ATOM     31  O   UNL     1      -0.057   0.010  -0.003  0.00  0.00    -0.383 OA
ENDBRANCH  29  31
ENDBRANCH  28  29
ENDBRANCH  27  28
ENDBRANCH   1  27
TORSDOF 5
