REMARK  Name = ZINC12513254
REMARK  7 active torsions:
REMARK  status: ('A' for Active; 'I' for Inactive)
REMARK    1  A    between atoms: C_1  and  C_2
REMARK    2  A    between atoms: C_2  and  C_4
REMARK    3  A    between atoms: C_2  and  N_49
REMARK    4  A    between atoms: C_14  and  C_15
REMARK    5  A    between atoms: C_14  and  N_49
REMARK    6  A    between atoms: C_17  and  C_22
REMARK    7  A    between atoms: C_20  and  O_21
REMARK                            x       y       z     vdW  Elec       q    Type
REMARK                         _______ _______ _______ _____ _____    ______ ____
ROOT
ATOM      1  C   UNL     1      -2.165  -0.281   1.850  0.00  0.00    -0.042 C 
ENDROOT
BRANCH   1   2
ATOM      2  C   UNL     1      -3.591  -0.768   1.844  0.00  0.00    -0.022 A 
ATOM      3  C   UNL     1      -3.995  -1.705   0.916  0.00  0.00    +0.013 A 
ATOM      4  C   UNL     1      -5.313  -2.158   0.914  0.00  0.00    -0.017 A 
ATOM      5  C   UNL     1      -6.222  -1.655   1.844  0.00  0.00    +0.012 A 
ATOM      6  C   UNL     1      -5.813  -0.715   2.766  0.00  0.00    +0.046 A 
ATOM      7  C   UNL     1      -4.498  -0.269   2.769  0.00  0.00    +0.118 A 
BRANCH   4   8
ATOM      8  C   UNL     1      -5.750  -3.170  -0.079  0.00  0.00    -0.018 A 
ATOM      9  C   UNL     1      -4.843  -3.669  -1.013  0.00  0.00    +0.011 A 
ATOM     10  C   UNL     1      -5.252  -4.614  -1.931  0.00  0.00    +0.039 A 
ATOM     11  C   UNL     1      -6.564  -5.058  -1.934  0.00  0.00    +0.123 A 
ATOM     12  C   UNL     1      -7.470  -4.561  -1.011  0.00  0.00    +0.039 A 
ATOM     13  C   UNL     1      -7.069  -3.620  -0.085  0.00  0.00    +0.011 A 
ATOM     14  F   UNL     1      -6.962  -5.979  -2.839  0.00  0.00    -0.205 F 
ENDBRANCH   4   8
BRANCH   7  15
ATOM     15  O   UNL     1      -4.099   0.658   3.679  0.00  0.00    -0.507 OA
ATOM     16  H   UNL     1      -4.201   1.572   3.380  0.00  0.00    +0.292 HD
ENDBRANCH   7  15
ENDBRANCH   1   2
BRANCH   1  17
ATOM     17  N   UNL     1      -2.115   1.076   1.274  0.00  0.00    +0.386 N 
ATOM     18  H   UNL     1      -2.470   1.048   0.310  0.00  0.00    -0.085 HD
ATOM     19  H   UNL     1      -2.701   1.705   1.836  0.00  0.00    -0.085 HD
BRANCH  17  21
ATOM     20  C   UNL     1      -0.013   1.086   0.008  0.00  0.00    -0.009 C 
ATOM     21  C   UNL     1      -0.729   1.579   1.267  0.00  0.00    -0.043 C 
BRANCH  21  22
ATOM     22  C   UNL     1      -0.749   3.086   1.275  0.00  0.00    -0.054 A 
ATOM     23  C   UNL     1      -1.866   3.757   0.882  0.00  0.00    +0.002 A 
ATOM     24  C   UNL     1      -1.905   5.150   0.887  0.00  0.00    +0.001 A 
ATOM     25  C   UNL     1      -0.825   5.880   1.277  0.00  0.00    +0.008 A 
ATOM     26  C   UNL     1       0.348   5.222   1.685  0.00  0.00    -0.018 A 
ATOM     27  C   UNL     1       0.386   3.805   1.684  0.00  0.00    -0.016 A 
ATOM     28  C   UNL     1       1.559   3.148   2.092  0.00  0.00    +0.009 A 
ATOM     29  C   UNL     1       2.639   3.878   2.483  0.00  0.00    +0.001 A 
ATOM     30  C   UNL     1       2.602   5.271   2.483  0.00  0.00    +0.001 A 
ATOM     31  C   UNL     1       1.484   5.942   2.094  0.00  0.00    +0.008 A 
ENDBRANCH  21  22
ENDBRANCH  17  21
ENDBRANCH   1  17
TORSDOF 6
