REMARK  Name = ZINC63702538
REMARK  7 active torsions:
REMARK  status: ('A' for Active; 'I' for Inactive)
REMARK    1  A    between atoms: C_1  and  C_2
REMARK    2  A    between atoms: C_2  and  C_3
REMARK    3  A    between atoms: C_3  and  C_4
REMARK    4  A    between atoms: N_6  and  C_7
REMARK    5  A    between atoms: C_8  and  C_15
REMARK    6  A    between atoms: N_17  and  C_18
REMARK    7  A    between atoms: N_21  and  C_24
REMARK                            x       y       z     vdW  Elec       q    Type
REMARK                         _______ _______ _______ _____ _____    ______ ____
ROOT
ATOM      1  C   UNL     1       1.425  -4.054  -2.252  0.00  0.00    +0.064 A 
ATOM      2  C   UNL     1       2.378  -4.709  -3.046  0.00  0.00    +0.061 A 
ATOM      3  C   UNL     1       2.489  -6.100  -2.986  0.00  0.00    +0.035 A 
ATOM      4  C   UNL     1       1.662  -6.821  -2.149  0.00  0.00    +0.043 A 
ATOM      5  C   UNL     1       0.721  -6.171  -1.366  0.00  0.00    +0.042 A 
ATOM      6  C   UNL     1       0.605  -4.795  -1.410  0.00  0.00    +0.064 A 
ATOM      7 CL   UNL     1      -0.572  -3.992  -0.419  0.00  0.00    -0.082 Cl
ATOM      8 CL   UNL     1       1.801  -8.550  -2.077  0.00  0.00    -0.083 Cl
ENDROOT
BRANCH   1  11
ATOM      9  C   UNL     1       1.349  -1.944  -1.166  0.00  0.00    +0.217 C 
ATOM     10  O   UNL     1       1.391  -2.506  -0.092  0.00  0.00    -0.275 OA
ATOM     11  N   UNL     1       1.306  -2.667  -2.303  0.00  0.00    -0.284 N 
ATOM     12  H   UNL     1       1.191  -2.221  -3.156  0.00  0.00    +0.155 HD
BRANCH   9  13
ATOM     13  C   UNL     1       1.346  -0.439  -1.229  0.00  0.00    +0.096 C 
BRANCH  13  15
ATOM     14  C   UNL     1       1.397   1.660   0.126  0.00  0.00    +0.004 C 
ATOM     15  C   UNL     1       1.400   0.131   0.190  0.00  0.00    +0.006 C 
ENDBRANCH  13  15
ENDBRANCH   9  13
ENDBRANCH   1  11
BRANCH   2  16
ATOM     16  C   UNL     1       3.259  -3.933  -3.939  0.00  0.00    +0.246 C 
ATOM     17  O   UNL     1       3.231  -2.717  -3.915  0.00  0.00    -0.270 OA
ATOM     18  N   UNL     1       4.095  -4.571  -4.782  0.00  0.00    -0.309 N 
ATOM     19  H   UNL     1       4.118  -5.540  -4.801  0.00  0.00    +0.149 HD
BRANCH  18  20
ATOM     20  C   UNL     1       4.970  -3.800  -5.669  0.00  0.00    +0.070 C 
ATOM     21  C   UNL     1       4.210  -3.436  -6.947  0.00  0.00    +0.004 C 
ATOM     22  C   UNL     1       5.152  -2.700  -7.902  0.00  0.00    -0.077 C 
ATOM     23  N   UNL     1       6.289  -3.566  -8.237  0.00  0.00    +0.382 N 
ATOM     24  C   UNL     1       7.064  -3.860  -7.026  0.00  0.00    -0.077 C 
ATOM     25  C   UNL     1       6.196  -4.641  -6.037  0.00  0.00    +0.004 C 
ATOM     26  H   UNL     1       5.948  -4.428  -8.635  0.00  0.00    -0.081 HD
BRANCH  23  27
ATOM     27  C   UNL     1       7.150  -2.885  -9.214  0.00  0.00    -0.069 C 
ATOM     28  C   UNL     1       7.201  -3.460 -10.631  0.00  0.00    -0.017 C 
ATOM     29  C   UNL     1       8.398  -3.628  -9.694  0.00  0.00    -0.017 C 
ENDBRANCH  23  27
ENDBRANCH  18  20
ENDBRANCH   2  16
TORSDOF 6
