REMARK  Name = ZINC47884409
REMARK  6 active torsions:
REMARK  status: ('A' for Active; 'I' for Inactive)
REMARK    1  A    between atoms: C_3  and  S_8
REMARK    2  A    between atoms: C_6  and  O_7
REMARK    3  A    between atoms: S_8  and  C_9
REMARK    4  A    between atoms: C_9  and  C_10
REMARK    5  A    between atoms: N_12  and  C_13
REMARK    6  A    between atoms: C_14  and  C_21
REMARK                            x       y       z     vdW  Elec       q    Type
REMARK                         _______ _______ _______ _____ _____    ______ ____
ROOT
ATOM      1  C   UNL     1       6.535   1.669  -0.052  0.00  0.00    +0.228 C 
ATOM      2  O   UNL     1       6.635   2.877  -0.047  0.00  0.00    -0.275 OA
ATOM      3  N   UNL     1       7.643   0.901  -0.067  0.00  0.00    -0.279 N 
ATOM      4  H   UNL     1       7.564  -0.066  -0.071  0.00  0.00    +0.155 HD
ENDROOT
BRANCH   3   5
ATOM      5  C   UNL     1       8.897   1.493  -0.076  0.00  0.00    +0.084 A 
ATOM      6  C   UNL     1      10.131   0.871  -0.097  0.00  0.00    +0.068 A 
ATOM      7  C   UNL     1      11.315   1.729  -0.104  0.00  0.00    -0.023 A 
ATOM      8  C   UNL     1      11.037   3.045  -0.087  0.00  0.00    -0.004 A 
ATOM      9  S   UNL     1       9.265   3.129  -0.072  0.00  0.00    -0.077 S 
ATOM     10  C   UNL     1      12.288   3.882  -0.090  0.00  0.00    +0.043 C 
ATOM     11  C   UNL     1      13.412   2.905   0.321  0.00  0.00    +0.010 C 
ATOM     12  C   UNL     1      12.831   1.549  -0.128  0.00  0.00    +0.037 C 
BRANCH   6  13
ATOM     13  C   UNL     1      10.248  -0.591  -0.112  0.00  0.00    +0.244 C 
ATOM     14  O   UNL     1      10.285  -1.188  -1.171  0.00  0.00    -0.270 OA
ATOM     15  N   UNL     1      10.316  -1.273   1.049  0.00  0.00    -0.325 N 
ATOM     16  H   UNL     1      10.288  -0.797   1.894  0.00  0.00    +0.145 HD
ATOM     17  H   UNL     1      10.394  -2.240   1.039  0.00  0.00    +0.145 HD
ENDBRANCH   6  13
ENDBRANCH   3   5
BRANCH   1  18
ATOM     18  C   UNL     1       5.173   1.025  -0.042  0.00  0.00    +0.170 C 
BRANCH  18  19
ATOM     19  S   UNL     1       3.896   2.313  -0.023  0.00  0.00    -0.116 S 
BRANCH  19  22
ATOM     20  C   UNL     1      -0.017   1.383   0.010  0.00  0.00    +0.046 A 
ATOM     21  C   UNL     1       1.169   2.090   0.002  0.00  0.00    +0.018 A 
ATOM     22  C   UNL     1       2.382   1.412  -0.013  0.00  0.00    +0.009 A 
ATOM     23  C   UNL     1       2.399   0.023  -0.021  0.00  0.00    +0.018 A 
ATOM     24  C   UNL     1       1.212  -0.682  -0.013  0.00  0.00    +0.046 A 
ATOM     25  C   UNL     1       0.002  -0.004   0.002  0.00  0.00    +0.117 A 
BRANCH  25  26
ATOM     26  O   UNL     1      -1.167  -0.700   0.010  0.00  0.00    -0.507 OA
ATOM     27  H   UNL     1      -1.513  -0.896  -0.871  0.00  0.00    +0.292 HD
ENDBRANCH  25  26
ENDBRANCH  19  22
ENDBRANCH  18  19
ENDBRANCH   1  18
TORSDOF 6
