REMARK  Name = ZINC13353098
REMARK  8 active torsions:
REMARK  status: ('A' for Active; 'I' for Inactive)
REMARK    1  A    between atoms: C_1  and  C_2
REMARK    2  A    between atoms: C_2  and  C_3
REMARK    3  A    between atoms: C_3  and  N_4
REMARK    4  A    between atoms: C_5  and  C_7
REMARK    5  A    between atoms: C_13  and  C_15
REMARK    6  A    between atoms: C_18  and  N_21
REMARK    7  A    between atoms: N_21  and  S_22
REMARK    8  A    between atoms: S_22  and  C_25
REMARK                            x       y       z     vdW  Elec       q    Type
REMARK                         _______ _______ _______ _____ _____    ______ ____
ROOT
ATOM      1  C   UNL     1      -0.231   4.036   0.047  0.00  0.00    +0.037 A 
ATOM      2  C   UNL     1       1.010   3.402   0.160  0.00  0.00    +0.015 A 
ATOM      3  C   UNL     1       1.080   2.028   0.172  0.00  0.00    +0.025 A 
ATOM      4  C   UNL     1      -0.083   1.269   0.071  0.00  0.00    +0.048 A 
ATOM      5  C   UNL     1      -1.319   1.897  -0.048  0.00  0.00    +0.025 A 
ATOM      6  C   UNL     1      -1.397   3.271  -0.055  0.00  0.00    +0.015 A 
ENDROOT
BRANCH   1  13
ATOM      7  C   UNL     1       2.051   7.688  -2.525  0.00  0.00    +0.078 C 
ATOM      8  C   UNL     1       0.807   8.275  -1.854  0.00  0.00    +0.032 C 
ATOM      9  C   UNL     1       0.676   7.699  -0.440  0.00  0.00    +0.109 C 
ATOM     10  N   UNL     1       0.681   6.232  -0.525  0.00  0.00    -0.297 N 
ATOM     11  C   UNL     1       1.789   5.569  -1.225  0.00  0.00    +0.109 C 
ATOM     12  C   UNL     1       1.905   6.169  -2.634  0.00  0.00    +0.032 C 
ATOM     13  C   UNL     1      -0.309   5.509   0.035  0.00  0.00    +0.247 C 
ATOM     14  O   UNL     1      -1.268   6.071   0.529  0.00  0.00    -0.270 OA
BRANCH   7  16
ATOM     15  N   UNL     1       3.235   7.906  -4.686  0.00  0.00    -0.315 N 
ATOM     16  C   UNL     1       2.203   8.278  -3.904  0.00  0.00    +0.216 C 
ATOM     17  O   UNL     1       1.396   9.088  -4.309  0.00  0.00    -0.276 OA
ATOM     18  H   UNL     1       3.881   7.258  -4.362  0.00  0.00    +0.149 HD
BRANCH  15  19
ATOM     19  C   UNL     1       3.383   8.479  -6.026  0.00  0.00    +0.104 C 
BRANCH  19  21
ATOM     20  C   UNL     1       4.780   8.492  -8.097  0.00  0.00    +0.005 C 
ATOM     21  C   UNL     1       4.626   7.893  -6.698  0.00  0.00    +0.015 C 
ENDBRANCH  19  21
ENDBRANCH  15  19
ENDBRANCH   7  16
ENDBRANCH   1  13
BRANCH   4  22
ATOM     22  N   UNL     1      -0.008  -0.119   0.082  0.00  0.00    -0.216 N 
ATOM     23  H   UNL     1       0.649  -0.575  -0.467  0.00  0.00    +0.174 HD
BRANCH  22  24
ATOM     24  S   UNL     1      -1.041  -0.996   1.035  0.00  0.00    +0.072 S 
ATOM     25  O   UNL     1      -2.355  -0.551   0.726  0.00  0.00    -0.150 OA
ATOM     26  O   UNL     1      -0.649  -2.356   0.914  0.00  0.00    -0.150 OA
BRANCH  24  27
ATOM     27  C   UNL     1      -0.732  -0.529   2.706  0.00  0.00    +0.109 A 
ATOM     28  C   UNL     1       0.278  -1.145   3.422  0.00  0.00    +0.029 A 
ATOM     29  C   UNL     1       0.516  -0.772   4.728  0.00  0.00    +0.006 A 
ATOM     30  C   UNL     1      -0.257   0.210   5.335  0.00  0.00    -0.044 A 
ATOM     31  C   UNL     1      -1.264   0.821   4.622  0.00  0.00    -0.042 A 
ATOM     32  C   UNL     1      -1.499   0.448   3.305  0.00  0.00    +0.032 A 
ATOM     33  C   UNL     1      -2.135   1.900   5.211  0.00  0.00    +0.035 C 
ATOM     34  C   UNL     1      -2.048   1.887   6.736  0.00  0.00    +0.005 C 
ATOM     35  C   UNL     1      -0.568   1.906   7.136  0.00  0.00    +0.005 C 
ATOM     36  C   UNL     1       0.049   0.558   6.768  0.00  0.00    +0.035 C 
ENDBRANCH  24  27
ENDBRANCH  22  24
ENDBRANCH   4  22
TORSDOF 7
