REMARK  Name = ZINC01587172
REMARK  4 active torsions:
REMARK  status: ('A' for Active; 'I' for Inactive)
REMARK    1  A    between atoms: C_6  and  C_7
REMARK    2  A    between atoms: C_7  and  C_9
REMARK    3  A    between atoms: C_7  and  N_44
REMARK    4  A    between atoms: C_14  and  O_15
REMARK                            x       y       z     vdW  Elec       q    Type
REMARK                         _______ _______ _______ _____ _____    ______ ____
ROOT
ATOM      1  C   UNL     1       1.230  -2.188  -0.021  0.00  0.00    -0.003 C 
ENDROOT
BRANCH   1   2
ATOM      2  C   UNL     1       1.538  -0.714   0.042  0.00  0.00    -0.012 A 
ATOM      3  C   UNL     1       2.836  -0.272  -0.128  0.00  0.00    +0.055 A 
ATOM      4  C   UNL     1       3.122   1.082  -0.070  0.00  0.00    +0.167 A 
ATOM      5  C   UNL     1       2.099   1.999   0.159  0.00  0.00    +0.170 A 
ATOM      6  C   UNL     1       0.798   1.553   0.329  0.00  0.00    +0.095 A 
ATOM      7  C   UNL     1       0.517   0.196   0.271  0.00  0.00    +0.122 A 
ATOM      8  O   UNL     1       2.633   3.255   0.171  0.00  0.00    -0.452 OA
ATOM      9  C   UNL     1       4.049   3.069   0.354  0.00  0.00    +0.466 C 
ATOM     10  O   UNL     1       4.298   1.765  -0.202  0.00  0.00    -0.453 OA
BRANCH   7  11
ATOM     11  O   UNL     1      -0.759  -0.241   0.438  0.00  0.00    -0.506 OA
ATOM     12  H   UNL     1      -1.265  -0.302  -0.384  0.00  0.00    +0.292 HD
ENDBRANCH   7  11
ENDBRANCH   1   2
BRANCH   1  18
ATOM     13  C   UNL     1       1.811  -2.615  -2.418  0.00  0.00    +0.004 A 
ATOM     14  C   UNL     1       1.460  -2.962  -3.709  0.00  0.00    +0.020 A 
ATOM     15  C   UNL     1       0.141  -3.247  -4.014  0.00  0.00    +0.041 A 
ATOM     16  C   UNL     1      -0.825  -3.189  -3.025  0.00  0.00    +0.020 A 
ATOM     17  C   UNL     1      -0.472  -2.846  -1.734  0.00  0.00    +0.004 A 
ATOM     18  C   UNL     1       0.846  -2.562  -1.429  0.00  0.00    -0.056 A 
ATOM     19 CL   UNL     1      -0.302  -3.678  -5.636  0.00  0.00    -0.084 Cl
ENDBRANCH   1  18
BRANCH   1  25
ATOM     20  C   UNL     1       2.211  -4.393   0.176  0.00  0.00    -0.078 C 
ATOM     21  C   UNL     1       3.513  -5.143   0.467  0.00  0.00    -0.019 C 
ATOM     22  C   UNL     1       3.941  -4.871   1.912  0.00  0.00    -0.004 C 
ATOM     23  C   UNL     1       4.103  -3.362   2.112  0.00  0.00    -0.019 C 
ATOM     24  C   UNL     1       2.784  -2.663   1.774  0.00  0.00    -0.078 C 
ATOM     25  N   UNL     1       2.440  -2.944   0.364  0.00  0.00    +0.387 N 
ATOM     26  H   UNL     1       3.221  -2.650  -0.234  0.00  0.00    -0.080 HD
ENDBRANCH   1  25
TORSDOF 4
