REMARK  Name = ZINC28053028
REMARK  4 active torsions:
REMARK  status: ('A' for Active; 'I' for Inactive)
REMARK    1  A    between atoms: C_1  and  C_2
REMARK    2  A    between atoms: C_10  and  C_12
REMARK    3  A    between atoms: C_22  and  C_25
REMARK    4  A    between atoms: C_28  and  O_31
REMARK                            x       y       z     vdW  Elec       q    Type
REMARK                         _______ _______ _______ _____ _____    ______ ____
ROOT
ATOM      1  C   UNL     1      -5.598   0.151  -0.689  0.00  0.00    +0.069 C 
ATOM      2  C   UNL     1      -5.010   1.532  -0.568  0.00  0.00    +0.087 A 
ATOM      3  C   UNL     1      -3.693   1.856  -0.250  0.00  0.00    +0.049 A 
ATOM      4  C   UNL     1      -3.663   3.227  -0.267  0.00  0.00    +0.226 A 
ATOM      5  O   UNL     1      -4.894   3.623  -0.573  0.00  0.00    -0.339 OA
ATOM      6  N   UNL     1      -5.633   2.672  -0.739  0.00  0.00    -0.081 NA
ATOM      7  N   UNL     1      -2.500   3.919   0.012  0.00  0.00    -0.286 N 
ATOM      8  C   UNL     1      -1.310   3.230   0.001  0.00  0.00    +0.019 C 
ATOM      9  C   UNL     1      -1.251   1.882   0.018  0.00  0.00    +0.024 C 
ATOM     10  C   UNL     1      -2.495   1.018   0.059  0.00  0.00    +0.091 C 
ATOM     11  C   UNL     1      -0.014   1.211   0.009  0.00  0.00    +0.162 C 
ATOM     12  O   UNL     1       0.002  -0.004   0.002  0.00  0.00    -0.292 OA
ATOM     13  C   UNL     1       1.287   1.963   0.000  0.00  0.00    +0.088 C 
ATOM     14  C   UNL     1       1.080   3.319   0.684  0.00  0.00    +0.032 C 
ATOM     15  C   UNL     1      -0.045   4.057  -0.044  0.00  0.00    +0.059 C 
ATOM     16  H   UNL     1      -2.540   4.995   0.236  0.00  0.00    +0.155 HD
ENDROOT
BRANCH  10  17
ATOM     17  C   UNL     1      -2.644   0.415   1.433  0.00  0.00    -0.035 A 
ATOM     18  C   UNL     1      -2.766   1.237   2.538  0.00  0.00    +0.006 A 
ATOM     19  C   UNL     1      -2.908   0.686   3.797  0.00  0.00    +0.020 A 
ATOM     20  C   UNL     1      -2.916  -0.689   3.953  0.00  0.00    +0.041 A 
ATOM     21  C   UNL     1      -2.789  -1.511   2.847  0.00  0.00    +0.020 A 
ATOM     22  C   UNL     1      -2.652  -0.958   1.588  0.00  0.00    +0.006 A 
ATOM     23 CL   UNL     1      -3.087  -1.383   5.535  0.00  0.00    -0.084 Cl
ENDBRANCH  10  17
BRANCH  14  24
ATOM     24  C   UNL     1       2.350   4.126   0.608  0.00  0.00    -0.043 A 
ATOM     25  C   UNL     1       2.890   4.450  -0.623  0.00  0.00    +0.007 A 
ATOM     26  C   UNL     1       4.051   5.194  -0.696  0.00  0.00    +0.045 A 
ATOM     27  C   UNL     1       4.683   5.607   0.468  0.00  0.00    +0.117 A 
ATOM     28  C   UNL     1       4.142   5.276   1.703  0.00  0.00    +0.045 A 
ATOM     29  C   UNL     1       2.978   4.537   1.770  0.00  0.00    +0.007 A 
BRANCH  27  30
ATOM     30  O   UNL     1       5.828   6.335   0.400  0.00  0.00    -0.507 OA
ATOM     31  H   UNL     1       6.328   6.662   1.323  0.00  0.00    +0.292 HD
ENDBRANCH  27  30
ENDBRANCH  14  24
TORSDOF 3
