REMARK  Name = ZINC39689031
REMARK  9 active torsions:
REMARK  status: ('A' for Active; 'I' for Inactive)
REMARK    1  A    between atoms: C_1  and  C_2
REMARK    2  A    between atoms: C_2  and  C_3
REMARK    3  A    between atoms: C_3  and  C_5
REMARK    4  A    between atoms: C_3  and  C_6
REMARK    5  A    between atoms: C_6  and  C_7
REMARK    6  A    between atoms: C_11  and  C_20
REMARK    7  A    between atoms: N_22  and  C_23
REMARK    8  A    between atoms: C_23  and  C_24
REMARK    9  A    between atoms: N_28  and  C_29
REMARK                            x       y       z     vdW  Elec       q    Type
REMARK                         _______ _______ _______ _____ _____    ______ ____
ROOT
ATOM      1  C   UNL     1      -2.527  -2.591  -0.336  0.00  0.00    +0.216 C 
ATOM      2  O   UNL     1      -3.388  -1.736  -0.337  0.00  0.00    -0.276 OA
ATOM      3  N   UNL     1      -2.869  -3.891  -0.427  0.00  0.00    -0.300 N 
ATOM      4  C   UNL     1      -1.968  -5.068  -0.435  0.00  0.00    +0.121 C 
ATOM      5  C   UNL     1      -2.705  -6.129   0.413  0.00  0.00    +0.100 C 
ATOM      6  C   UNL     1      -4.188  -5.731   0.338  0.00  0.00    -0.004 C 
ATOM      7  C   UNL     1      -4.230  -4.468  -0.535  0.00  0.00    +0.115 C 
ATOM      8  C   UNL     1      -5.003  -6.848  -0.307  0.00  0.00    -0.010 C 
ATOM      9  C   UNL     1      -6.482  -6.453  -0.319  0.00  0.00    -0.082 C 
ATOM     10  N   UNL     1      -6.939  -6.219   1.057  0.00  0.00    +0.379 N 
ATOM     11  C   UNL     1      -6.214  -5.083   1.638  0.00  0.00    -0.082 C 
ATOM     12  C   UNL     1      -4.723  -5.420   1.732  0.00  0.00    -0.010 C 
ATOM     13  H   UNL     1      -7.928  -6.019   1.052  0.00  0.00    -0.086 HD
ATOM     14  H   UNL     1      -6.768  -7.045   1.611  0.00  0.00    -0.086 HD
ENDROOT
BRANCH   5  15
ATOM     15  C   UNL     1      -2.220  -6.089   1.840  0.00  0.00    +0.219 C 
ATOM     16  O   UNL     1      -1.828  -5.046   2.318  0.00  0.00    -0.275 OA
ATOM     17  N   UNL     1      -2.223  -7.213   2.584  0.00  0.00    -0.308 N 
ATOM     18  H   UNL     1      -2.536  -8.048   2.201  0.00  0.00    +0.149 HD
BRANCH  17  19
ATOM     19  C   UNL     1      -1.752  -7.175   3.970  0.00  0.00    +0.176 C 
BRANCH  19  20
ATOM     20  C   UNL     1      -1.857  -8.551   4.575  0.00  0.00    +0.104 A 
ATOM     21  N   UNL     1      -0.894  -9.430   4.638  0.00  0.00    -0.348 N 
ATOM     22  C   UNL     1      -1.346 -10.539   5.241  0.00  0.00    +0.101 A 
ATOM     23  C   UNL     1      -2.638 -10.340   5.564  0.00  0.00    +0.104 A 
ATOM     24  N   UNL     1      -2.961  -9.077   5.147  0.00  0.00    -0.338 N 
ATOM     25  C   UNL     1      -4.263  -8.420   5.290  0.00  0.00    +0.150 C 
ATOM     26  H   UNL     1       0.007  -9.301   4.302  0.00  0.00    +0.166 HD
ENDBRANCH  19  20
ENDBRANCH  17  19
ENDBRANCH   5  15
BRANCH   1  27
ATOM     27  C   UNL     1      -1.076  -2.198  -0.233  0.00  0.00    +0.099 C 
BRANCH  27  28
ATOM     28  C   UNL     1      -0.965  -0.675  -0.142  0.00  0.00    -0.006 C 
ATOM     29  C   UNL     1      -1.609  -0.193   1.160  0.00  0.00    +0.008 C 
BRANCH  28  31
ATOM     30  C   UNL     1       0.618   1.257  -0.198  0.00  0.00    +0.004 C 
ATOM     31  C   UNL     1       0.510  -0.269  -0.163  0.00  0.00    +0.000 C 
ENDBRANCH  28  31
ENDBRANCH  27  28
ENDBRANCH   1  27
TORSDOF 6
