REMARK  Name = ZINC03848724
REMARK  4 active torsions:
REMARK  status: ('A' for Active; 'I' for Inactive)
REMARK    1  A    between atoms: C_1  and  C_2
REMARK    2  A    between atoms: C_3  and  C_22
REMARK    3  A    between atoms: N_12  and  S_13
REMARK    4  A    between atoms: S_13  and  C_16
REMARK                            x       y       z     vdW  Elec       q    Type
REMARK                         _______ _______ _______ _____ _____    ______ ____
ROOT
ATOM      1  C   UNL     1       7.113   3.846  -0.046  0.00  0.00    +0.049 C 
ATOM      2  C   UNL     1       5.818   3.076  -0.038  0.00  0.00    +0.008 A 
ATOM      3  C   UNL     1       5.818   1.691  -0.045  0.00  0.00    +0.048 A 
ATOM      4  N   UNL     1       4.663   1.046  -0.037  0.00  0.00    -0.219 NA
ATOM      5  C   UNL     1       3.516   1.708  -0.022  0.00  0.00    +0.224 A 
ATOM      6  N   UNL     1       3.480   3.032  -0.020  0.00  0.00    -0.202 NA
ATOM      7  C   UNL     1       4.599   3.740  -0.023  0.00  0.00    +0.137 A 
ATOM      8 CL   UNL     1       4.542   5.474  -0.013  0.00  0.00    -0.062 Cl
ATOM      9  N   UNL     1       2.323   0.998  -0.015  0.00  0.00    -0.237 N 
ATOM     10  C   UNL     1       1.147   1.655   0.000  0.00  0.00    +0.325 C 
ATOM     11  O   UNL     1       1.130   2.871   0.007  0.00  0.00    -0.251 OA
ATOM     12  N   UNL     1      -0.011   0.966   0.007  0.00  0.00    -0.169 N 
ATOM     13  C   UNL     1       7.117   0.928  -0.062  0.00  0.00    +0.066 C 
ATOM     14  H   UNL     1       2.336   0.028  -0.020  0.00  0.00    +0.159 HD
ATOM     15  H   UNL     1       0.002  -0.004   0.002  0.00  0.00    +0.178 HD
ENDROOT
BRANCH  12  16
ATOM     16  S   UNL     1      -1.456   1.774   0.019  0.00  0.00    +0.076 S 
ATOM     17  O   UNL     1      -2.475   0.784  -0.009  0.00  0.00    -0.150 OA
ATOM     18  O   UNL     1      -1.369   2.749   1.049  0.00  0.00    -0.150 OA
BRANCH  16  19
ATOM     19  C   UNL     1      -1.571   2.658  -1.502  0.00  0.00    +0.109 A 
ATOM     20  C   UNL     1      -1.089   3.950  -1.588  0.00  0.00    +0.029 A 
ATOM     21  C   UNL     1      -1.174   4.642  -2.782  0.00  0.00    +0.002 A 
ATOM     22  C   UNL     1      -1.751   4.044  -3.887  0.00  0.00    +0.000 A 
ATOM     23  C   UNL     1      -2.238   2.753  -3.799  0.00  0.00    +0.002 A 
ATOM     24  C   UNL     1      -2.148   2.060  -2.607  0.00  0.00    +0.029 A 
ENDBRANCH  16  19
ENDBRANCH  12  16
TORSDOF 2
