REMARK  Name = ZINC02236878
REMARK  9 active torsions:
REMARK  status: ('A' for Active; 'I' for Inactive)
REMARK    1  A    between atoms: C_1  and  C_2
REMARK    2  A    between atoms: C_2  and  C_37
REMARK    3  A    between atoms: C_7  and  C_36
REMARK    4  A    between atoms: C_10  and  N_11
REMARK    5  A    between atoms: C_10  and  N_68
REMARK    6  A    between atoms: N_19  and  N_20
REMARK    7  A    between atoms: C_21  and  C_23
REMARK    8  A    between atoms: C_23  and  S_24
REMARK    9  A    between atoms: S_24  and  C_25
REMARK                            x       y       z     vdW  Elec       q    Type
REMARK                         _______ _______ _______ _____ _____    ______ ____
ROOT
ATOM      1  N   UNL     1       0.744   0.558  -6.457  0.00  0.00    -0.282 N 
ATOM      2  C   UNL     1      -0.287   1.266  -7.064  0.00  0.00    +0.044 A 
ATOM      3  C   UNL     1      -0.598   1.479  -8.403  0.00  0.00    +0.024 A 
ATOM      4  C   UNL     1      -1.709   2.222  -8.747  0.00  0.00    +0.002 A 
ATOM      5  C   UNL     1      -2.517   2.776  -7.769  0.00  0.00    +0.001 A 
ATOM      6  C   UNL     1      -2.222   2.580  -6.434  0.00  0.00    +0.012 A 
ATOM      7  C   UNL     1      -1.110   1.825  -6.078  0.00  0.00    +0.028 A 
ATOM      8  C   UNL     1      -0.525   1.432  -4.774  0.00  0.00    +0.153 C 
ATOM      9  N   UNL     1      -0.966   1.736  -3.578  0.00  0.00    -0.175 NA
ATOM     10  C   UNL     1       0.658   0.618  -5.117  0.00  0.00    +0.270 C 
ATOM     11  O   UNL     1       1.421   0.095  -4.327  0.00  0.00    -0.268 OA
ENDROOT
BRANCH   9  12
ATOM     12  N   UNL     1      -0.288   1.272  -2.443  0.00  0.00    -0.206 N 
ATOM     13  C   UNL     1      -0.742   1.585  -1.213  0.00  0.00    +0.243 C 
ATOM     14  O   UNL     1      -1.736   2.268  -1.089  0.00  0.00    -0.273 OA
ATOM     15  H   UNL     1       0.507   0.726  -2.543  0.00  0.00    +0.177 HD
BRANCH  13  16
ATOM     16  C   UNL     1      -0.013   1.086   0.008  0.00  0.00    +0.176 C 
BRANCH  16  17
ATOM     17  S   UNL     1      -0.860   1.669   1.497  0.00  0.00    -0.058 S 
BRANCH  17  18
ATOM     18  C   UNL     1       0.174   0.961   2.735  0.00  0.00    +0.258 A 
ATOM     19  N   UNL     1      -0.006   1.086   4.026  0.00  0.00    -0.203 NA
ATOM     20  C   UNL     1       0.981   0.408   4.673  0.00  0.00    +0.110 A 
ATOM     21  C   UNL     1       1.285   0.201   6.019  0.00  0.00    +0.031 A 
ATOM     22  C   UNL     1       2.385  -0.555   6.362  0.00  0.00    +0.002 A 
ATOM     23  C   UNL     1       3.189  -1.110   5.379  0.00  0.00    +0.004 A 
ATOM     24  C   UNL     1       2.900  -0.912   4.044  0.00  0.00    +0.048 A 
ATOM     25  C   UNL     1       1.798  -0.155   3.681  0.00  0.00    +0.156 A 
ATOM     26  O   UNL     1       1.261   0.206   2.493  0.00  0.00    -0.431 OA
ENDBRANCH  17  18
ENDBRANCH  16  17
ENDBRANCH  13  16
ENDBRANCH   9  12
BRANCH   1  27
ATOM     27  C   UNL     1       1.791  -0.163  -7.185  0.00  0.00    +0.039 C 
BRANCH  27  38
ATOM     28  C   UNL     1       3.287  -0.587 -10.331  0.00  0.00    +0.011 C 
ATOM     29  C   UNL     1       3.272  -2.058  -9.868  0.00  0.00    -0.036 C 
ATOM     30  C   UNL     1       3.572  -2.112  -8.386  0.00  0.00    -0.009 C 
ATOM     31  C   UNL     1       2.434  -2.535  -7.473  0.00  0.00    -0.065 C 
ATOM     32  C   UNL     1       1.739  -3.758  -8.138  0.00  0.00    -0.011 C 
ATOM     33  C   UNL     1       0.975  -3.029  -9.277  0.00  0.00    -0.048 C 
ATOM     34  C   UNL     1       2.000  -2.713 -10.364  0.00  0.00    +0.011 C 
ATOM     35  C   UNL     1       0.532  -1.696  -8.626  0.00  0.00    -0.070 C 
ATOM     36  C   UNL     1      -0.216  -3.845  -9.800  0.00  0.00    +0.009 C 
ATOM     37  C   UNL     1       4.454  -2.746 -10.599  0.00  0.00    +0.011 C 
ATOM     38  N   UNL     1       1.314  -1.572  -7.396  0.00  0.00    +0.393 N 
ATOM     39  H   UNL     1       0.718  -1.826  -6.600  0.00  0.00    -0.079 HD
ENDBRANCH  27  38
ENDBRANCH   1  27
TORSDOF 6
