REMARK  Name = ZINC66455962
REMARK  7 active torsions:
REMARK  status: ('A' for Active; 'I' for Inactive)
REMARK    1  A    between atoms: C_1  and  C_2
REMARK    2  A    between atoms: C_2  and  C_3
REMARK    3  A    between atoms: C_3  and  C_5
REMARK    4  A    between atoms: C_3  and  N_17
REMARK    5  A    between atoms: C_9  and  C_11
REMARK    6  A    between atoms: C_18  and  C_20
REMARK    7  A    between atoms: C_21  and  C_26
REMARK                            x       y       z     vdW  Elec       q    Type
REMARK                         _______ _______ _______ _____ _____    ______ ____
ROOT
ATOM      1  C   UNL     1      -1.433  -0.534   0.013  0.00  0.00    +0.139 C 
ENDROOT
BRANCH   1   2
ATOM      2  C   UNL     1      -1.416  -2.035  -0.119  0.00  0.00    +0.128 A 
ATOM      3  N   UNL     1      -2.006  -2.904   0.730  0.00  0.00    -0.346 N 
ATOM      4  H   UNL     1      -2.512  -2.675   1.526  0.00  0.00    +0.167 HD
ATOM      5  C   UNL     1      -1.760  -4.165   0.263  0.00  0.00    +0.112 A 
ATOM      6  C   UNL     1      -1.021  -4.024  -0.869  0.00  0.00    +0.089 A 
ATOM      7  N   UNL     1      -0.834  -2.704  -1.075  0.00  0.00    -0.231 NA
BRANCH   6   8
ATOM      8  C   UNL     1      -0.515  -5.123  -1.726  0.00  0.00    +0.002 A 
ATOM      9  C   UNL     1      -0.793  -6.449  -1.400  0.00  0.00    +0.010 A 
ATOM     10  C   UNL     1      -0.320  -7.468  -2.201  0.00  0.00    +0.001 A 
ATOM     11  C   UNL     1       0.430  -7.176  -3.326  0.00  0.00    +0.000 A 
ATOM     12  C   UNL     1       0.710  -5.862  -3.655  0.00  0.00    +0.001 A 
ATOM     13  C   UNL     1       0.236  -4.834  -2.864  0.00  0.00    +0.010 A 
ENDBRANCH   6   8
ENDBRANCH   1   2
BRANCH   1  14
ATOM     14  N   UNL     1      -2.082  -0.162   1.273  0.00  0.00    -0.299 N 
ATOM     15  C   UNL     1      -2.664   1.047   1.400  0.00  0.00    +0.280 C 
ATOM     16  O   UNL     1      -2.651   1.830   0.468  0.00  0.00    -0.267 OA
ATOM     17  H   UNL     1      -2.092  -0.785   2.016  0.00  0.00    +0.150 HD
BRANCH  15  18
ATOM     18  C   UNL     1      -3.312   1.419   2.661  0.00  0.00    +0.194 A 
ATOM     19  C   UNL     1      -3.941   2.603   2.921  0.00  0.00    +0.001 A 
ATOM     20  C   UNL     1      -4.412   2.529   4.240  0.00  0.00    +0.061 A 
ATOM     21  C   UNL     1      -4.055   1.317   4.723  0.00  0.00    +0.171 A 
ATOM     22  O   UNL     1      -3.398   0.649   3.766  0.00  0.00    -0.443 OA
ATOM     23 BR   UNL     1      -4.430   0.669   6.459  0.00  0.00    -0.008 Br
ATOM     24  C   UNL     1      -4.098   3.765   1.974  0.00  0.00    +0.048 C 
ENDBRANCH  15  18
ENDBRANCH   1  14
BRANCH   1  26
ATOM     25  C   UNL     1      -0.019   1.526   0.010  0.00  0.00    +0.006 C 
ATOM     26  C   UNL     1       0.002  -0.004   0.002  0.00  0.00    +0.027 C 
ENDBRANCH   1  26
TORSDOF 5
