REMARK  Name = ZINC06868266
REMARK  5 active torsions:
REMARK  status: ('A' for Active; 'I' for Inactive)
REMARK    1  A    between atoms: C_1  and  C_2
REMARK    2  A    between atoms: C_7  and  N_8
REMARK    3  A    between atoms: C_9  and  N_23
REMARK    4  A    between atoms: C_10  and  C_13
REMARK    5  A    between atoms: C_15  and  C_18
REMARK                            x       y       z     vdW  Elec       q    Type
REMARK                         _______ _______ _______ _____ _____    ______ ____
ROOT
ATOM      1  N   UNL     1       1.537   3.452  -0.216  0.00  0.00    -0.198 N 
ATOM      2  C   UNL     1       0.556   4.397  -0.233  0.00  0.00    +0.153 A 
ATOM      3  C   UNL     1       1.200   5.625  -0.297  0.00  0.00    +0.191 A 
ATOM      4  N   UNL     1       2.525   5.401  -0.318  0.00  0.00    -0.122 NA
ATOM      5  N   UNL     1       2.759   4.137  -0.265  0.00  0.00    -0.058 NA
ENDROOT
BRANCH   1  12
ATOM      6  C   UNL     1       3.079   1.977   1.668  0.00  0.00    +0.046 C 
ATOM      7  C   UNL     1       2.092   1.306   0.748  0.00  0.00    -0.025 A 
ATOM      8  C   UNL     1       1.915  -0.063   0.805  0.00  0.00    +0.005 A 
ATOM      9  C   UNL     1       1.009  -0.680  -0.038  0.00  0.00    +0.000 A 
ATOM     10  C   UNL     1       0.277   0.071  -0.940  0.00  0.00    +0.002 A 
ATOM     11  C   UNL     1       0.450   1.440  -1.001  0.00  0.00    +0.028 A 
ATOM     12  C   UNL     1       1.359   2.062  -0.156  0.00  0.00    +0.072 A 
ENDBRANCH   1  12
BRANCH   3  13
ATOM     13  C   UNL     1       0.545   6.942  -0.335  0.00  0.00    +0.282 A 
ATOM     14  N   UNL     1       1.146   8.119  -0.396  0.00  0.00    -0.185 NA
ATOM     15  C   UNL     1       0.150   9.031  -0.411  0.00  0.00    +0.209 A 
ATOM     16  N   UNL     1      -0.983   8.374  -0.359  0.00  0.00    -0.055 NA
ATOM     17  O   UNL     1      -0.777   7.180  -0.320  0.00  0.00    -0.331 OA
BRANCH  15  18
ATOM     18  C   UNL     1       0.309  10.499  -0.473  0.00  0.00    +0.060 A 
ATOM     19  C   UNL     1      -0.655  11.472  -0.491  0.00  0.00    +0.019 A 
ATOM     20  C   UNL     1      -0.265  12.790  -0.553  0.00  0.00    +0.008 A 
ATOM     21  C   UNL     1       1.060  13.087  -0.595  0.00  0.00    +0.046 A 
ATOM     22  S   UNL     1       1.808  11.467  -0.538  0.00  0.00    -0.093 S 
ENDBRANCH  15  18
ENDBRANCH   3  13
BRANCH   2  23
ATOM     23  N   UNL     1      -0.809   4.178  -0.193  0.00  0.00    -0.341 N 
ATOM     24  H   UNL     1      -1.152   3.281  -0.053  0.00  0.00    +0.144 HD
ATOM     25  H   UNL     1      -1.423   4.920  -0.305  0.00  0.00    +0.144 HD
ENDBRANCH   2  23
TORSDOF 4
