REMARK  Name = ZINC63671334
REMARK  8 active torsions:
REMARK  status: ('A' for Active; 'I' for Inactive)
REMARK    1  A    between atoms: C_1  and  C_2
REMARK    2  A    between atoms: C_8  and  C_11
REMARK    3  A    between atoms: C_11  and  C_12
REMARK    4  A    between atoms: C_12  and  N_13
REMARK    5  A    between atoms: C_14  and  C_16
REMARK    6  A    between atoms: C_16  and  N_17
REMARK    7  A    between atoms: C_21  and  C_28
REMARK    8  A    between atoms: N_30  and  C_37
REMARK                            x       y       z     vdW  Elec       q    Type
REMARK                         _______ _______ _______ _____ _____    ______ ____
ROOT
ATOM      1  N   UNL     1      -3.908  -2.390   8.291  0.00  0.00    -0.272 N 
ATOM      2  C   UNL     1      -4.780  -1.213   8.349  0.00  0.00    +0.190 C 
ATOM      3  C   UNL     1      -4.426  -0.126   7.369  0.00  0.00    +0.037 C 
ATOM      4  C   UNL     1      -5.584   0.198   6.761  0.00  0.00    +0.050 C 
ATOM      5  N   UNL     1      -6.635  -0.574   7.287  0.00  0.00    -0.275 N 
ATOM      6  N   UNL     1      -6.085  -1.701   7.810  0.00  0.00    -0.204 NA
ATOM      7  C   UNL     1      -6.771  -2.459   8.834  0.00  0.00    +0.117 C 
ATOM      8  C   UNL     1      -5.838  -3.534   9.394  0.00  0.00    +0.113 C 
ATOM      9  C   UNL     1      -4.486  -3.537   8.743  0.00  0.00    +0.219 C 
ATOM     10  O   UNL     1      -3.890  -4.587   8.621  0.00  0.00    -0.275 OA
ATOM     11  H   UNL     1      -7.577  -0.344   7.284  0.00  0.00    +0.167 HD
ENDROOT
BRANCH   4  12
ATOM     12  C   UNL     1      -5.727   1.216   5.698  0.00  0.00    +0.022 A 
ATOM     13  C   UNL     1      -6.875   1.573   5.067  0.00  0.00    +0.096 A 
ATOM     14  N   UNL     1      -6.612   2.544   4.147  0.00  0.00    -0.349 N 
ATOM     15  C   UNL     1      -5.268   2.852   4.150  0.00  0.00    +0.049 A 
ATOM     16  C   UNL     1      -4.654   2.043   5.122  0.00  0.00    +0.009 A 
ATOM     17  C   UNL     1      -3.283   2.146   5.350  0.00  0.00    +0.010 A 
ATOM     18  C   UNL     1      -2.536   3.045   4.622  0.00  0.00    +0.001 A 
ATOM     19  C   UNL     1      -3.142   3.847   3.665  0.00  0.00    +0.002 A 
ATOM     20  C   UNL     1      -4.495   3.751   3.422  0.00  0.00    +0.026 A 
ATOM     21  C   UNL     1      -7.613   3.169   3.279  0.00  0.00    +0.149 C 
ENDBRANCH   4  12
BRANCH   1  22
ATOM     22  C   UNL     1      -2.534  -2.338   7.783  0.00  0.00    +0.205 C 
BRANCH  22  24
ATOM     23  N   UNL     1      -1.377  -2.600   5.613  0.00  0.00    -0.314 N 
ATOM     24  C   UNL     1      -2.537  -2.599   6.299  0.00  0.00    +0.230 C 
ATOM     25  O   UNL     1      -3.583  -2.808   5.722  0.00  0.00    -0.274 OA
ATOM     26  H   UNL     1      -0.540  -2.433   6.075  0.00  0.00    +0.149 HD
BRANCH  23  27
ATOM     27  C   UNL     1      -1.379  -2.854   4.170  0.00  0.00    +0.108 C 
BRANCH  27  28
ATOM     28  C   UNL     1       0.055  -2.799   3.641  0.00  0.00    +0.052 C 
BRANCH  28  36
ATOM     29  C   UNL     1      -0.018   1.503   0.010  0.00  0.00    +0.044 C 
ATOM     30  C   UNL     1       0.002  -0.004   0.002  0.00  0.00    -0.050 A 
ATOM     31  C   UNL     1       0.005  -0.680  -1.226  0.00  0.00    +0.005 A 
ATOM     32  C   UNL     1       0.023  -2.026  -1.317  0.00  0.00    +0.026 A 
ATOM     33  C   UNL     1       0.039  -2.826  -0.141  0.00  0.00    +0.043 A 
ATOM     34  N   UNL     1       0.057  -4.126   0.030  0.00  0.00    -0.380 N 
ATOM     35  C   UNL     1       0.067  -4.408   1.470  0.00  0.00    +0.144 C 
ATOM     36  C   UNL     1       0.052  -3.060   2.156  0.00  0.00    -0.040 C 
ATOM     37  C   UNL     1       0.036  -2.137   1.168  0.00  0.00    -0.001 A 
ATOM     38  C   UNL     1       0.022  -0.669   1.180  0.00  0.00    +0.013 A 
ATOM     39  H   UNL     1       0.062  -4.790  -0.677  0.00  0.00    +0.160 HD
ENDBRANCH  28  36
ENDBRANCH  27  28
ENDBRANCH  23  27
ENDBRANCH  22  24
ENDBRANCH   1  22
TORSDOF 6
