REMARK  Name = ZINC33804097
REMARK  16 active torsions:
REMARK  status: ('A' for Active; 'I' for Inactive)
REMARK    1  A    between atoms: C_1  and  C_2
REMARK    2  A    between atoms: C_2  and  S_3
REMARK    3  A    between atoms: S_3  and  C_4
REMARK    4  A    between atoms: C_4  and  C_5
REMARK    5  A    between atoms: C_5  and  O_6
REMARK    6  A    between atoms: O_6  and  C_7
REMARK    7  A    between atoms: C_7  and  C_9
REMARK    8  A    between atoms: C_10  and  C_37
REMARK    9  A    between atoms: C_14  and  C_16
REMARK   10  A    between atoms: C_19  and  O_23
REMARK   11  A    between atoms: C_20  and  O_22
REMARK   12  A    between atoms: O_23  and  C_24
REMARK   13  A    between atoms: C_27  and  C_33
REMARK   14  A    between atoms: C_29  and  C_32
REMARK   15  A    between atoms: C_33  and  O_35
REMARK   16  A    between atoms: O_35  and  C_36
REMARK                            x       y       z     vdW  Elec       q    Type
REMARK                         _______ _______ _______ _____ _____    ______ ____
ROOT
ATOM      1  C   UNL     1       5.600   3.584   1.188  0.00  0.00    +0.065 C 
ATOM      2  C   UNL     1       6.618   2.707   1.192  0.00  0.00    +0.016 C 
ATOM      3  N   UNL     1       7.103   2.203   0.018  0.00  0.00    -0.321 N 
ATOM      4  C   UNL     1       6.865   2.845  -1.168  0.00  0.00    +0.016 C 
ATOM      5  C   UNL     1       5.852   3.729  -1.274  0.00  0.00    +0.025 C 
ATOM      6  C   UNL     1       4.961   4.029  -0.095  0.00  0.00    +0.092 C 
ATOM      7  C   UNL     1       5.594   4.396  -2.486  0.00  0.00    +0.176 C 
ATOM      8  O   UNL     1       4.682   5.197  -2.546  0.00  0.00    -0.291 OA
ATOM      9  C   UNL     1       6.428   4.135  -3.711  0.00  0.00    +0.171 C 
ATOM     10  C   UNL     1       6.975   2.704  -3.645  0.00  0.00    +0.013 C 
ATOM     11  C   UNL     1       7.762   2.545  -2.342  0.00  0.00    +0.055 C 
ATOM     12  C   UNL     1       5.816   1.705  -3.671  0.00  0.00    +0.009 C 
ATOM     13  C   UNL     1       7.229   2.276   2.501  0.00  0.00    +0.061 C 
ATOM     14  H   UNL     1       7.691   1.273   0.019  0.00  0.00    +0.152 HD
ENDROOT
BRANCH   6  15
ATOM     15  C   UNL     1       3.649   3.308  -0.270  0.00  0.00    -0.032 A 
ATOM     16  C   UNL     1       3.626   1.929  -0.355  0.00  0.00    +0.008 A 
ATOM     17  C   UNL     1       2.424   1.263  -0.510  0.00  0.00    +0.050 A 
ATOM     18  C   UNL     1       1.241   1.979  -0.592  0.00  0.00    +0.161 A 
ATOM     19  C   UNL     1       1.264   3.368  -0.507  0.00  0.00    +0.159 A 
ATOM     20  C   UNL     1       2.471   4.029  -0.346  0.00  0.00    +0.053 A 
BRANCH  19  21
ATOM     21  O   UNL     1       0.105   4.074  -0.581  0.00  0.00    -0.503 OA
ATOM     22  H   UNL     1       0.125   5.172  -0.513  0.00  0.00    +0.292 HD
ENDBRANCH  19  21
BRANCH  18  23
ATOM     23  O   UNL     1       0.059   1.325  -0.750  0.00  0.00    -0.491 OA
ATOM     24  C   UNL     1       0.111  -0.100  -0.830  0.00  0.00    +0.277 C 
ENDBRANCH  18  23
ENDBRANCH   6  15
BRANCH   1  25
ATOM     25  C   UNL     1       5.121   4.098   2.416  0.00  0.00    +0.338 C 
ATOM     26  O   UNL     1       5.383   5.241   2.740  0.00  0.00    -0.245 OA
BRANCH  25  27
ATOM     27  O   UNL     1       4.374   3.320   3.227  0.00  0.00    -0.460 OA
BRANCH  27  28
ATOM     28  C   UNL     1       3.924   3.903   4.451  0.00  0.00    +0.243 C 
BRANCH  28  29
ATOM     29  C   UNL     1       3.099   2.878   5.232  0.00  0.00    +0.110 C 
BRANCH  29  30
ATOM     30  S   UNL     1       2.528   3.619   6.786  0.00  0.00    -0.158 S 
BRANCH  30  32
ATOM     31  C   UNL     1       1.032   2.790   8.921  0.00  0.00    +0.015 C 
ATOM     32  C   UNL     1       1.579   2.293   7.581  0.00  0.00    +0.066 C 
ENDBRANCH  30  32
ENDBRANCH  29  30
ENDBRANCH  28  29
ENDBRANCH  27  28
ENDBRANCH  25  27
ENDBRANCH   1  25
BRANCH   9  33
ATOM     33  C   UNL     1       5.578   4.293  -4.944  0.00  0.00    +0.318 C 
ATOM     34  O   UNL     1       5.423   3.360  -5.696  0.00  0.00    -0.250 OA
BRANCH  33  35
ATOM     35  O   UNL     1       4.992   5.472  -5.209  0.00  0.00    -0.467 OA
ATOM     36  C   UNL     1       4.187   5.552  -6.414  0.00  0.00    +0.280 C 
ENDBRANCH  33  35
ENDBRANCH   9  33
TORSDOF 11
