REMARK  Name = ZINC66101145
REMARK  9 active torsions:
REMARK  status: ('A' for Active; 'I' for Inactive)
REMARK    1  A    between atoms: C_1  and  C_2
REMARK    2  A    between atoms: C_2  and  N_3
REMARK    3  A    between atoms: N_3  and  C_4
REMARK    4  A    between atoms: N_3  and  C_22
REMARK    5  A    between atoms: C_4  and  C_5
REMARK    6  A    between atoms: C_5  and  N_6
REMARK    7  A    between atoms: C_7  and  C_9
REMARK    8  A    between atoms: C_9  and  N_10
REMARK    9  A    between atoms: N_19  and  C_20
REMARK                            x       y       z     vdW  Elec       q    Type
REMARK                         _______ _______ _______ _____ _____    ______ ____
ROOT
ATOM      1  N   UNL     1      -2.712  -4.006   0.642  0.00  0.00    -0.316 N 
ATOM      2  C   UNL     1      -3.855  -4.676   0.889  0.00  0.00    +0.233 C 
ATOM      3  O   UNL     1      -4.913  -4.084   0.906  0.00  0.00    -0.274 OA
ATOM      4  H   UNL     1      -1.865  -4.479   0.629  0.00  0.00    +0.149 HD
ENDROOT
BRANCH   1   5
ATOM      5  C   UNL     1      -2.748  -2.563   0.393  0.00  0.00    +0.086 C 
BRANCH   5   6
ATOM      6  C   UNL     1      -1.328  -2.053   0.142  0.00  0.00    -0.059 C 
BRANCH   6   7
ATOM      7  N   UNL     1      -1.359  -0.598  -0.064  0.00  0.00    +0.382 N 
ATOM      8  H   UNL     1      -2.016  -0.377  -0.797  0.00  0.00    -0.081 HD
BRANCH   7   9
ATOM      9  C   UNL     1      -0.021  -0.129  -0.447  0.00  0.00    -0.069 C 
ATOM     10  C   UNL     1       0.076   0.851  -1.618  0.00  0.00    -0.017 C 
ATOM     11  C   UNL     1       0.534  -0.598  -1.794  0.00  0.00    -0.017 C 
ENDBRANCH   7   9
BRANCH   7  13
ATOM     12  C   UNL     1      -1.925   1.566   0.932  0.00  0.00    -0.017 C 
ATOM     13  C   UNL     1      -1.772   0.064   1.180  0.00  0.00    -0.082 C 
ENDBRANCH   7  13
ENDBRANCH   6   7
ENDBRANCH   5   6
ENDBRANCH   1   5
BRANCH   2  14
ATOM     14  C   UNL     1      -3.817  -6.160   1.146  0.00  0.00    +0.221 C 
BRANCH  14  15
ATOM     15  N   UNL     1      -5.178  -6.649   1.386  0.00  0.00    -0.290 N 
ATOM     16  C   UNL     1      -5.676  -6.667   2.648  0.00  0.00    +0.204 A 
ATOM     17  N   UNL     1      -6.874  -7.087   2.932  0.00  0.00    -0.218 NA
ATOM     18  C   UNL     1      -7.710  -7.538   1.984  0.00  0.00    +0.166 A 
ATOM     19  C   UNL     1      -7.282  -7.557   0.647  0.00  0.00    +0.117 A 
ATOM     20  C   UNL     1      -5.934  -7.075   0.347  0.00  0.00    +0.266 A 
ATOM     21  O   UNL     1      -5.506  -7.062  -0.793  0.00  0.00    -0.267 OA
ATOM     22  C   UNL     1      -8.343  -8.069  -0.124  0.00  0.00    +0.142 A 
ATOM     23  N   UNL     1      -9.338  -8.341   0.676  0.00  0.00    -0.162 NA
ATOM     24  N   UNL     1      -8.979  -8.023   1.992  0.00  0.00    -0.248 N 
ATOM     25  C   UNL     1      -9.827  -8.186   3.175  0.00  0.00    +0.174 C 
ATOM     26 BR   UNL     1      -8.330  -8.320  -1.999  0.00  0.00    -0.026 Br
ENDBRANCH  14  15
ENDBRANCH   2  14
TORSDOF 7
