REMARK  Name = ZINC39855538
REMARK  8 active torsions:
REMARK  status: ('A' for Active; 'I' for Inactive)
REMARK    1  A    between atoms: C_1  and  C_2
REMARK    2  A    between atoms: C_5  and  C_8
REMARK    3  A    between atoms: N_10  and  N_11
REMARK    4  A    between atoms: C_12  and  C_14
REMARK    5  A    between atoms: C_15  and  C_27
REMARK    6  A    between atoms: C_20  and  C_25
REMARK    7  A    between atoms: C_20  and  C_26
REMARK    8  A    between atoms: C_22  and  O_24
REMARK                            x       y       z     vdW  Elec       q    Type
REMARK                         _______ _______ _______ _____ _____    ______ ____
ROOT
ATOM      1  N   UNL     1       0.045  -6.358   1.164  0.00  0.00    -0.228 N 
ATOM      2  C   UNL     1       0.081  -7.043   2.324  0.00  0.00    +0.296 C 
ATOM      3  O   UNL     1       0.090  -6.446   3.384  0.00  0.00    -0.265 OA
ATOM      4  H   UNL     1       0.038  -6.834   0.319  0.00  0.00    +0.173 HD
ENDROOT
BRANCH   2   5
ATOM      5  C   UNL     1       0.109  -8.509   2.308  0.00  0.00    +0.194 A 
ATOM      6  C   UNL     1       0.141  -9.324   3.407  0.00  0.00    +0.006 A 
ATOM      7  C   UNL     1       0.158 -10.636   2.929  0.00  0.00    +0.025 A 
ATOM      8  C   UNL     1       0.136 -10.575   1.575  0.00  0.00    +0.112 A 
ATOM      9  O   UNL     1       0.103  -9.292   1.207  0.00  0.00    -0.454 OA
ATOM     10  C   UNL     1       0.141 -11.790   0.679  0.00  0.00    +0.081 C 
ATOM     11  C   UNL     1      -0.244 -13.013   1.520  0.00  0.00    -0.025 C 
ATOM     12  C   UNL     1       0.614 -13.055   2.787  0.00  0.00    +0.043 C 
ATOM     13  C   UNL     1       0.196 -11.915   3.724  0.00  0.00    +0.149 C 
ATOM     14  C   UNL     1      -0.011 -14.286   0.704  0.00  0.00    +0.011 C 
ATOM     15  C   UNL     1      -1.722 -12.920   1.907  0.00  0.00    +0.011 C 
ATOM     16  C   UNL     1       0.154  -8.890   4.850  0.00  0.00    +0.048 C 
BRANCH  13  17
ATOM     17  O   UNL     1       1.143 -11.794   4.787  0.00  0.00    -0.387 OA
ATOM     18  H   UNL     1       1.272 -12.607   5.293  0.00  0.00    +0.210 HD
ENDBRANCH  13  17
ENDBRANCH   2   5
BRANCH   1  21
ATOM     19  C   UNL     1      -0.017  -4.272   0.019  0.00  0.00    +0.260 C 
ATOM     20  O   UNL     1      -0.026  -4.869  -1.040  0.00  0.00    -0.269 OA
ATOM     21  N   UNL     1       0.018  -4.957   1.179  0.00  0.00    -0.230 N 
ATOM     22  H   UNL     1       0.025  -4.481   2.023  0.00  0.00    +0.173 HD
BRANCH  19  27
ATOM     23  C   UNL     1      -0.129   1.482   0.079  0.00  0.00    +0.044 C 
ATOM     24  C   UNL     1      -0.100  -0.025   0.063  0.00  0.00    -0.050 A 
ATOM     25  C   UNL     1      -0.110  -0.702  -1.144  0.00  0.00    +0.004 A 
ATOM     26  C   UNL     1      -0.083  -2.081  -1.165  0.00  0.00    +0.013 A 
ATOM     27  C   UNL     1      -0.046  -2.794   0.034  0.00  0.00    +0.038 A 
ATOM     28  C   UNL     1      -0.036  -2.105   1.248  0.00  0.00    +0.013 A 
ATOM     29  C   UNL     1      -0.058  -0.726   1.255  0.00  0.00    +0.004 A 
ENDBRANCH  19  27
ENDBRANCH   1  21
TORSDOF 4
