REMARK  Name = ZINC08377528
REMARK  3 active torsions:
REMARK  status: ('A' for Active; 'I' for Inactive)
REMARK    1  A    between atoms: C_1  and  N_2
REMARK    2  A    between atoms: C_8  and  C_9
REMARK    3  A    between atoms: C_8  and  C_11
REMARK                            x       y       z     vdW  Elec       q    Type
REMARK                         _______ _______ _______ _____ _____    ______ ____
ROOT
ATOM      1  C   UNL     1      -1.885   6.168   0.449  0.00  0.00    +0.125 A 
ATOM      2  N   UNL     1      -1.575   5.551  -0.699  0.00  0.00    -0.201 NA
ATOM      3  C   UNL     1      -1.205   4.305  -0.844  0.00  0.00    +0.279 A 
ATOM      4  O   UNL     1      -0.975   3.977  -1.997  0.00  0.00    -0.265 OA
ATOM      5  C   UNL     1      -1.018   3.240   0.138  0.00  0.00    +0.055 A 
ATOM      6  C   UNL     1      -0.603   1.958  -0.241  0.00  0.00    +0.014 A 
ATOM      7  C   UNL     1      -0.443   0.980   0.714  0.00  0.00    +0.001 A 
ATOM      8  C   UNL     1      -0.674   1.238   2.058  0.00  0.00    +0.001 A 
ATOM      9  C   UNL     1      -1.080   2.499   2.460  0.00  0.00    +0.016 A 
ATOM     10  C   UNL     1      -1.247   3.479   1.511  0.00  0.00    +0.027 A 
ATOM     11  S   UNL     1      -1.762   5.132   1.900  0.00  0.00    -0.068 S 
ENDROOT
BRANCH   1  19
ATOM     12  C   UNL     1      -4.178   5.514   0.071  0.00  0.00    +0.135 C 
ATOM     13  N   UNL     1      -4.549   6.927  -0.030  0.00  0.00    -0.308 N 
ATOM     14  C   UNL     1      -5.825   7.268  -0.337  0.00  0.00    +0.075 C 
ATOM     15  C   UNL     1      -6.189   8.570  -0.434  0.00  0.00    +0.015 C 
ATOM     16  C   UNL     1      -5.245   9.581  -0.218  0.00  0.00    +0.003 C 
ATOM     17  C   UNL     1      -3.959   9.243   0.098  0.00  0.00    +0.025 C 
ATOM     18  C   UNL     1      -3.606   7.891   0.187  0.00  0.00    +0.053 C 
ATOM     19  C   UNL     1      -2.278   7.525   0.508  0.00  0.00    +0.105 C 
BRANCH  19  20
ATOM     20  C   UNL     1      -1.331   8.528   0.892  0.00  0.00    +0.104 C 
ATOM     21  N   UNL     1      -0.580   9.324   1.196  0.00  0.00    -0.191 NA
ENDBRANCH  19  20
ENDBRANCH   1  19
TORSDOF 2
