REMARK  Name = ZINC14548207
REMARK  7 active torsions:
REMARK  status: ('A' for Active; 'I' for Inactive)
REMARK    1  A    between atoms: C_4  and  O_7
REMARK    2  A    between atoms: O_7  and  C_8
REMARK    3  A    between atoms: C_8  and  C_9
REMARK    4  A    between atoms: C_9  and  O_10
REMARK    5  A    between atoms: O_10  and  C_11
REMARK    6  A    between atoms: C_18  and  C_27
REMARK    7  A    between atoms: C_36  and  O_37
REMARK                            x       y       z     vdW  Elec       q    Type
REMARK                         _______ _______ _______ _____ _____    ______ ____
ROOT
ATOM      1  C   UNL     1      -0.194   1.207  -2.360  0.00  0.00    +0.142 A 
ATOM      2  C   UNL     1       0.948   0.430  -2.427  0.00  0.00    +0.047 A 
ATOM      3  C   UNL     1       1.462   0.070  -3.659  0.00  0.00    +0.004 A 
ATOM      4  C   UNL     1       0.841   0.492  -4.816  0.00  0.00    +0.006 A 
ATOM      5  C   UNL     1      -0.305   1.277  -4.762  0.00  0.00    -0.016 A 
ATOM      6  C   UNL     1      -0.823   1.638  -3.533  0.00  0.00    +0.074 A 
ATOM      7  N   UNL     1      -1.965   2.433  -3.410  0.00  0.00    -0.334 N 
ATOM      8  C   UNL     1      -2.843   2.326  -4.575  0.00  0.00    +0.109 C 
ATOM      9  C   UNL     1      -2.068   2.717  -5.835  0.00  0.00    +0.029 C 
ATOM     10  C   UNL     1      -0.931   1.697  -6.059  0.00  0.00    +0.049 C 
ATOM     11  C   UNL     1      -1.614   0.525  -6.726  0.00  0.00    -0.023 C 
ATOM     12  C   UNL     1      -2.740   0.904  -7.277  0.00  0.00    -0.030 C 
ATOM     13  C   UNL     1      -2.963   2.389  -7.064  0.00  0.00    +0.033 C 
ATOM     14  H   UNL     1      -2.464   2.220  -2.560  0.00  0.00    +0.147 HD
ENDROOT
BRANCH   8  15
ATOM     15  C   UNL     1      -4.022   3.249  -4.403  0.00  0.00    +0.022 A 
ATOM     16  C   UNL     1      -5.319   2.801  -4.701  0.00  0.00    -0.009 A 
ATOM     17  C   UNL     1      -5.552   1.490  -5.152  0.00  0.00    +0.009 A 
ATOM     18  C   UNL     1      -6.823   1.088  -5.426  0.00  0.00    +0.001 A 
ATOM     19  C   UNL     1      -7.901   1.956  -5.261  0.00  0.00    +0.001 A 
ATOM     20  C   UNL     1      -7.714   3.230  -4.822  0.00  0.00    +0.008 A 
ATOM     21  C   UNL     1      -6.416   3.682  -4.529  0.00  0.00    -0.017 A 
ATOM     22  C   UNL     1      -6.186   4.992  -4.073  0.00  0.00    +0.012 A 
ATOM     23  C   UNL     1      -4.917   5.397  -3.798  0.00  0.00    +0.046 A 
ATOM     24  C   UNL     1      -3.834   4.528  -3.962  0.00  0.00    +0.122 A 
BRANCH  24  25
ATOM     25  O   UNL     1      -2.577   4.961  -3.679  0.00  0.00    -0.506 OA
ATOM     26  H   UNL     1      -2.120   5.361  -4.431  0.00  0.00    +0.292 HD
ENDBRANCH  24  25
ENDBRANCH   8  15
BRANCH   1  27
ATOM     27  O   UNL     1      -0.704   1.559  -1.150  0.00  0.00    -0.487 OA
BRANCH  27  28
ATOM     28  C   UNL     1      -0.013   1.086   0.008  0.00  0.00    +0.270 C 
BRANCH  28  29
ATOM     29  C   UNL     1      -0.729   1.579   1.267  0.00  0.00    +0.270 C 
BRANCH  29  30
ATOM     30  O   UNL     1      -2.030   0.991   1.336  0.00  0.00    -0.489 OA
BRANCH  30  34
ATOM     31  C   UNL     1      -4.376   2.013   4.572  0.00  0.00    +0.000 A 
ATOM     32  C   UNL     1      -4.860   1.138   3.617  0.00  0.00    +0.004 A 
ATOM     33  C   UNL     1      -4.076   0.794   2.533  0.00  0.00    +0.045 A 
ATOM     34  C   UNL     1      -2.803   1.328   2.402  0.00  0.00    +0.121 A 
ATOM     35  C   UNL     1      -2.317   2.201   3.364  0.00  0.00    +0.045 A 
ATOM     36  C   UNL     1      -3.107   2.546   4.444  0.00  0.00    +0.004 A 
ENDBRANCH  30  34
ENDBRANCH  29  30
ENDBRANCH  28  29
ENDBRANCH  27  28
ENDBRANCH   1  27
TORSDOF 7
