REMARK  Name = ZINC32525368
REMARK  10 active torsions:
REMARK  status: ('A' for Active; 'I' for Inactive)
REMARK    1  A    between atoms: C_1  and  C_2
REMARK    2  A    between atoms: C_2  and  O_3
REMARK    3  A    between atoms: O_3  and  C_4
REMARK    4  A    between atoms: C_7  and  N_22
REMARK    5  A    between atoms: C_9  and  S_10
REMARK    6  A    between atoms: S_10  and  N_13
REMARK    7  A    between atoms: N_13  and  C_14
REMARK    8  A    between atoms: C_15  and  C_21
REMARK    9  A    between atoms: C_19  and  C_20
REMARK   10  A    between atoms: C_25  and  C_31
REMARK                            x       y       z     vdW  Elec       q    Type
REMARK                         _______ _______ _______ _____ _____    ______ ____
ROOT
ATOM      1  C   UNL     1       1.672  -6.766  -1.273  0.00  0.00    +0.147 A 
ATOM      2  C   UNL     1       3.051  -6.636  -1.190  0.00  0.00    +0.049 A 
ATOM      3  C   UNL     1       3.609  -5.429  -0.816  0.00  0.00    +0.029 A 
ATOM      4  C   UNL     1       2.790  -4.350  -0.512  0.00  0.00    +0.061 A 
ATOM      5  C   UNL     1       1.411  -4.481  -0.596  0.00  0.00    +0.057 A 
ATOM      6  C   UNL     1       0.854  -5.686  -0.976  0.00  0.00    +0.152 A 
ENDROOT
BRANCH   4   7
ATOM      7  N   UNL     1       3.356  -3.127  -0.127  0.00  0.00    -0.143 N 
ATOM      8  C   UNL     1       2.762  -2.182   0.616  0.00  0.00    +0.243 C 
ATOM      9  O   UNL     1       1.642  -2.348   1.052  0.00  0.00    -0.273 OA
ATOM     10  C   UNL     1       3.513  -0.915   0.896  0.00  0.00    +0.097 C 
ATOM     11  C   UNL     1       5.024  -1.171   0.652  0.00  0.00    +0.201 C 
ATOM     12  S   UNL     1       4.894  -2.588  -0.513  0.00  0.00    +0.053 S 
ATOM     13  O   UNL     1       5.775  -3.638  -0.136  0.00  0.00    -0.155 OA
ATOM     14  O   UNL     1       4.816  -2.136  -1.858  0.00  0.00    -0.155 OA
ATOM     15  C   UNL     1       3.291  -0.496   2.350  0.00  0.00    +0.019 C 
ENDBRANCH   4   7
BRANCH   6  16
ATOM     16  S   UNL     1      -0.897  -5.853  -1.082  0.00  0.00    +0.076 S 
ATOM     17  O   UNL     1      -1.232  -7.062  -0.415  0.00  0.00    -0.150 OA
ATOM     18  O   UNL     1      -1.448  -4.598  -0.707  0.00  0.00    -0.150 OA
BRANCH  16  19
ATOM     19  N   UNL     1      -1.272  -6.074  -2.680  0.00  0.00    -0.216 N 
ATOM     20  H   UNL     1      -1.703  -7.028  -3.017  0.00  0.00    +0.174 HD
BRANCH  19  21
ATOM     21  C   UNL     1      -1.040  -5.049  -3.600  0.00  0.00    +0.054 A 
ATOM     22  C   UNL     1      -1.811  -3.894  -3.566  0.00  0.00    -0.028 A 
ATOM     23  C   UNL     1      -1.576  -2.881  -4.474  0.00  0.00    +0.005 A 
ATOM     24  C   UNL     1      -0.581  -3.019  -5.424  0.00  0.00    +0.001 A 
ATOM     25  C   UNL     1       0.186  -4.170  -5.465  0.00  0.00    +0.005 A 
ATOM     26  C   UNL     1      -0.041  -5.185  -4.556  0.00  0.00    -0.028 A 
ATOM     27  C   UNL     1       0.794  -6.439  -4.602  0.00  0.00    +0.046 C 
ATOM     28  C   UNL     1      -2.900  -3.745  -2.534  0.00  0.00    +0.046 C 
ENDBRANCH  19  21
ENDBRANCH  16  19
ENDBRANCH   6  16
BRANCH   1  29
ATOM     29  O   UNL     1       1.123  -7.952  -1.647  0.00  0.00    -0.490 OA
BRANCH  29  31
ATOM     30  C   UNL     1       1.238 -10.260  -2.356  0.00  0.00    +0.048 C 
ATOM     31  C   UNL     1       2.017  -9.052  -1.831  0.00  0.00    +0.226 C 
ENDBRANCH  29  31
ENDBRANCH   1  29
TORSDOF 6
