REMARK  Name = ZINC04662036
REMARK  3 active torsions:
REMARK  status: ('A' for Active; 'I' for Inactive)
REMARK    1  A    between atoms: C_7  and  C_21
REMARK    2  A    between atoms: C_9  and  C_11
REMARK    3  A    between atoms: C_14  and  C_16
REMARK                            x       y       z     vdW  Elec       q    Type
REMARK                         _______ _______ _______ _____ _____    ______ ____
ROOT
ATOM      1  C   UNL     1       2.380   1.431  -0.012  0.00  0.00    +0.001 A 
ATOM      2  C   UNL     1       1.156   2.094   0.002  0.00  0.00    +0.002 A 
ATOM      3  C   UNL     1      -0.017   1.402   0.010  0.00  0.00    +0.028 A 
ATOM      4  C   UNL     1       0.002  -0.004   0.002  0.00  0.00    +0.072 A 
ATOM      5  C   UNL     1       1.250  -0.673  -0.013  0.00  0.00    +0.013 A 
ATOM      6  C   UNL     1       2.436   0.067  -0.020  0.00  0.00    +0.011 A 
ATOM      7  C   UNL     1       1.264  -2.138  -0.022  0.00  0.00    +0.050 A 
ATOM      8  C   UNL     1       0.036  -2.788  -0.015  0.00  0.00    +0.042 A 
ATOM      9  C   UNL     1      -1.144  -2.031   0.001  0.00  0.00    +0.079 A 
ATOM     10  N   UNL     1      -1.133  -0.708   0.009  0.00  0.00    -0.246 NA
ENDROOT
BRANCH   7  11
ATOM     11  C   UNL     1       2.530  -2.893  -0.038  0.00  0.00    +0.251 A 
ATOM     12  N   UNL     1       3.738  -2.382  -0.053  0.00  0.00    -0.106 NA
ATOM     13  N   UNL     1       4.604  -3.334  -0.061  0.00  0.00    -0.093 NA
ATOM     14  C   UNL     1       3.981  -4.491  -0.062  0.00  0.00    +0.305 A 
ATOM     15  O   UNL     1       2.659  -4.239  -0.047  0.00  0.00    -0.405 OA
ATOM     16  N   UNL     1       4.573  -5.737  -0.074  0.00  0.00    -0.312 N 
ATOM     17  H   UNL     1       4.022  -6.535  -0.072  0.00  0.00    +0.147 HD
ATOM     18  H   UNL     1       5.540  -5.814  -0.084  0.00  0.00    +0.147 HD
ENDBRANCH   7  11
BRANCH   9  19
ATOM     19  C   UNL     1      -2.440  -2.732   0.009  0.00  0.00    +0.038 A 
ATOM     20  C   UNL     1      -3.716  -2.198   0.024  0.00  0.00    +0.018 A 
ATOM     21  C   UNL     1      -4.788  -3.052   0.029  0.00  0.00    +0.017 A 
ATOM     22  C   UNL     1      -4.550  -4.417   0.019  0.00  0.00    +0.027 A 
ATOM     23  S   UNL     1      -2.766  -4.487  -0.005  0.00  0.00    -0.086 S 
BRANCH  22  24
ATOM     24  C   UNL     1      -5.518  -5.524   0.023  0.00  0.00    +0.026 A 
ATOM     25  C   UNL     1      -5.284  -6.886   0.013  0.00  0.00    +0.016 A 
ATOM     26  C   UNL     1      -6.367  -7.736   0.019  0.00  0.00    +0.008 A 
ATOM     27  C   UNL     1      -7.621  -7.215   0.035  0.00  0.00    +0.046 A 
ATOM     28  S   UNL     1      -7.302  -5.459   0.048  0.00  0.00    -0.096 S 
ENDBRANCH  22  24
ENDBRANCH   9  19
TORSDOF 3
