REMARK  Name = ZINC20235242
REMARK  4 active torsions:
REMARK  status: ('A' for Active; 'I' for Inactive)
REMARK    1  A    between atoms: C_9  and  N_12
REMARK    2  A    between atoms: N_15  and  C_18
REMARK    3  A    between atoms: N_24  and  C_27
REMARK    4  A    between atoms: C_27  and  C_28
REMARK                            x       y       z     vdW  Elec       q    Type
REMARK                         _______ _______ _______ _____ _____    ______ ____
ROOT
ATOM      1  N   UNL     1      -3.547   1.030  -5.377  0.00  0.00    +0.383 N 
ATOM      2  C   UNL     1      -2.486   1.959  -4.962  0.00  0.00    -0.063 C 
ATOM      3  C   UNL     1      -1.720   1.359  -3.780  0.00  0.00    +0.066 C 
ATOM      4  N   UNL     1      -2.653   1.101  -2.675  0.00  0.00    -0.303 NA
ATOM      5  C   UNL     1      -3.714   0.173  -3.090  0.00  0.00    +0.066 C 
ATOM      6  C   UNL     1      -4.480   0.773  -4.271  0.00  0.00    -0.063 C 
ATOM      7  H   UNL     1      -3.075   0.076  -5.652  0.00  0.00    -0.081 HD
ENDROOT
BRANCH   1  16
ATOM      8  C   UNL     1      -7.602   4.127  -9.332  0.00  0.00    +0.000 A 
ATOM      9  C   UNL     1      -7.207   4.996  -8.333  0.00  0.00    +0.000 A 
ATOM     10  C   UNL     1      -6.365   4.555  -7.334  0.00  0.00    +0.004 A 
ATOM     11  C   UNL     1      -5.909   3.243  -7.324  0.00  0.00    -0.046 A 
ATOM     12  C   UNL     1      -6.299   2.378  -8.322  0.00  0.00    -0.044 A 
ATOM     13  C   UNL     1      -7.149   2.824  -9.325  0.00  0.00    +0.004 A 
ATOM     14  C   UNL     1      -5.837   0.945  -8.379  0.00  0.00    +0.034 C 
ATOM     15  C   UNL     1      -5.290   0.503  -7.023  0.00  0.00    -0.010 C 
ATOM     16  C   UNL     1      -4.258   1.537  -6.558  0.00  0.00    -0.064 C 
ATOM     17  C   UNL     1      -4.995   2.826  -6.201  0.00  0.00    +0.020 C 
ENDBRANCH   1  16
BRANCH   4  18
ATOM     18  C   UNL     1      -1.942   0.594  -1.493  0.00  0.00    +0.058 C 
ATOM     19  C   UNL     1      -1.092  -0.592  -1.911  0.00  0.00    +0.028 C 
ATOM     20  C   UNL     1      -0.483  -1.280  -0.688  0.00  0.00    +0.097 C 
ATOM     21  C   UNL     1       0.798  -0.563  -0.316  0.00  0.00    +0.216 C 
ATOM     22  O   UNL     1       1.869  -1.098  -0.510  0.00  0.00    -0.276 OA
ATOM     23  N   UNL     1       0.748   0.661   0.219  0.00  0.00    -0.297 N 
ATOM     24  C   UNL     1      -0.547   1.317   0.464  0.00  0.00    +0.109 C 
ATOM     25  C   UNL     1      -1.148   1.733  -0.880  0.00  0.00    +0.038 C 
BRANCH  23  26
ATOM     26  C   UNL     1       1.991   1.353   0.568  0.00  0.00    +0.144 C 
BRANCH  26  27
ATOM     27  C   UNL     1       2.352   1.048   1.998  0.00  0.00    -0.012 A 
ATOM     28  C   UNL     1       1.566   0.186   2.741  0.00  0.00    +0.006 A 
ATOM     29  C   UNL     1       1.900  -0.098   4.051  0.00  0.00    +0.000 A 
ATOM     30  C   UNL     1       3.014   0.487   4.624  0.00  0.00    +0.001 A 
ATOM     31  C   UNL     1       3.798   1.352   3.884  0.00  0.00    +0.020 A 
ATOM     32  C   UNL     1       3.467   1.633   2.571  0.00  0.00    +0.046 A 
ATOM     33 CL   UNL     1       4.451   2.720   1.641  0.00  0.00    -0.083 Cl
ENDBRANCH  26  27
ENDBRANCH  23  26
ENDBRANCH   4  18
TORSDOF 4
