REMARK  Name = ZINC39493437
REMARK  3 active torsions:
REMARK  status: ('A' for Active; 'I' for Inactive)
REMARK    1  A    between atoms: N_12  and  C_16
REMARK    2  A    between atoms: C_16  and  C_17
REMARK    3  A    between atoms: N_19  and  C_20
REMARK                            x       y       z     vdW  Elec       q    Type
REMARK                         _______ _______ _______ _____ _____    ______ ____
ROOT
ATOM      1  C   UNL     1      -0.017   1.377   0.010  0.00  0.00    +0.000 A 
ATOM      2  C   UNL     1       1.173   2.082   0.002  0.00  0.00    +0.000 A 
ATOM      3  C   UNL     1       2.376   1.405  -0.014  0.00  0.00    +0.006 A 
ATOM      4  C   UNL     1       2.398   0.019  -0.021  0.00  0.00    -0.012 A 
ATOM      5  C   UNL     1       1.207  -0.686  -0.012  0.00  0.00    -0.042 A 
ATOM      6  C   UNL     1       0.002  -0.004   0.002  0.00  0.00    +0.004 A 
ATOM      7  C   UNL     1       1.492  -2.174  -0.016  0.00  0.00    +0.038 C 
ATOM      8  C   UNL     1       2.966  -2.303  -0.460  0.00  0.00    +0.045 C 
ATOM      9  C   UNL     1       3.550  -0.948  -0.040  0.00  0.00    +0.138 C 
ATOM     10  C   UNL     1       4.224  -1.037   1.304  0.00  0.00    +0.251 C 
ATOM     11  O   UNL     1       3.721  -1.359   2.359  0.00  0.00    -0.272 OA
ATOM     12  N   UNL     1       5.508  -0.681   1.083  0.00  0.00    -0.215 N 
ATOM     13  C   UNL     1       5.722  -0.386  -0.206  0.00  0.00    +0.310 C 
ATOM     14  O   UNL     1       6.799  -0.038  -0.651  0.00  0.00    -0.252 OA
ATOM     15  N   UNL     1       4.608  -0.517  -0.955  0.00  0.00    -0.281 N 
ATOM     16  H   UNL     1       4.525  -0.357  -1.908  0.00  0.00    +0.152 HD
ENDROOT
BRANCH  12  17
ATOM     17  C   UNL     1       6.538  -0.625   2.123  0.00  0.00    +0.213 C 
BRANCH  17  18
ATOM     18  C   UNL     1       7.224  -1.963   2.223  0.00  0.00    +0.231 C 
ATOM     19  O   UNL     1       6.885  -2.874   1.498  0.00  0.00    -0.274 OA
ATOM     20  N   UNL     1       8.213  -2.148   3.119  0.00  0.00    -0.307 N 
ATOM     21  H   UNL     1       8.485  -1.419   3.700  0.00  0.00    +0.149 HD
BRANCH  20  22
ATOM     22  C   UNL     1       8.880  -3.449   3.217  0.00  0.00    +0.105 C 
ATOM     23  C   UNL     1      10.290  -3.234   3.738  0.00  0.00    +0.038 C 
ATOM     24  C   UNL     1      11.015  -4.586   3.797  0.00  0.00    +0.076 C 
ATOM     25  S   UNL     1      10.291  -5.522   5.176  0.00  0.00    -0.125 S 
ATOM     26  C   UNL     1       8.555  -5.291   4.956  0.00  0.00    +0.013 A 
ATOM     27  C   UNL     1       8.048  -4.349   4.082  0.00  0.00    -0.014 A 
ATOM     28  C   UNL     1       6.666  -4.213   3.976  0.00  0.00    +0.006 A 
ATOM     29  C   UNL     1       5.816  -5.002   4.719  0.00  0.00    +0.000 A 
ATOM     30  C   UNL     1       6.329  -5.948   5.588  0.00  0.00    +0.001 A 
ATOM     31  C   UNL     1       7.690  -6.092   5.702  0.00  0.00    +0.015 A 
ENDBRANCH  20  22
ENDBRANCH  17  18
ENDBRANCH  12  17
TORSDOF 3
