REMARK  Name = ZINC11147061
REMARK  6 active torsions:
REMARK  status: ('A' for Active; 'I' for Inactive)
REMARK    1  A    between atoms: C_1  and  C_2
REMARK    2  A    between atoms: N_4  and  C_5
REMARK    3  A    between atoms: C_13  and  C_16
REMARK    4  A    between atoms: C_16  and  S_17
REMARK    5  A    between atoms: S_17  and  C_18
REMARK    6  A    between atoms: C_22  and  N_24
REMARK                            x       y       z     vdW  Elec       q    Type
REMARK                         _______ _______ _______ _____ _____    ______ ____
ROOT
ATOM      1  C   UNL     1       0.723  -0.765   1.095  0.00  0.00    +0.110 C 
ATOM      2  C   UNL     1       0.020  -0.010  -0.003  0.00  0.00    +0.223 C 
ATOM      3  O   UNL     1      -0.084   1.197   0.062  0.00  0.00    -0.275 OA
ATOM      4  N   UNL     1      -0.493  -0.675  -1.057  0.00  0.00    -0.219 N 
ATOM      5  C   UNL     1      -1.038   0.029  -2.126  0.00  0.00    +0.172 A 
ATOM      6  N   UNL     1      -1.214   1.328  -2.245  0.00  0.00    -0.228 NA
ATOM      7  C   UNL     1      -1.750   1.847  -3.333  0.00  0.00    +0.061 A 
ATOM      8  C   UNL     1      -2.108   0.984  -4.316  0.00  0.00    +0.072 A 
ATOM      9  S   UNL     1      -1.626  -0.572  -3.584  0.00  0.00    -0.060 S 
ENDROOT
BRANCH   4  10
ATOM     10  C   UNL     1      -0.478  -2.075  -1.076  0.00  0.00    +0.043 A 
ATOM     11  C   UNL     1      -1.239  -2.792  -0.161  0.00  0.00    +0.024 A 
ATOM     12  C   UNL     1      -1.222  -4.173  -0.182  0.00  0.00    +0.002 A 
ATOM     13  C   UNL     1      -0.449  -4.842  -1.113  0.00  0.00    +0.000 A 
ATOM     14  C   UNL     1       0.310  -4.131  -2.025  0.00  0.00    +0.002 A 
ATOM     15  C   UNL     1       0.293  -2.751  -2.013  0.00  0.00    +0.024 A 
ENDBRANCH   4  10
BRANCH   7  16
ATOM     16  C   UNL     1      -1.955   3.333  -3.478  0.00  0.00    +0.133 C 
BRANCH  16  17
ATOM     17  S   UNL     1      -0.482   4.076  -4.232  0.00  0.00    -0.080 S 
BRANCH  17  18
ATOM     18  C   UNL     1      -0.874   5.791  -4.332  0.00  0.00    +0.192 A 
ATOM     19  N   UNL     1      -2.047   6.212  -3.884  0.00  0.00    -0.207 NA
ATOM     20  C   UNL     1      -2.377   7.500  -3.943  0.00  0.00    +0.122 A 
ATOM     21  C   UNL     1      -1.471   8.408  -4.484  0.00  0.00    +0.086 A 
ATOM     22  C   UNL     1      -0.248   7.928  -4.944  0.00  0.00    +0.122 A 
ATOM     23  N   UNL     1       0.016   6.627  -4.848  0.00  0.00    -0.207 NA
ATOM     24  N   UNL     1      -3.607   7.932  -3.472  0.00  0.00    -0.343 N 
ATOM     25  H   UNL     1      -4.234   7.295  -3.097  0.00  0.00    +0.144 HD
ATOM     26  H   UNL     1      -3.841   8.873  -3.518  0.00  0.00    +0.144 HD
BRANCH  22  27
ATOM     27  N   UNL     1       0.686   8.795  -5.490  0.00  0.00    -0.343 N 
ATOM     28  H   UNL     1       0.489   9.743  -5.554  0.00  0.00    +0.144 HD
ATOM     29  H   UNL     1       1.536   8.454  -5.809  0.00  0.00    +0.144 HD
ENDBRANCH  22  27
ENDBRANCH  17  18
ENDBRANCH  16  17
ENDBRANCH   7  16
TORSDOF 5
