REMARK  Name = ZINC03669499
REMARK  5 active torsions:
REMARK  status: ('A' for Active; 'I' for Inactive)
REMARK    1  A    between atoms: C_3  and  S_8
REMARK    2  A    between atoms: S_8  and  C_9
REMARK    3  A    between atoms: C_11  and  N_21
REMARK    4  A    between atoms: C_13  and  N_18
REMARK    5  A    between atoms: C_14  and  C_15
REMARK                            x       y       z     vdW  Elec       q    Type
REMARK                         _______ _______ _______ _____ _____    ______ ____
ROOT
ATOM      1  C   UNL     1      -1.184  -2.098   0.014  0.00  0.00    +0.029 A 
ATOM      2  C   UNL     1       0.045  -2.729  -0.147  0.00  0.00    +0.048 A 
ATOM      3  C   UNL     1       1.208  -1.987  -0.145  0.00  0.00    +0.129 A 
ATOM      4  C   UNL     1       1.162  -0.611   0.016  0.00  0.00    +0.066 A 
ATOM      5  C   UNL     1      -0.045   0.032   0.177  0.00  0.00    +0.141 A 
ATOM      6  C   UNL     1      -1.232  -0.705   0.183  0.00  0.00    +0.080 A 
ENDROOT
BRANCH   6   7
ATOM      7  C   UNL     1      -2.527  -0.024   0.361  0.00  0.00    +0.245 C 
ATOM      8  O   UNL     1      -3.141   0.377  -0.609  0.00  0.00    -0.270 OA
ATOM      9  N   UNL     1      -3.031   0.155   1.598  0.00  0.00    -0.325 N 
ATOM     10  H   UNL     1      -2.541  -0.165   2.372  0.00  0.00    +0.145 HD
ATOM     11  H   UNL     1      -3.883   0.603   1.715  0.00  0.00    +0.145 HD
ENDBRANCH   6   7
BRANCH   5  12
ATOM     12  N   UNL     1      -0.085   1.502   0.349  0.00  0.00    +0.057 N 
ATOM     13  O   UNL     1       0.951   2.143   0.349  0.00  0.00    -0.126 OA
ATOM     14  O   UNL     1      -1.153   2.071   0.486  0.00  0.00    -0.126 OA
ENDBRANCH   5  12
BRANCH   3  15
ATOM     15  N   UNL     1       2.512  -2.665  -0.317  0.00  0.00    +0.057 N 
ATOM     16  O   UNL     1       3.541  -2.013  -0.317  0.00  0.00    -0.126 OA
ATOM     17  O   UNL     1       2.556  -3.874  -0.459  0.00  0.00    -0.126 OA
ENDBRANCH   3  15
BRANCH   1  18
ATOM     18  S   UNL     1      -2.671  -3.042   0.013  0.00  0.00    -0.089 S 
BRANCH  18  21
ATOM     19  C   UNL     1      -5.149  -3.029  -3.155  0.00  0.00    +0.039 A 
ATOM     20  C   UNL     1      -4.614  -3.253  -1.902  0.00  0.00    +0.018 A 
ATOM     21  C   UNL     1      -3.355  -2.758  -1.586  0.00  0.00    +0.013 A 
ATOM     22  C   UNL     1      -2.639  -2.032  -2.530  0.00  0.00    +0.018 A 
ATOM     23  C   UNL     1      -3.176  -1.815  -3.784  0.00  0.00    +0.039 A 
ATOM     24  C   UNL     1      -4.431  -2.309  -4.097  0.00  0.00    +0.123 A 
ATOM     25  F   UNL     1      -4.955  -2.091  -5.322  0.00  0.00    -0.205 F 
ENDBRANCH  18  21
ENDBRANCH   1  18
TORSDOF 5
