REMARK  Name = ZINC63743350
REMARK  8 active torsions:
REMARK  status: ('A' for Active; 'I' for Inactive)
REMARK    1  A    between atoms: C_1  and  C_2
REMARK    2  A    between atoms: C_2  and  O_3
REMARK    3  A    between atoms: O_3  and  C_4
REMARK    4  A    between atoms: C_4  and  C_6
REMARK    5  A    between atoms: C_13  and  C_15
REMARK    6  A    between atoms: C_15  and  C_16
REMARK    7  A    between atoms: C_24  and  S_26
REMARK    8  A    between atoms: S_26  and  C_27
REMARK                            x       y       z     vdW  Elec       q    Type
REMARK                         _______ _______ _______ _____ _____    ______ ____
ROOT
ATOM      1  C   UNL     1       5.477  -1.686  -6.794  0.00  0.00    -0.019 C 
ATOM      2  C   UNL     1       4.839  -1.163  -7.865  0.00  0.00    +0.000 A 
ATOM      3  C   UNL     1       3.555  -1.472  -8.506  0.00  0.00    +0.010 A 
ATOM      4  C   UNL     1       3.175  -0.760  -9.592  0.00  0.00    +0.001 A 
ATOM      5  C   UNL     1       3.975   0.263 -10.119  0.00  0.00    +0.002 A 
ATOM      6  C   UNL     1       5.167   0.604  -9.585  0.00  0.00    +0.026 A 
ATOM      7  C   UNL     1       5.665  -0.078  -8.441  0.00  0.00    +0.044 A 
ATOM      8  N   UNL     1       6.771   0.064  -7.752  0.00  0.00    -0.369 N 
ATOM      9  C   UNL     1       6.769  -0.911  -6.657  0.00  0.00    +0.170 C 
ATOM     10  H   UNL     1       7.472   0.709  -7.934  0.00  0.00    +0.161 HD
ENDROOT
BRANCH   1  11
ATOM     11  C   UNL     1       4.995  -2.808  -5.911  0.00  0.00    +0.130 C 
BRANCH  11  18
ATOM     12  C   UNL     1       1.638  -3.122  -2.552  0.00  0.00    +0.115 C 
ATOM     13  C   UNL     1       1.746  -4.648  -2.568  0.00  0.00    +0.018 C 
ATOM     14  C   UNL     1       2.405  -5.102  -3.872  0.00  0.00    +0.020 C 
ATOM     15  C   UNL     1       3.818  -4.516  -3.956  0.00  0.00    +0.108 C 
ATOM     16  N   UNL     1       3.736  -3.058  -3.797  0.00  0.00    -0.300 N 
ATOM     17  C   UNL     1       3.042  -2.513  -2.622  0.00  0.00    +0.122 C 
ATOM     18  C   UNL     1       4.287  -2.235  -4.711  0.00  0.00    +0.220 C 
ATOM     19  O   UNL     1       4.212  -1.033  -4.568  0.00  0.00    -0.275 OA
BRANCH  12  20
ATOM     20  C   UNL     1       0.960  -2.678  -1.282  0.00  0.00    +0.312 C 
ATOM     21  O   UNL     1       0.598  -3.499  -0.472  0.00  0.00    -0.250 OA
BRANCH  20  22
ATOM     22  O   UNL     1       0.757  -1.372  -1.050  0.00  0.00    -0.465 OA
BRANCH  22  24
ATOM     23  C   UNL     1      -0.034   0.497   0.261  0.00  0.00    +0.048 C 
ATOM     24  C   UNL     1       0.108  -1.023   0.175  0.00  0.00    +0.229 C 
ENDBRANCH  22  24
ENDBRANCH  20  22
ENDBRANCH  12  20
ENDBRANCH  11  18
ENDBRANCH   1  11
BRANCH   9  25
ATOM     25  S   UNL     1       8.188  -2.030  -6.816  0.00  0.00    -0.096 S 
BRANCH  25  26
ATOM     26  C   UNL     1       8.368  -2.243  -8.556  0.00  0.00    +0.010 A 
ATOM     27  C   UNL     1       9.194  -1.392  -9.281  0.00  0.00    +0.015 A 
ATOM     28  C   UNL     1       9.332  -1.562 -10.644  0.00  0.00    +0.001 A 
ATOM     29  C   UNL     1       8.652  -2.579 -11.288  0.00  0.00    +0.000 A 
ATOM     30  C   UNL     1       7.829  -3.428 -10.570  0.00  0.00    +0.001 A 
ATOM     31  C   UNL     1       7.690  -3.268  -9.206  0.00  0.00    +0.015 A 
ENDBRANCH  25  26
ENDBRANCH   9  25
TORSDOF 7
