REMARK  Name = ZINC39490063
REMARK  16 active torsions:
REMARK  status: ('A' for Active; 'I' for Inactive)
REMARK    1  A    between atoms: C_1  and  C_2
REMARK    2  A    between atoms: C_2  and  C_3
REMARK    3  A    between atoms: C_3  and  C_4
REMARK    4  A    between atoms: C_6  and  C_10
REMARK    5  A    between atoms: C_10  and  N_11
REMARK    6  A    between atoms: N_11  and  C_12
REMARK    7  A    between atoms: C_13  and  C_15
REMARK    8  A    between atoms: C_15  and  C_16
REMARK    9  A    between atoms: C_16  and  C_28
REMARK   10  A    between atoms: N_20  and  C_23
REMARK   11  A    between atoms: C_23  and  C_24
REMARK   12  A    between atoms: C_24  and  C_25
REMARK   13  A    between atoms: C_25  and  O_26
REMARK   14  A    between atoms: O_26  and  C_27
REMARK   15  A    between atoms: C_33  and  O_34
REMARK   16  A    between atoms: O_34  and  C_35
REMARK                            x       y       z     vdW  Elec       q    Type
REMARK                         _______ _______ _______ _____ _____    ______ ____
ROOT
ATOM      1  C   UNL     1      -0.318  -9.730  -1.941  0.00  0.00    +0.092 C 
ATOM      2  C   UNL     1      -0.151 -11.215  -1.559  0.00  0.00    +0.118 C 
ATOM      3  C   UNL     1      -1.574 -11.727  -1.496  0.00  0.00    +0.223 C 
ATOM      4  O   UNL     1      -1.900 -12.863  -1.225  0.00  0.00    -0.275 OA
ATOM      5  N   UNL     1      -2.415 -10.727  -1.788  0.00  0.00    -0.241 N 
ATOM      6  C   UNL     1      -1.818  -9.559  -2.054  0.00  0.00    +0.233 C 
ATOM      7  O   UNL     1      -2.388  -8.528  -2.340  0.00  0.00    -0.274 OA
ENDROOT
BRANCH   1   8
ATOM      8  C   UNL     1       0.349  -9.440  -3.260  0.00  0.00    +0.010 A 
ATOM      9  C   UNL     1      -0.411  -9.077  -4.355  0.00  0.00    +0.008 A 
ATOM     10  C   UNL     1       0.201  -8.811  -5.566  0.00  0.00    +0.001 A 
ATOM     11  C   UNL     1       1.575  -8.908  -5.685  0.00  0.00    +0.004 A 
ATOM     12  C   UNL     1       2.340  -9.270  -4.593  0.00  0.00    +0.046 A 
ATOM     13  C   UNL     1       1.729  -9.532  -3.375  0.00  0.00    +0.124 A 
BRANCH  13  14
ATOM     14  O   UNL     1       2.479  -9.883  -2.298  0.00  0.00    -0.495 OA
ATOM     15  C   UNL     1       3.879 -10.074  -2.518  0.00  0.00    +0.277 C 
ENDBRANCH  13  14
ENDBRANCH   1   8
BRANCH   1  16
ATOM     16  C   UNL     1       0.245  -8.825  -0.844  0.00  0.00    +0.117 C 
BRANCH  16  19
ATOM     17  N   UNL     1       0.372  -6.400  -0.370  0.00  0.00    -0.302 N 
ATOM     18  C   UNL     1       0.882  -6.736   0.962  0.00  0.00    +0.132 C 
ATOM     19  C   UNL     1       0.065  -7.382  -1.241  0.00  0.00    +0.217 C 
ATOM     20  O   UNL     1      -0.357  -7.105  -2.343  0.00  0.00    -0.276 OA
BRANCH  17  21
ATOM     21  C   UNL     1       0.197  -4.998  -0.756  0.00  0.00    +0.140 C 
BRANCH  21  24
ATOM     22  C   UNL     1       2.349  -2.450  -0.963  0.00  0.00    +0.061 C 
ATOM     23  C   UNL     1       1.379  -2.997  -1.699  0.00  0.00    +0.028 C 
ATOM     24  C   UNL     1       1.486  -4.481  -1.399  0.00  0.00    +0.170 C 
ATOM     25  N   UNL     1       2.609  -4.547  -0.449  0.00  0.00    -0.178 NA
ATOM     26  N   UNL     1       3.021  -3.398  -0.274  0.00  0.00    -0.159 NA
BRANCH  22  27
ATOM     27  C   UNL     1       2.657  -0.975  -0.913  0.00  0.00    +0.057 C 
BRANCH  27  29
ATOM     28  C   UNL     1       2.255   1.152   0.335  0.00  0.00    +0.004 C 
ATOM     29  C   UNL     1       1.943  -0.345   0.284  0.00  0.00    +0.003 C 
ENDBRANCH  27  29
ENDBRANCH  22  27
ENDBRANCH  21  24
ENDBRANCH  17  21
ENDBRANCH  16  19
ENDBRANCH   1  16
BRANCH   5  30
ATOM     30  C   UNL     1      -3.870 -10.898  -1.813  0.00  0.00    +0.118 C 
BRANCH  30  31
ATOM     31  C   UNL     1      -4.442 -10.605  -0.425  0.00  0.00    +0.047 C 
BRANCH  31  32
ATOM     32  C   UNL     1      -5.962 -10.783  -0.452  0.00  0.00    +0.161 C 
BRANCH  32  33
ATOM     33  O   UNL     1      -6.496 -10.509   0.845  0.00  0.00    -0.383 OA
ATOM     34  C   UNL     1      -7.916 -10.647   0.929  0.00  0.00    +0.193 C 
ENDBRANCH  32  33
ENDBRANCH  31  32
ENDBRANCH  30  31
ENDBRANCH   5  30
TORSDOF 12
