REMARK  Name = ZINC40287271
REMARK  5 active torsions:
REMARK  status: ('A' for Active; 'I' for Inactive)
REMARK    1  A    between atoms: C_1  and  O_2
REMARK    2  A    between atoms: O_2  and  C_3
REMARK    3  A    between atoms: C_3  and  C_5
REMARK    4  A    between atoms: C_10  and  N_11
REMARK    5  A    between atoms: C_23  and  C_25
REMARK                            x       y       z     vdW  Elec       q    Type
REMARK                         _______ _______ _______ _____ _____    ______ ____
ROOT
ATOM      1  N   UNL     1       2.055  -2.573   3.075  0.00  0.00    -0.269 N 
ATOM      2  C   UNL     1       2.889  -3.048   4.022  0.00  0.00    +0.307 C 
ATOM      3  O   UNL     1       3.214  -4.219   4.013  0.00  0.00    -0.252 OA
ATOM      4  N   UNL     1       3.362  -2.224   4.978  0.00  0.00    -0.272 N 
ATOM      5  C   UNL     1       3.065  -0.784   4.946  0.00  0.00    +0.116 C 
ATOM      6  C   UNL     1       4.373  -0.006   4.753  0.00  0.00    +0.074 C 
ATOM      7  C   UNL     1       5.419  -0.579   5.673  0.00  0.00    +0.040 A 
ATOM      8  C   UNL     1       5.348  -1.792   6.261  0.00  0.00    +0.062 A 
ATOM      9  N   UNL     1       6.448  -1.962   6.998  0.00  0.00    -0.348 N 
ATOM     10  C   UNL     1       7.201  -0.898   6.893  0.00  0.00    +0.171 A 
ATOM     11  N   UNL     1       6.590  -0.012   6.074  0.00  0.00    -0.349 N 
ATOM     12  H   UNL     1       6.924   0.863   5.820  0.00  0.00    +0.166 HD
ATOM     13  C   UNL     1       4.185  -2.746   6.084  0.00  0.00    +0.156 C 
ATOM     14  H   UNL     1       1.856  -1.625   3.036  0.00  0.00    +0.156 HD
ATOM     15  H   UNL     1       6.656  -2.749   7.526  0.00  0.00    +0.167 HD
ENDROOT
BRANCH   1  21
ATOM     16  C   UNL     1       1.246  -3.024   0.836  0.00  0.00    +0.083 A 
ATOM     17  C   UNL     1       0.672  -3.909  -0.081  0.00  0.00    +0.055 A 
ATOM     18  C   UNL     1       0.334  -5.187   0.316  0.00  0.00    +0.124 A 
ATOM     19  C   UNL     1       0.561  -5.597   1.623  0.00  0.00    +0.040 A 
ATOM     20  C   UNL     1       1.126  -4.732   2.538  0.00  0.00    +0.027 A 
ATOM     21  C   UNL     1       1.478  -3.445   2.154  0.00  0.00    +0.049 A 
ATOM     22  F   UNL     1      -0.221  -6.042  -0.570  0.00  0.00    -0.205 F 
BRANCH  16  23
ATOM     23  C   UNL     1       1.611  -1.658   0.419  0.00  0.00    +0.341 C 
ATOM     24  O   UNL     1       2.031  -0.865   1.237  0.00  0.00    -0.245 OA
BRANCH  23  26
ATOM     25  C   UNL     1       1.849   0.049  -1.204  0.00  0.00    +0.280 C 
ATOM     26  O   UNL     1       1.477  -1.289  -0.870  0.00  0.00    -0.464 OA
ENDBRANCH  23  26
ENDBRANCH  16  23
ENDBRANCH   1  21
BRANCH  13  27
ATOM     27  C   UNL     1       3.367  -2.804   7.348  0.00  0.00    -0.018 A 
ATOM     28  C   UNL     1       2.874  -1.639   7.907  0.00  0.00    +0.006 A 
ATOM     29  C   UNL     1       2.124  -1.691   9.067  0.00  0.00    +0.003 A 
ATOM     30  C   UNL     1       1.865  -2.907   9.669  0.00  0.00    +0.038 A 
ATOM     31  C   UNL     1       2.358  -4.074   9.111  0.00  0.00    +0.124 A 
ATOM     32  C   UNL     1       3.104  -4.022   7.946  0.00  0.00    +0.044 A 
ATOM     33  F   UNL     1       2.106  -5.264   9.700  0.00  0.00    -0.205 F 
ENDBRANCH  13  27
TORSDOF 4
