REMARK  Name = ZINC44559595
REMARK  4 active torsions:
REMARK  status: ('A' for Active; 'I' for Inactive)
REMARK    1  A    between atoms: C_3  and  N_20
REMARK    2  A    between atoms: C_10  and  N_11
REMARK    3  A    between atoms: C_16  and  C_18
REMARK    4  A    between atoms: C_18  and  N_19
REMARK                            x       y       z     vdW  Elec       q    Type
REMARK                         _______ _______ _______ _____ _____    ______ ____
ROOT
ATOM      1  C   UNL     1       0.214   1.119  -0.045  0.00  0.00    +0.026 A 
ATOM      2  C   UNL     1       1.414   1.824  -0.004  0.00  0.00    +0.035 A 
ATOM      3  C   UNL     1       2.590   1.200   0.281  0.00  0.00    +0.135 A 
ATOM      4  C   UNL     1       2.603  -0.180   0.540  0.00  0.00    +0.032 A 
ATOM      5  C   UNL     1       3.789  -0.870   0.839  0.00  0.00    +0.121 A 
ATOM      6  N   UNL     1       3.754  -2.161   1.075  0.00  0.00    -0.263 NA
ATOM      7  C   UNL     1       2.630  -2.865   1.045  0.00  0.00    +0.111 A 
ATOM      8  C   UNL     1       1.428  -2.288   0.765  0.00  0.00    +0.030 A 
ATOM      9  C   UNL     1       1.387  -0.909   0.501  0.00  0.00    +0.008 A 
ATOM     10  C   UNL     1       0.184  -0.237   0.204  0.00  0.00    +0.038 A 
ENDROOT
BRANCH  10  11
ATOM     11  N   UNL     1      -1.021  -0.935   0.162  0.00  0.00    -0.328 N 
ATOM     12  C   UNL     1      -1.824  -1.115   1.379  0.00  0.00    +0.105 C 
ATOM     13  C   UNL     1      -3.248  -0.620   1.109  0.00  0.00    +0.019 C 
ATOM     14  C   UNL     1      -3.807  -1.333  -0.125  0.00  0.00    +0.003 C 
ATOM     15  C   UNL     1      -2.941  -1.004  -1.343  0.00  0.00    +0.020 C 
ATOM     16  C   UNL     1      -1.516  -1.498  -1.101  0.00  0.00    +0.056 C 
BRANCH  16  17
ATOM     17  C   UNL     1      -0.616  -1.046  -2.252  0.00  0.00    -0.064 C 
BRANCH  17  18
ATOM     18  N   UNL     1      -1.022  -1.729  -3.488  0.00  0.00    +0.379 N 
ATOM     19  H   UNL     1      -0.428  -1.431  -4.247  0.00  0.00    -0.090 HD
ATOM     20  H   UNL     1      -0.935  -2.726  -3.365  0.00  0.00    -0.090 HD
ATOM     21  H   UNL     1      -1.980  -1.498  -3.701  0.00  0.00    -0.090 HD
ENDBRANCH  17  18
ENDBRANCH  16  17
ENDBRANCH  10  11
BRANCH   3  22
ATOM     22  N   UNL     1       3.852   1.973   0.316  0.00  0.00    +0.057 N 
ATOM     23  O   UNL     1       3.860   3.097   0.761  0.00  0.00    -0.126 OA
ATOM     24  O   UNL     1       4.875   1.481  -0.100  0.00  0.00    -0.126 OA
ENDBRANCH   3  22
TORSDOF 4
