REMARK  Name = ZINC05112974
REMARK  5 active torsions:
REMARK  status: ('A' for Active; 'I' for Inactive)
REMARK    1  A    between atoms: C_1  and  C_2
REMARK    2  A    between atoms: C_2  and  C_3
REMARK    3  A    between atoms: C_8  and  N_9
REMARK    4  A    between atoms: C_13  and  C_14
REMARK    5  A    between atoms: C_17  and  O_21
REMARK                            x       y       z     vdW  Elec       q    Type
REMARK                         _______ _______ _______ _____ _____    ______ ____
ROOT
ATOM      1  N   UNL     1       3.569   6.336   0.315  0.00  0.00    -0.190 N 
ATOM      2  C   UNL     1       2.374   5.717   0.220  0.00  0.00    +0.263 C 
ATOM      3  O   UNL     1       1.337   6.354   0.232  0.00  0.00    -0.269 OA
ATOM      4  C   UNL     1       2.358   4.245   0.106  0.00  0.00    +0.100 C 
ATOM      5  C   UNL     1       1.173   3.542   0.009  0.00  0.00    +0.026 C 
ATOM      6  C   UNL     1       3.665   3.559   0.094  0.00  0.00    +0.257 C 
ATOM      7  O   UNL     1       3.735   2.349  -0.001  0.00  0.00    -0.270 OA
ATOM      8  N   UNL     1       4.780   4.312   0.192  0.00  0.00    -0.235 N 
ATOM      9  C   UNL     1       4.718   5.647   0.297  0.00  0.00    +0.320 C 
ATOM     10  O   UNL     1       5.761   6.266   0.382  0.00  0.00    -0.251 OA
ATOM     11  H   UNL     1       5.647   3.877   0.185  0.00  0.00    +0.159 HD
ENDROOT
BRANCH   5  12
ATOM     12  C   UNL     1       1.178   2.083   0.114  0.00  0.00    -0.023 A 
ATOM     13  C   UNL     1       1.910   1.452   1.132  0.00  0.00    +0.011 A 
ATOM     14  C   UNL     1       1.912   0.090   1.228  0.00  0.00    +0.047 A 
ATOM     15  C   UNL     1       1.191  -0.678   0.320  0.00  0.00    +0.135 A 
ATOM     16  C   UNL     1       0.460  -0.064  -0.694  0.00  0.00    +0.083 A 
ATOM     17  C   UNL     1       0.450   1.308  -0.802  0.00  0.00    +0.031 A 
ATOM     18 CL   UNL     1      -0.439  -1.030  -1.823  0.00  0.00    -0.080 Cl
BRANCH  15  19
ATOM     19  O   UNL     1       1.199  -2.031   0.423  0.00  0.00    -0.505 OA
ATOM     20  H   UNL     1       0.495  -2.386   0.983  0.00  0.00    +0.292 HD
ENDBRANCH  15  19
ENDBRANCH   5  12
BRANCH   1  26
ATOM     21  C   UNL     1       3.584   8.329   1.682  0.00  0.00    -0.026 A 
ATOM     22  C   UNL     1       3.629   9.705   1.790  0.00  0.00    +0.005 A 
ATOM     23  C   UNL     1       3.688  10.488   0.653  0.00  0.00    +0.000 A 
ATOM     24  C   UNL     1       3.708   9.897  -0.597  0.00  0.00    +0.002 A 
ATOM     25  C   UNL     1       3.669   8.521  -0.712  0.00  0.00    +0.024 A 
ATOM     26  C   UNL     1       3.609   7.732   0.429  0.00  0.00    +0.049 A 
BRANCH  21  28
ATOM     27  C   UNL     1       4.925   7.039   3.321  0.00  0.00    +0.009 C 
ATOM     28  C   UNL     1       3.514   7.476   2.922  0.00  0.00    +0.033 C 
ENDBRANCH  21  28
ENDBRANCH   1  26
TORSDOF 4
