REMARK  Name = ZINC39467186
REMARK  4 active torsions:
REMARK  status: ('A' for Active; 'I' for Inactive)
REMARK    1  A    between atoms: C_1  and  O_2
REMARK    2  A    between atoms: O_2  and  C_3
REMARK    3  A    between atoms: P_12  and  C_22
REMARK    4  A    between atoms: C_27  and  O_28
REMARK                            x       y       z     vdW  Elec       q    Type
REMARK                         _______ _______ _______ _____ _____    ______ ____
ROOT
ATOM      1  C   UNL     1      -1.200  -0.637   0.010  0.00  0.00    +0.134 C 
ATOM      2  C   UNL     1      -2.331   0.071   0.019  0.00  0.00    +0.024 C 
ATOM      3  C   UNL     1      -3.660  -0.647   0.017  0.00  0.00    +0.019 C 
ATOM      4  C   UNL     1      -3.986  -1.083   1.446  0.00  0.00    -0.002 C 
ATOM      5  C   UNL     1      -5.264  -1.929   1.472  0.00  0.00    -0.020 C 
ATOM      6  C   UNL     1      -5.514  -2.323   2.933  0.00  0.00    +0.157 C 
ATOM      7  O   UNL     1      -6.735  -3.078   3.026  0.00  0.00    -0.316 OA
ATOM      8  P   UNL     1      -6.924  -4.336   2.010  0.00  0.00    +0.291 P 
ATOM      9  O   UNL     1      -8.360  -4.651   1.844  0.00  0.00    -0.269 OA
ATOM     10  N   UNL     1      -6.278  -3.835   0.577  0.00  0.00    -0.288 NA
ATOM     11  N   UNL     1      -5.105  -3.112   0.622  0.00  0.00    +0.398 N 
ATOM     12  C   UNL     1      -4.827  -2.711  -0.766  0.00  0.00    -0.046 C 
ATOM     13  C   UNL     1      -3.549  -1.887  -0.875  0.00  0.00    +0.006 C 
ATOM     14  C   UNL     1      -2.372  -2.716  -0.439  0.00  0.00    -0.001 C 
ATOM     15  C   UNL     1      -1.261  -2.113   0.003  0.00  0.00    +0.079 C 
ATOM     16 CL   UNL     1       0.101  -3.048   0.534  0.00  0.00    -0.080 Cl
ATOM     17  H   UNL     1      -6.708  -4.045  -0.267  0.00  0.00    +0.111 HD
ATOM     18  H   UNL     1      -4.358  -3.689   0.979  0.00  0.00    -0.055 HD
ENDROOT
BRANCH   8  19
ATOM     19  C   UNL     1      -6.031  -5.787   2.634  0.00  0.00    +0.091 A 
ATOM     20  C   UNL     1      -4.714  -5.996   2.273  0.00  0.00    +0.018 A 
ATOM     21  C   UNL     1      -4.033  -7.102   2.747  0.00  0.00    +0.001 A 
ATOM     22  C   UNL     1      -4.668  -8.001   3.584  0.00  0.00    +0.004 A 
ATOM     23  C   UNL     1      -5.985  -7.796   3.949  0.00  0.00    +0.046 A 
ATOM     24  C   UNL     1      -6.668  -6.684   3.478  0.00  0.00    +0.131 A 
BRANCH  24  25
ATOM     25  O   UNL     1      -7.962  -6.478   3.839  0.00  0.00    -0.506 OA
ATOM     26  H   UNL     1      -8.607  -6.884   3.244  0.00  0.00    +0.292 HD
ENDBRANCH  24  25
ENDBRANCH   8  19
BRANCH   1  28
ATOM     27  C   UNL     1      -0.017   1.425   0.010  0.00  0.00    +0.277 C 
ATOM     28  O   UNL     1       0.002  -0.004   0.002  0.00  0.00    -0.494 OA
ENDBRANCH   1  28
TORSDOF 3
