REMARK  Name = ZINC14642808
REMARK  11 active torsions:
REMARK  status: ('A' for Active; 'I' for Inactive)
REMARK    1  A    between atoms: C_1  and  C_2
REMARK    2  A    between atoms: C_6  and  C_33
REMARK    3  A    between atoms: C_7  and  O_8
REMARK    4  A    between atoms: O_8  and  C_9
REMARK    5  A    between atoms: C_9  and  C_11
REMARK    6  A    between atoms: C_9  and  C_12
REMARK    7  A    between atoms: N_14  and  C_15
REMARK    8  A    between atoms: C_20  and  C_21
REMARK    9  A    between atoms: N_23  and  C_24
REMARK   10  A    between atoms: C_24  and  C_26
REMARK   11  A    between atoms: C_24  and  C_27
REMARK                            x       y       z     vdW  Elec       q    Type
REMARK                         _______ _______ _______ _____ _____    ______ ____
ROOT
ATOM      1  C   UNL     1       1.173   6.573  -0.142  0.00  0.00    +0.046 A 
ATOM      2  C   UNL     1      -0.056   6.883  -0.709  0.00  0.00    +0.024 A 
ATOM      3  C   UNL     1      -0.347   8.186  -1.058  0.00  0.00    +0.002 A 
ATOM      4  C   UNL     1       0.580   9.193  -0.845  0.00  0.00    +0.001 A 
ATOM      5  C   UNL     1       1.805   8.904  -0.283  0.00  0.00    +0.015 A 
ATOM      6  C   UNL     1       2.112   7.591   0.079  0.00  0.00    +0.058 A 
ENDROOT
BRANCH   1   9
ATOM      7  C   UNL     1       0.985   4.238  -0.525  0.00  0.00    +0.258 C 
ATOM      8  O   UNL     1       0.386   4.463  -1.555  0.00  0.00    -0.271 OA
ATOM      9  N   UNL     1       1.470   5.258   0.210  0.00  0.00    -0.282 N 
ATOM     10  H   UNL     1       2.025   5.077   0.984  0.00  0.00    +0.155 HD
BRANCH   7  11
ATOM     11  C   UNL     1       1.187   2.817  -0.067  0.00  0.00    +0.256 C 
ATOM     12  C   UNL     1       0.432   2.591   1.245  0.00  0.00    +0.062 C 
BRANCH  11  13
ATOM     13  O   UNL     1       0.690   1.920  -1.062  0.00  0.00    -0.479 OA
BRANCH  13  20
ATOM     14  C   UNL     1       3.122   1.605  -2.464  0.00  0.00    +0.047 C 
ATOM     15  C   UNL     1       2.429   0.460  -1.773  0.00  0.00    -0.007 A 
ATOM     16  C   UNL     1       2.984  -0.805  -1.804  0.00  0.00    +0.022 A 
ATOM     17  C   UNL     1       2.345  -1.858  -1.175  0.00  0.00    +0.019 A 
ATOM     18  C   UNL     1       1.152  -1.646  -0.507  0.00  0.00    +0.022 A 
ATOM     19  C   UNL     1       0.596  -0.382  -0.468  0.00  0.00    -0.007 A 
ATOM     20  C   UNL     1       1.235   0.675  -1.099  0.00  0.00    +0.127 A 
ATOM     21  C   UNL     1      -0.704  -0.152   0.258  0.00  0.00    +0.047 C 
ATOM     22 BR   UNL     1       3.104  -3.590  -1.226  0.00  0.00    -0.050 Br
ENDBRANCH  13  20
ENDBRANCH  11  13
ENDBRANCH   7  11
ENDBRANCH   1   9
BRANCH   6  23
ATOM     23  C   UNL     1       3.419   7.275   0.686  0.00  0.00    +0.246 C 
ATOM     24  O   UNL     1       3.726   6.119   0.902  0.00  0.00    -0.270 OA
ATOM     25  N   UNL     1       4.273   8.269   1.002  0.00  0.00    -0.305 N 
ATOM     26  H   UNL     1       4.029   9.192   0.829  0.00  0.00    +0.150 HD
BRANCH  25  27
ATOM     27  C   UNL     1       5.571   7.956   1.605  0.00  0.00    +0.100 C 
ATOM     28  C   UNL     1       6.582   7.635   0.502  0.00  0.00    +0.033 C 
BRANCH  27  29
ATOM     29  C   UNL     1       6.055   9.141   2.400  0.00  0.00    -0.027 A 
ATOM     30  C   UNL     1       5.880  10.421   1.909  0.00  0.00    +0.005 A 
ATOM     31  C   UNL     1       6.320  11.508   2.640  0.00  0.00    +0.000 A 
ATOM     32  C   UNL     1       6.942  11.315   3.859  0.00  0.00    +0.000 A 
ATOM     33  C   UNL     1       7.121  10.035   4.349  0.00  0.00    +0.000 A 
ATOM     34  C   UNL     1       6.678   8.948   3.619  0.00  0.00    +0.005 A 
ENDBRANCH  27  29
ENDBRANCH  25  27
ENDBRANCH   6  23
TORSDOF 7
