REMARK  Name = ZINC13121295
REMARK  5 active torsions:
REMARK  status: ('A' for Active; 'I' for Inactive)
REMARK    1  A    between atoms: C_12  and  C_14
REMARK    2  A    between atoms: C_14  and  S_15
REMARK    3  A    between atoms: S_15  and  C_16
REMARK    4  A    between atoms: C_19  and  C_21
REMARK    5  A    between atoms: C_21  and  C_22
REMARK                            x       y       z     vdW  Elec       q    Type
REMARK                         _______ _______ _______ _____ _____    ______ ____
ROOT
ATOM      1  C   UNL     1      -1.221   1.761   0.017  0.00  0.00    +0.005 A 
ATOM      2  C   UNL     1      -0.013   1.076   0.008  0.00  0.00    +0.018 A 
ATOM      3  C   UNL     1       1.169   1.789   0.001  0.00  0.00    +0.084 A 
ATOM      4  C   UNL     1       0.033   3.798   0.021  0.00  0.00    +0.099 A 
ATOM      5  C   UNL     1      -1.195   3.144   0.029  0.00  0.00    +0.042 A 
ATOM      6  N   UNL     1       0.073   5.187   0.028  0.00  0.00    -0.314 N 
ATOM      7  C   UNL     1      -0.695   5.742  -1.095  0.00  0.00    +0.125 C 
ATOM      8  C   UNL     1      -0.777   7.265  -0.950  0.00  0.00    +0.126 C 
ATOM      9  N   UNL     1       0.587   7.796  -0.807  0.00  0.00    -0.298 N 
ATOM     10  C   UNL     1       1.465   7.194   0.209  0.00  0.00    +0.126 C 
ATOM     11  C   UNL     1       1.459   5.674   0.018  0.00  0.00    +0.125 C 
ATOM     12  C   UNL     1       1.021   8.806  -1.585  0.00  0.00    +0.226 C 
ATOM     13  O   UNL     1       2.149   9.232  -1.454  0.00  0.00    -0.275 OA
ATOM     14  N   UNL     1       1.232   3.147   0.007  0.00  0.00    -0.350 N 
ATOM     15  H   UNL     1       2.126   3.652   0.001  0.00  0.00    +0.166 HD
ENDROOT
BRANCH  12  16
ATOM     16  C   UNL     1       0.105   9.408  -2.620  0.00  0.00    +0.174 C 
BRANCH  16  17
ATOM     17  S   UNL     1       0.972  10.733  -3.496  0.00  0.00    -0.056 S 
BRANCH  17  18
ATOM     18  C   UNL     1      -0.294  11.243  -4.610  0.00  0.00    +0.278 A 
ATOM     19  N   UNL     1      -1.498  10.733  -4.705  0.00  0.00    -0.101 NA
ATOM     20  N   UNL     1      -2.152  11.354  -5.622  0.00  0.00    -0.112 NA
ATOM     21  C   UNL     1      -1.396  12.270  -6.152  0.00  0.00    +0.219 A 
ATOM     22  O   UNL     1      -0.203  12.224  -5.527  0.00  0.00    -0.416 OA
BRANCH  21  23
ATOM     23  C   UNL     1      -1.784  13.211  -7.263  0.00  0.00    +0.103 C 
BRANCH  23  24
ATOM     24  C   UNL     1      -2.388  14.484  -6.666  0.00  0.00    +0.020 C 
ATOM     25  C   UNL     1      -2.671  15.499  -7.785  0.00  0.00    +0.028 C 
ATOM     26  C   UNL     1      -3.564  16.643  -7.247  0.00  0.00    +0.166 C 
ATOM     27  S   UNL     1      -4.509  15.818  -5.902  0.00  0.00    -0.031 S 
ATOM     28  O   UNL     1      -4.182  16.432  -4.663  0.00  0.00    -0.174 OA
ATOM     29  O   UNL     1      -5.872  15.713  -6.292  0.00  0.00    -0.174 OA
ATOM     30  C   UNL     1      -3.736  14.147  -5.966  0.00  0.00    +0.170 C 
ENDBRANCH  23  24
ENDBRANCH  21  23
ENDBRANCH  17  18
ENDBRANCH  16  17
ENDBRANCH  12  16
TORSDOF 5
