REMARK  Name = ZINC38682536
REMARK  8 active torsions:
REMARK  status: ('A' for Active; 'I' for Inactive)
REMARK    1  A    between atoms: C_1  and  S_2
REMARK    2  A    between atoms: S_2  and  C_3
REMARK    3  A    between atoms: C_6  and  C_9
REMARK    4  A    between atoms: C_14  and  O_23
REMARK    5  A    between atoms: C_18  and  N_22
REMARK    6  A    between atoms: C_19  and  C_20
REMARK    7  A    between atoms: O_23  and  C_24
REMARK    8  A    between atoms: C_24  and  C_26
REMARK                            x       y       z     vdW  Elec       q    Type
REMARK                         _______ _______ _______ _____ _____    ______ ____
ROOT
ATOM      1  C   UNL     1       2.854  -1.352  -5.098  0.00  0.00    +0.098 C 
ATOM      2  C   UNL     1       1.956  -2.169  -5.988  0.00  0.00    +0.008 A 
ATOM      3  C   UNL     1       0.887  -1.559  -6.621  0.00  0.00    +0.012 A 
ATOM      4  C   UNL     1       0.053  -2.292  -7.441  0.00  0.00    +0.047 A 
ATOM      5  C   UNL     1       0.285  -3.647  -7.633  0.00  0.00    +0.135 A 
ATOM      6  C   UNL     1       1.353  -4.261  -7.001  0.00  0.00    +0.093 A 
ATOM      7  C   UNL     1       2.192  -3.522  -6.176  0.00  0.00    +0.138 A 
ATOM      8  O   UNL     1       3.234  -4.138  -5.565  0.00  0.00    -0.441 OA
ATOM      9  C   UNL     1       4.259  -3.410  -5.093  0.00  0.00    +0.199 C 
ATOM     10  C   UNL     1       4.142  -2.086  -4.851  0.00  0.00    +0.098 C 
ENDROOT
BRANCH   1  14
ATOM     11  C   UNL     1       0.889  -0.647  -1.368  0.00  0.00    +0.008 A 
ATOM     12  C   UNL     1       1.266   0.424  -2.170  0.00  0.00    +0.015 A 
ATOM     13  C   UNL     1       1.901   0.192  -3.374  0.00  0.00    +0.005 A 
ATOM     14  C   UNL     1       2.161  -1.104  -3.783  0.00  0.00    -0.035 A 
ATOM     15  C   UNL     1       1.787  -2.171  -2.987  0.00  0.00    +0.005 A 
ATOM     16  C   UNL     1       1.158  -1.947  -1.778  0.00  0.00    +0.015 A 
BRANCH  11  18
ATOM     17  C   UNL     1      -0.047   1.451   0.264  0.00  0.00    +0.090 C 
ATOM     18  S   UNL     1       0.079  -0.356   0.170  0.00  0.00    -0.129 S 
ENDBRANCH  11  18
ENDBRANCH   1  14
BRANCH   9  19
ATOM     19  N   UNL     1       5.460  -4.029  -4.849  0.00  0.00    -0.328 N 
ATOM     20  H   UNL     1       5.558  -4.980  -5.018  0.00  0.00    +0.145 HD
ATOM     21  H   UNL     1       6.209  -3.517  -4.508  0.00  0.00    +0.145 HD
ENDBRANCH   9  19
BRANCH  10  22
ATOM     22  C   UNL     1       5.274  -1.367  -4.348  0.00  0.00    +0.101 C 
ATOM     23  N   UNL     1       6.172  -0.796  -3.949  0.00  0.00    -0.191 NA
ENDBRANCH  10  22
BRANCH   5  24
ATOM     24  O   UNL     1      -0.536  -4.371  -8.440  0.00  0.00    -0.422 OA
BRANCH  24  25
ATOM     25  C   UNL     1      -0.495  -4.127  -9.765  0.00  0.00    +0.347 C 
ATOM     26  O   UNL     1       0.331  -3.359 -10.216  0.00  0.00    -0.244 OA
BRANCH  25  27
ATOM     27  C   UNL     1      -1.454  -4.794 -10.667  0.00  0.00    +0.094 A 
ATOM     28  C   UNL     1      -2.409  -5.673 -10.150  0.00  0.00    +0.018 A 
ATOM     29  C   UNL     1      -3.302  -6.292 -10.999  0.00  0.00    +0.001 A 
ATOM     30  C   UNL     1      -3.255  -6.046 -12.361  0.00  0.00    +0.003 A 
ATOM     31  C   UNL     1      -2.314  -5.177 -12.881  0.00  0.00    +0.039 A 
ATOM     32  C   UNL     1      -1.415  -4.544 -12.042  0.00  0.00    +0.137 A 
ATOM     33  F   UNL     1      -0.499  -3.691 -12.551  0.00  0.00    -0.205 F 
ENDBRANCH  25  27
ENDBRANCH  24  25
ENDBRANCH   5  24
TORSDOF 7
