REMARK  Name = ZINC63824951
REMARK  9 active torsions:
REMARK  status: ('A' for Active; 'I' for Inactive)
REMARK    1  A    between atoms: C_1  and  C_2
REMARK    2  A    between atoms: N_4  and  C_5
REMARK    3  A    between atoms: C_5  and  C_6
REMARK    4  A    between atoms: C_10  and  C_12
REMARK    5  A    between atoms: C_12  and  C_14
REMARK    6  A    between atoms: C_14  and  S_15
REMARK    7  A    between atoms: S_15  and  C_16
REMARK    8  A    between atoms: C_19  and  C_24
REMARK    9  A    between atoms: N_20  and  C_21
REMARK                            x       y       z     vdW  Elec       q    Type
REMARK                         _______ _______ _______ _____ _____    ______ ____
ROOT
ATOM      1  C   UNL     1       3.894  -6.839  -8.306  0.00  0.00    +0.193 A 
ATOM      2  N   UNL     1       3.218  -7.862  -7.805  0.00  0.00    -0.122 NA
ATOM      3  N   UNL     1       3.668  -8.966  -8.284  0.00  0.00    -0.129 NA
ATOM      4  C   UNL     1       4.663  -8.718  -9.123  0.00  0.00    +0.163 A 
ATOM      5  N   UNL     1       4.826  -7.344  -9.160  0.00  0.00    -0.299 N 
ENDROOT
BRANCH   4   6
ATOM      6  C   UNL     1       5.406  -9.667  -9.842  0.00  0.00    +0.025 C 
ATOM      7  C   UNL     1       5.246 -11.053  -9.824  0.00  0.00    +0.006 A 
ATOM      8  C   UNL     1       4.355 -11.901  -9.133  0.00  0.00    +0.010 A 
ATOM      9  C   UNL     1       4.428 -13.245  -9.312  0.00  0.00    +0.001 A 
ATOM     10  C   UNL     1       5.371 -13.818 -10.168  0.00  0.00    +0.002 A 
ATOM     11  C   UNL     1       6.258 -13.065 -10.863  0.00  0.00    +0.026 A 
ATOM     12  C   UNL     1       6.241 -11.652 -10.729  0.00  0.00    +0.043 A 
ATOM     13  N   UNL     1       6.983 -10.714 -11.285  0.00  0.00    -0.380 N 
ATOM     14  C   UNL     1       6.543  -9.401 -10.804  0.00  0.00    +0.152 C 
ATOM     15  H   UNL     1       7.703 -10.869 -11.916  0.00  0.00    +0.160 HD
ENDBRANCH   4   6
BRANCH   5  16
ATOM     16  C   UNL     1       5.802  -6.591  -9.951  0.00  0.00    +0.091 C 
ATOM     17  C   UNL     1       6.069  -5.139  -9.547  0.00  0.00    +0.027 C 
ATOM     18  C   UNL     1       5.275  -5.446 -10.819  0.00  0.00    +0.027 C 
ENDBRANCH   5  16
BRANCH   1  19
ATOM     19  S   UNL     1       3.631  -5.135  -7.941  0.00  0.00    -0.078 S 
BRANCH  19  20
ATOM     20  C   UNL     1       2.264  -5.149  -6.748  0.00  0.00    +0.157 C 
BRANCH  20  21
ATOM     21  C   UNL     1       1.934  -3.734  -6.347  0.00  0.00    +0.179 C 
ATOM     22  O   UNL     1       2.559  -2.808  -6.819  0.00  0.00    -0.291 OA
BRANCH  21  26
ATOM     23  C   UNL     1      -1.279  -2.421  -4.008  0.00  0.00    +0.072 C 
ATOM     24  C   UNL     1      -0.966  -3.927  -3.813  0.00  0.00    +0.044 C 
ATOM     25  C   UNL     1       0.079  -4.384  -4.779  0.00  0.00    -0.008 C 
ATOM     26  C   UNL     1       0.855  -3.477  -5.385  0.00  0.00    +0.048 C 
ATOM     27  S   UNL     1       0.306  -1.889  -4.781  0.00  0.00    -0.117 S 
BRANCH  23  28
ATOM     28  C   UNL     1      -1.512  -1.719  -2.669  0.00  0.00    +0.119 C 
BRANCH  28  32
ATOM     29  C   UNL     1      -2.114   2.016  -2.086  0.00  0.00    +0.109 C 
ATOM     30  C   UNL     1      -1.922   0.540  -1.852  0.00  0.00    +0.210 C 
ATOM     31  O   UNL     1      -1.966   0.093  -0.726  0.00  0.00    -0.276 OA
ATOM     32  N   UNL     1      -1.700  -0.284  -2.896  0.00  0.00    -0.314 N 
ATOM     33  H   UNL     1      -1.664   0.073  -3.797  0.00  0.00    +0.149 HD
ENDBRANCH  28  32
ENDBRANCH  23  28
ENDBRANCH  21  26
ENDBRANCH  20  21
ENDBRANCH  19  20
ENDBRANCH   1  19
TORSDOF 8
