REMARK  Name = ZINC65375300
REMARK  8 active torsions:
REMARK  status: ('A' for Active; 'I' for Inactive)
REMARK    1  A    between atoms: C_1  and  C_2
REMARK    2  A    between atoms: C_4  and  C_24
REMARK    3  A    between atoms: C_6  and  O_22
REMARK    4  A    between atoms: C_7  and  C_8
REMARK    5  A    between atoms: C_8  and  N_9
REMARK    6  A    between atoms: C_10  and  C_12
REMARK    7  A    between atoms: N_19  and  C_21
REMARK    8  A    between atoms: O_22  and  C_23
REMARK                            x       y       z     vdW  Elec       q    Type
REMARK                         _______ _______ _______ _____ _____    ______ ____
ROOT
ATOM      1  N   UNL     1      -1.354   0.215   2.954  0.00  0.00    -0.306 N 
ATOM      2  C   UNL     1      -1.598   0.844   4.121  0.00  0.00    +0.264 C 
ATOM      3  O   UNL     1      -0.673   1.233   4.807  0.00  0.00    -0.268 OA
ATOM      4  H   UNL     1      -2.093  -0.096   2.407  0.00  0.00    +0.149 HD
ENDROOT
BRANCH   2   5
ATOM      5  C   UNL     1      -2.990   1.059   4.567  0.00  0.00    +0.147 A 
ATOM      6  C   UNL     1      -3.402   1.705   5.759  0.00  0.00    +0.055 A 
ATOM      7  C   UNL     1      -4.746   1.667   5.738  0.00  0.00    +0.023 A 
ATOM      8  N   UNL     1      -5.122   1.031   4.599  0.00  0.00    -0.271 N 
ATOM      9  N   UNL     1      -4.085   0.693   3.928  0.00  0.00    -0.166 NA
ATOM     10  C   UNL     1      -6.531   0.799   4.246  0.00  0.00    +0.125 C 
ATOM     11  C   UNL     1      -7.378   1.001   5.508  0.00  0.00    -0.055 C 
ATOM     12  N   UNL     1      -7.046   2.290   6.131  0.00  0.00    +0.383 N 
ATOM     13  C   UNL     1      -5.714   2.212   6.756  0.00  0.00    -0.023 C 
ATOM     14  C   UNL     1      -8.049   2.610   7.155  0.00  0.00    -0.096 C 
ATOM     15  H   UNL     1      -7.044   3.012   5.426  0.00  0.00    -0.082 HD
ENDBRANCH   2   5
BRANCH   1  16
ATOM     16  C   UNL     1       0.026   0.001   2.512  0.00  0.00    +0.145 C 
BRANCH  16  23
ATOM     17  C   UNL     1      -0.018   1.503   0.010  0.00  0.00    +0.044 C 
ATOM     18  C   UNL     1       0.002  -0.004   0.002  0.00  0.00    -0.039 A 
ATOM     19  C   UNL     1       0.006  -0.708  -1.195  0.00  0.00    +0.027 A 
ATOM     20  C   UNL     1       0.025  -2.087  -1.167  0.00  0.00    +0.042 A 
ATOM     21  N   UNL     1       0.040  -2.741  -0.021  0.00  0.00    -0.218 NA
ATOM     22  C   UNL     1       0.036  -2.106   1.140  0.00  0.00    +0.220 A 
ATOM     23  C   UNL     1       0.023  -0.718   1.187  0.00  0.00    +0.034 A 
ATOM     24  C   UNL     1       0.030  -2.858  -2.462  0.00  0.00    +0.066 C 
BRANCH  22  25
ATOM     25  O   UNL     1       0.051  -2.818   2.295  0.00  0.00    -0.479 OA
ATOM     26  C   UNL     1       0.070  -4.242   2.179  0.00  0.00    +0.279 C 
ENDBRANCH  22  25
ENDBRANCH  16  23
ENDBRANCH   1  16
TORSDOF 4
