REMARK  Name = ZINC24248201
REMARK  3 active torsions:
REMARK  status: ('A' for Active; 'I' for Inactive)
REMARK    1  A    between atoms: C_8  and  N_13
REMARK    2  A    between atoms: C_14  and  C_16
REMARK    3  A    between atoms: C_16  and  N_17
REMARK                            x       y       z     vdW  Elec       q    Type
REMARK                         _______ _______ _______ _____ _____    ______ ____
ROOT
ATOM      1  N   UNL     1       3.439  -2.033  -0.754  0.00  0.00    -0.307 N 
ATOM      2  C   UNL     1       2.851  -3.106  -0.189  0.00  0.00    +0.231 C 
ATOM      3  O   UNL     1       2.507  -3.066   0.973  0.00  0.00    -0.274 OA
ATOM      4  H   UNL     1       3.714  -2.064  -1.684  0.00  0.00    +0.149 HD
ENDROOT
BRANCH   1  12
ATOM      5  C   UNL     1      -0.017   1.380   0.010  0.00  0.00    +0.021 A 
ATOM      6  C   UNL     1       1.173   2.075   0.002  0.00  0.00    +0.016 A 
ATOM      7  C   UNL     1       2.392   1.395  -0.007  0.00  0.00    +0.013 A 
ATOM      8  C   UNL     1       2.414   0.013  -0.000  0.00  0.00    -0.012 A 
ATOM      9  C   UNL     1       1.205  -0.678  -0.004  0.00  0.00    +0.026 A 
ATOM     10  C   UNL     1       0.002  -0.004   0.002  0.00  0.00    +0.041 A 
ATOM     11 CL   UNL     1      -1.490  -0.892   0.001  0.00  0.00    -0.084 Cl
ATOM     12  C   UNL     1       3.663  -0.819   0.035  0.00  0.00    +0.105 C 
ATOM     13  C   UNL     1       4.887  -0.106  -0.512  0.00  0.00    +0.038 C 
ATOM     14  C   UNL     1       5.168   1.138   0.344  0.00  0.00    +0.076 C 
ATOM     15  S   UNL     1       3.873   2.354  -0.037  0.00  0.00    -0.125 S 
ENDBRANCH   1  12
BRANCH   2  16
ATOM     16  C   UNL     1       2.621  -4.354  -1.001  0.00  0.00    +0.213 C 
BRANCH  16  17
ATOM     17  N   UNL     1       1.973  -5.367  -0.166  0.00  0.00    -0.215 N 
ATOM     18  C   UNL     1       2.638  -6.275   0.581  0.00  0.00    +0.247 C 
ATOM     19  O   UNL     1       3.839  -6.404   0.685  0.00  0.00    -0.273 OA
ATOM     20  C   UNL     1       1.569  -7.094   1.258  0.00  0.00    +0.113 C 
ATOM     21  C   UNL     1       1.683  -6.997   2.785  0.00  0.00    +0.035 C 
ATOM     22  C   UNL     1       1.265  -8.405   3.283  0.00  0.00    +0.003 C 
ATOM     23  C   UNL     1       1.869  -9.344   2.208  0.00  0.00    +0.003 C 
ATOM     24  C   UNL     1       1.681  -8.574   0.882  0.00  0.00    +0.035 C 
ATOM     25  N   UNL     1       0.310  -6.516   0.784  0.00  0.00    -0.285 N 
ATOM     26  C   UNL     1       0.646  -5.506  -0.042  0.00  0.00    +0.310 C 
ATOM     27  O   UNL     1      -0.163  -4.801  -0.614  0.00  0.00    -0.252 OA
ATOM     28  H   UNL     1      -0.587  -6.801   1.020  0.00  0.00    +0.151 HD
ENDBRANCH  16  17
ENDBRANCH   2  16
TORSDOF 3
