REMARK  Name = ZINC37967670
REMARK  8 active torsions:
REMARK  status: ('A' for Active; 'I' for Inactive)
REMARK    1  A    between atoms: C_1  and  C_2
REMARK    2  A    between atoms: C_2  and  C_3
REMARK    3  A    between atoms: C_2  and  C_13
REMARK    4  A    between atoms: C_2  and  N_17
REMARK    5  A    between atoms: C_13  and  O_15
REMARK    6  A    between atoms: O_15  and  C_16
REMARK    7  A    between atoms: N_17  and  C_18
REMARK    8  A    between atoms: C_18  and  C_19
REMARK                            x       y       z     vdW  Elec       q    Type
REMARK                         _______ _______ _______ _____ _____    ______ ____
ROOT
ATOM      1  C   UNL     1      -0.019   1.526   0.010  0.00  0.00    +0.010 C 
ATOM      2  C   UNL     1       0.002  -0.004   0.002  0.00  0.00    +0.087 C 
ENDROOT
BRANCH   2   3
ATOM      3  C   UNL     1       0.731  -0.503   1.223  0.00  0.00    +0.106 A 
ATOM      4  C   UNL     1       2.006  -0.221   1.524  0.00  0.00    +0.052 A 
ATOM      5  C   UNL     1       2.290  -0.911   2.788  0.00  0.00    +0.021 A 
ATOM      6  C   UNL     1       3.410  -1.015   3.611  0.00  0.00    +0.027 A 
ATOM      7  C   UNL     1       3.341  -1.766   4.764  0.00  0.00    +0.019 A 
ATOM      8  C   UNL     1       2.163  -2.417   5.105  0.00  0.00    +0.019 A 
ATOM      9  C   UNL     1       1.049  -2.322   4.299  0.00  0.00    +0.048 A 
ATOM     10  C   UNL     1       1.098  -1.569   3.133  0.00  0.00    +0.135 A 
ATOM     11  O   UNL     1       0.195  -1.292   2.171  0.00  0.00    -0.461 OA
ATOM     12 BR   UNL     1       4.856  -1.911   5.886  0.00  0.00    -0.050 Br
ENDBRANCH   2   3
BRANCH   2  13
ATOM     13  N   UNL     1      -1.376  -0.512   0.012  0.00  0.00    +0.395 N 
ATOM     14  H   UNL     1      -1.362  -1.521   0.007  0.00  0.00    -0.084 HD
ATOM     15  H   UNL     1      -1.848  -0.187   0.843  0.00  0.00    -0.084 HD
BRANCH  13  16
ATOM     16  C   UNL     1      -2.087  -0.026  -1.178  0.00  0.00    -0.077 C 
BRANCH  16  17
ATOM     17  C   UNL     1      -3.522  -0.555  -1.167  0.00  0.00    -0.028 C 
ATOM     18  C   UNL     1      -3.935  -1.499  -2.298  0.00  0.00    +0.002 C 
ATOM     19  C   UNL     1      -4.465  -0.064  -2.267  0.00  0.00    +0.002 C 
ENDBRANCH  16  17
ENDBRANCH  13  16
ENDBRANCH   2  13
BRANCH   2  20
ATOM     20  C   UNL     1       0.707  -0.490  -1.238  0.00  0.00    +0.303 C 
ATOM     21  O   UNL     1       1.518   0.217  -1.788  0.00  0.00    -0.252 OA
BRANCH  20  22
ATOM     22  O   UNL     1       0.435  -1.708  -1.731  0.00  0.00    -0.469 OA
ATOM     23  C   UNL     1       1.140  -2.104  -2.909  0.00  0.00    +0.280 C 
ENDBRANCH  20  22
ENDBRANCH   2  20
TORSDOF 6
