REMARK  Name = ZINC67466617
REMARK  10 active torsions:
REMARK  status: ('A' for Active; 'I' for Inactive)
REMARK    1  A    between atoms: C_1  and  C_2
REMARK    2  A    between atoms: C_2  and  C_3
REMARK    3  A    between atoms: C_2  and  N_4
REMARK    4  A    between atoms: C_5  and  C_7
REMARK    5  A    between atoms: C_11  and  C_13
REMARK    6  A    between atoms: C_13  and  N_14
REMARK    7  A    between atoms: N_21  and  C_24
REMARK    8  A    between atoms: C_24  and  C_25
REMARK    9  A    between atoms: C_24  and  C_26
REMARK   10  A    between atoms: C_24  and  C_27
REMARK                            x       y       z     vdW  Elec       q    Type
REMARK                         _______ _______ _______ _____ _____    ______ ____
ROOT
ATOM      1  N   UNL     1      10.068  -1.470  -4.452  0.00  0.00    -0.295 N 
ATOM      2  C   UNL     1       9.059  -0.602  -4.668  0.00  0.00    +0.302 C 
ATOM      3  O   UNL     1       7.914  -1.005  -4.732  0.00  0.00    -0.253 OA
ATOM      4  N   UNL     1       9.320   0.713  -4.811  0.00  0.00    -0.287 N 
ATOM      5  C   UNL     1       8.188   1.655  -4.925  0.00  0.00    +0.107 C 
ATOM      6  C   UNL     1       8.448   2.933  -4.108  0.00  0.00    +0.000 C 
ATOM      7  C   UNL     1       9.110   2.567  -2.798  0.00  0.00    -0.076 C 
ATOM      8  N   UNL     1      10.561   2.657  -2.949  0.00  0.00    +0.384 N 
ATOM      9  C   UNL     1      11.185   1.479  -3.417  0.00  0.00    -0.059 C 
ATOM     10  C   UNL     1      10.700   1.151  -4.843  0.00  0.00    +0.091 C 
ATOM     11  H   UNL     1      10.987  -1.160  -4.472  0.00  0.00    +0.151 HD
ATOM     12  H   UNL     1      10.768   3.405  -3.594  0.00  0.00    -0.081 HD
ENDROOT
BRANCH   8  13
ATOM     13  C   UNL     1      11.142   3.002  -1.645  0.00  0.00    -0.074 C 
ATOM     14  C   UNL     1      10.704   1.972  -0.602  0.00  0.00    -0.010 C 
ATOM     15  C   UNL     1      12.669   3.002  -1.751  0.00  0.00    -0.010 C 
ATOM     16  C   UNL     1      10.660   4.391  -1.223  0.00  0.00    -0.010 C 
ENDBRANCH   8  13
BRANCH   1  17
ATOM     17  C   UNL     1       9.776  -2.881  -4.189  0.00  0.00    +0.141 C 
BRANCH  17  22
ATOM     18  C   UNL     1      12.904  -4.899  -4.872  0.00  0.00    +0.037 A 
ATOM     19  C   UNL     1      13.442  -5.009  -3.588  0.00  0.00    +0.013 A 
ATOM     20  C   UNL     1      12.791  -4.431  -2.518  0.00  0.00    +0.001 A 
ATOM     21  C   UNL     1      11.606  -3.744  -2.715  0.00  0.00    +0.005 A 
ATOM     22  C   UNL     1      11.067  -3.631  -3.984  0.00  0.00    -0.030 A 
ATOM     23  C   UNL     1      11.712  -4.199  -5.064  0.00  0.00    +0.018 A 
BRANCH  18  25
ATOM     24  N   UNL     1      14.748  -6.189  -5.834  0.00  0.00    -0.309 N 
ATOM     25  C   UNL     1      13.597  -5.515  -6.023  0.00  0.00    +0.244 C 
ATOM     26  O   UNL     1      13.129  -5.413  -7.140  0.00  0.00    -0.270 OA
ATOM     27  H   UNL     1      15.122  -6.271  -4.943  0.00  0.00    +0.149 HD
BRANCH  24  29
ATOM     28  C   UNL     1      16.328  -5.757  -7.650  0.00  0.00    +0.027 C 
ATOM     29  C   UNL     1      15.435  -6.800  -6.975  0.00  0.00    +0.067 C 
ATOM     30  C   UNL     1      16.294  -7.968  -6.487  0.00  0.00    +0.027 C 
ENDBRANCH  24  29
ENDBRANCH  18  25
ENDBRANCH  17  22
ENDBRANCH   1  17
TORSDOF 5
