REMARK  Name = ZINC10233205
REMARK  10 active torsions:
REMARK  status: ('A' for Active; 'I' for Inactive)
REMARK    1  A    between atoms: C_1  and  C_2
REMARK    2  A    between atoms: C_2  and  N_56
REMARK    3  A    between atoms: C_3  and  C_4
REMARK    4  A    between atoms: C_3  and  N_56
REMARK    5  A    between atoms: C_5  and  C_6
REMARK    6  A    between atoms: C_5  and  N_56
REMARK    7  A    between atoms: C_6  and  N_7
REMARK    8  A    between atoms: C_8  and  C_25
REMARK    9  A    between atoms: C_16  and  O_23
REMARK   10  A    between atoms: O_23  and  C_24
REMARK                            x       y       z     vdW  Elec       q    Type
REMARK                         _______ _______ _______ _____ _____    ______ ____
ROOT
ATOM      1  N   UNL     1       0.815  -3.773   3.003  0.00  0.00    -0.285 N 
ATOM      2  C   UNL     1      -0.305  -4.308   3.785  0.00  0.00    +0.144 C 
ATOM      3  C   UNL     1      -0.175  -5.808   3.725  0.00  0.00    +0.072 A 
ATOM      4  C   UNL     1      -0.974  -6.898   4.294  0.00  0.00    +0.199 A 
ATOM      5  O   UNL     1      -1.968  -6.679   4.964  0.00  0.00    -0.287 OA
ATOM      6  C   UNL     1      -0.514  -8.271   4.016  0.00  0.00    +0.065 A 
ATOM      7  C   UNL     1      -1.200  -9.381   4.511  0.00  0.00    +0.019 A 
ATOM      8  C   UNL     1      -0.743 -10.637   4.233  0.00  0.00    +0.046 A 
ATOM      9  C   UNL     1       0.403 -10.813   3.459  0.00  0.00    +0.124 A 
ATOM     10  C   UNL     1       1.093  -9.722   2.961  0.00  0.00    +0.092 A 
ATOM     11  C   UNL     1       0.644  -8.436   3.234  0.00  0.00    +0.143 A 
ATOM     12  O   UNL     1       1.304  -7.365   2.758  0.00  0.00    -0.449 OA
ATOM     13  C   UNL     1       0.924  -6.092   2.985  0.00  0.00    +0.199 A 
ATOM     14  C   UNL     1       1.532  -4.812   2.541  0.00  0.00    +0.283 C 
ATOM     15  O   UNL     1       2.533  -4.718   1.859  0.00  0.00    -0.267 OA
ENDROOT
BRANCH   2  16
ATOM     16  C   UNL     1      -1.615  -3.880   3.175  0.00  0.00    -0.022 A 
ATOM     17  C   UNL     1      -1.764  -3.859   1.801  0.00  0.00    +0.008 A 
ATOM     18  C   UNL     1      -2.966  -3.471   1.241  0.00  0.00    +0.038 A 
ATOM     19  C   UNL     1      -4.019  -3.092   2.057  0.00  0.00    +0.123 A 
ATOM     20  C   UNL     1      -3.868  -3.109   3.433  0.00  0.00    +0.038 A 
ATOM     21  C   UNL     1      -2.666  -3.502   3.991  0.00  0.00    +0.008 A 
ATOM     22  F   UNL     1      -5.193  -2.708   1.511  0.00  0.00    -0.205 F 
ENDBRANCH   2  16
BRANCH   9  23
ATOM     23  O   UNL     1       0.846 -12.068   3.191  0.00  0.00    -0.495 OA
ATOM     24  C   UNL     1       0.089 -13.153   3.732  0.00  0.00    +0.277 C 
ENDBRANCH   9  23
BRANCH   1  25
ATOM     25  C   UNL     1       1.105  -2.356   2.771  0.00  0.00    +0.090 C 
BRANCH  25  26
ATOM     26  C   UNL     1       0.396  -1.891   1.498  0.00  0.00    -0.060 C 
BRANCH  26  27
ATOM     27  N   UNL     1       0.810  -0.503   1.204  0.00  0.00    +0.380 N 
ATOM     28  H   UNL     1       1.820  -0.416   1.365  0.00  0.00    -0.082 HD
BRANCH  27  30
ATOM     29  C   UNL     1       0.704   1.831   1.927  0.00  0.00    -0.017 C 
ATOM     30  C   UNL     1       0.098   0.436   2.095  0.00  0.00    -0.082 C 
ENDBRANCH  27  30
BRANCH  27  31
ATOM     31  C   UNL     1       0.520  -0.178  -0.209  0.00  0.00    -0.082 C 
ATOM     32  C   UNL     1       1.532  -0.902  -1.098  0.00  0.00    -0.017 C 
ENDBRANCH  27  31
ENDBRANCH  26  27
ENDBRANCH  25  26
ENDBRANCH   1  25
TORSDOF 7
