REMARK  Name = ZINC67298513
REMARK  7 active torsions:
REMARK  status: ('A' for Active; 'I' for Inactive)
REMARK    1  A    between atoms: C_1  and  C_2
REMARK    2  A    between atoms: C_5  and  C_30
REMARK    3  A    between atoms: C_6  and  N_8
REMARK    4  A    between atoms: C_10  and  C_20
REMARK    5  A    between atoms: C_15  and  O_19
REMARK    6  A    between atoms: N_22  and  C_23
REMARK    7  A    between atoms: C_23  and  C_24
REMARK                            x       y       z     vdW  Elec       q    Type
REMARK                         _______ _______ _______ _____ _____    ______ ____
ROOT
ATOM      1  N   UNL     1       0.110  -2.815   2.354  0.00  0.00    -0.325 N 
ATOM      2  C   UNL     1       0.187  -2.161   3.493  0.00  0.00    +0.212 A 
ATOM      3  C   UNL     1       0.293  -2.877   4.779  0.00  0.00    +0.097 A 
ATOM      4  C   UNL     1       0.893  -2.206   5.836  0.00  0.00    +0.030 A 
ATOM      5  C   UNL     1       1.333  -0.875   5.620  0.00  0.00    +0.018 A 
ATOM      6  C   UNL     1       2.121  -0.224   6.582  0.00  0.00    +0.015 A 
ATOM      7  C   UNL     1       2.574   1.040   6.346  0.00  0.00    +0.046 A 
ATOM      8  C   UNL     1       2.253   1.696   5.159  0.00  0.00    +0.120 A 
ATOM      9  C   UNL     1       1.460   1.076   4.205  0.00  0.00    +0.092 A 
ATOM     10  C   UNL     1       0.985  -0.205   4.432  0.00  0.00    +0.141 A 
ATOM     11  O   UNL     1       0.178  -0.803   3.526  0.00  0.00    -0.438 OA
ATOM     12  H   UNL     1       0.104  -3.785   2.352  0.00  0.00    +0.169 HD
ENDROOT
BRANCH   1  18
ATOM     13  C   UNL     1      -2.002   0.664  -0.366  0.00  0.00    +0.044 C 
ATOM     14  C   UNL     1      -0.979  -0.427  -0.185  0.00  0.00    -0.048 A 
ATOM     15  C   UNL     1      -0.108  -0.736  -1.216  0.00  0.00    +0.004 A 
ATOM     16  C   UNL     1       0.834  -1.736  -1.058  0.00  0.00    +0.005 A 
ATOM     17  C   UNL     1       0.913  -2.434   0.129  0.00  0.00    -0.027 A 
ATOM     18  C   UNL     1       0.038  -2.128   1.174  0.00  0.00    +0.045 A 
ATOM     19  C   UNL     1      -0.908  -1.113   1.010  0.00  0.00    +0.029 A 
ATOM     20  C   UNL     1       1.940  -3.524   0.299  0.00  0.00    +0.046 C 
ENDBRANCH   1  18
BRANCH   3  21
ATOM     21  C   UNL     1      -0.219  -4.248   4.936  0.00  0.00    +0.249 C 
ATOM     22  O   UNL     1      -0.682  -4.837   3.978  0.00  0.00    -0.270 OA
ATOM     23  N   UNL     1      -0.174  -4.851   6.141  0.00  0.00    -0.309 N 
ATOM     24  H   UNL     1       0.254  -4.407   6.889  0.00  0.00    +0.149 HD
BRANCH  23  25
ATOM     25  C   UNL     1      -0.772  -6.176   6.319  0.00  0.00    +0.136 C 
BRANCH  25  26
ATOM     26  C   UNL     1      -0.585  -6.629   7.769  0.00  0.00    +0.135 C 
ATOM     27  C   UNL     1      -1.104  -8.073   7.938  0.00  0.00    +0.035 C 
ATOM     28  C   UNL     1      -1.788  -8.016   9.331  0.00  0.00    +0.031 C 
ATOM     29  C   UNL     1      -2.341  -6.569   9.328  0.00  0.00    +0.160 C 
ATOM     30  O   UNL     1      -1.347  -5.788   8.643  0.00  0.00    -0.375 OA
ENDBRANCH  25  26
ENDBRANCH  23  25
ENDBRANCH   3  21
BRANCH   8  31
ATOM     31  O   UNL     1       2.721   2.950   4.934  0.00  0.00    -0.507 OA
ATOM     32  H   UNL     1       3.578   2.976   4.488  0.00  0.00    +0.292 HD
ENDBRANCH   8  31
TORSDOF 5
