REMARK  Name = ZINC63375617
REMARK  5 active torsions:
REMARK  status: ('A' for Active; 'I' for Inactive)
REMARK    1  A    between atoms: C_1  and  O_2
REMARK    2  A    between atoms: O_2  and  C_3
REMARK    3  A    between atoms: C_10  and  C_18
REMARK    4  A    between atoms: C_20  and  O_31
REMARK    5  A    between atoms: N_22  and  C_28
REMARK                            x       y       z     vdW  Elec       q    Type
REMARK                         _______ _______ _______ _____ _____    ______ ____
ROOT
ATOM      1  C   UNL     1      -1.286  -0.460  -0.098  0.00  0.00    +0.121 A 
ATOM      2  C   UNL     1      -2.481   0.281  -0.077  0.00  0.00    +0.047 A 
ATOM      3  C   UNL     1      -3.696  -0.304  -0.044  0.00  0.00    +0.029 A 
ATOM      4  C   UNL     1      -3.803  -1.765  -0.028  0.00  0.00    +0.043 A 
ATOM      5  N   UNL     1      -4.842  -2.568  -0.020  0.00  0.00    -0.376 N 
ATOM      6  C   UNL     1      -4.363  -3.942   0.086  0.00  0.00    +0.124 C 
ATOM      7  C   UNL     1      -4.871  -4.833  -1.051  0.00  0.00    +0.096 C 
ATOM      8  N   UNL     1      -4.114  -6.095  -1.024  0.00  0.00    -0.310 NA
ATOM      9  C   UNL     1      -2.696  -5.926  -1.357  0.00  0.00    +0.085 C 
ATOM     10  C   UNL     1      -1.997  -5.081  -0.276  0.00  0.00    +0.048 C 
ATOM     11  C   UNL     1      -2.852  -3.853  -0.055  0.00  0.00    -0.036 C 
ATOM     12  C   UNL     1      -2.543  -2.551  -0.059  0.00  0.00    +0.003 A 
ATOM     13  C   UNL     1      -1.274  -1.813  -0.095  0.00  0.00    +0.055 A 
ATOM     14  H   UNL     1      -4.223  -6.564  -0.137  0.00  0.00    +0.122 HD
ATOM     15  H   UNL     1      -5.771  -2.294  -0.075  0.00  0.00    +0.160 HD
ENDROOT
BRANCH   7  16
ATOM     16  C   UNL     1      -6.361  -5.121  -0.855  0.00  0.00    +0.141 C 
ATOM     17  C   UNL     1      -6.865  -6.009  -1.994  0.00  0.00    +0.218 C 
ATOM     18  N   UNL     1      -6.961  -5.220  -3.224  0.00  0.00    -0.283 N 
ATOM     19  C   UNL     1      -7.338  -3.932  -3.189  0.00  0.00    +0.141 C 
ATOM     20  S   UNL     1      -7.579  -3.091  -4.661  0.00  0.00    -0.018 S 
ATOM     21  N   UNL     1      -7.532  -3.286  -2.026  0.00  0.00    -0.267 N 
ATOM     22  C   UNL     1      -7.129  -3.823  -0.859  0.00  0.00    +0.227 C 
ATOM     23  O   UNL     1      -7.384  -3.266   0.187  0.00  0.00    -0.275 OA
ATOM     24  H   UNL     1      -7.968  -2.420  -2.028  0.00  0.00    +0.157 HD
BRANCH  18  25
ATOM     25  C   UNL     1      -6.641  -5.844  -4.510  0.00  0.00    +0.078 C 
ATOM     26  C   UNL     1      -7.649  -5.674  -5.648  0.00  0.00    +0.024 C 
ATOM     27  C   UNL     1      -7.501  -7.029  -4.953  0.00  0.00    +0.024 C 
ENDBRANCH  18  25
BRANCH  17  28
ATOM     28  O   UNL     1      -5.953  -7.091  -2.194  0.00  0.00    -0.373 OA
ATOM     29  H   UNL     1      -6.209  -7.696  -2.903  0.00  0.00    +0.212 HD
ENDBRANCH  17  28
ENDBRANCH   7  16
BRANCH   1  31
ATOM     30  C   UNL     1      -0.160   1.634  -0.127  0.00  0.00    +0.277 C 
ATOM     31  O   UNL     1      -0.102   0.206  -0.126  0.00  0.00    -0.495 OA
ENDBRANCH   1  31
TORSDOF 4
