REMARK  Name = ZINC07580578
REMARK  8 active torsions:
REMARK  status: ('A' for Active; 'I' for Inactive)
REMARK    1  A    between atoms: C_3  and  C_6
REMARK    2  A    between atoms: C_6  and  N_43
REMARK    3  A    between atoms: C_7  and  C_8
REMARK    4  A    between atoms: C_7  and  N_43
REMARK    5  A    between atoms: C_13  and  C_14
REMARK    6  A    between atoms: C_13  and  N_43
REMARK    7  A    between atoms: N_16  and  C_17
REMARK    8  A    between atoms: C_22  and  N_23
REMARK                            x       y       z     vdW  Elec       q    Type
REMARK                         _______ _______ _______ _____ _____    ______ ____
ROOT
ATOM      1  C   UNL     1       4.809   0.016  -1.190  0.00  0.00    +0.020 C 
ENDROOT
BRANCH   1   2
ATOM      2  C   UNL     1       4.119  -1.281  -0.856  0.00  0.00    +0.201 C 
ATOM      3  O   UNL     1       2.924  -1.296  -0.649  0.00  0.00    -0.278 OA
ATOM      4  N   UNL     1       4.829  -2.424  -0.787  0.00  0.00    -0.285 N 
ATOM      5  H   UNL     1       5.795  -2.401  -0.871  0.00  0.00    +0.155 HD
BRANCH   4   6
ATOM      6  C   UNL     1       4.172  -3.645  -0.594  0.00  0.00    +0.064 A 
ATOM      7  C   UNL     1       2.921  -3.859  -1.157  0.00  0.00    +0.027 A 
ATOM      8  C   UNL     1       2.275  -5.064  -0.966  0.00  0.00    +0.022 A 
ATOM      9  C   UNL     1       2.875  -6.060  -0.214  0.00  0.00    +0.043 A 
ATOM     10  C   UNL     1       4.122  -5.850   0.348  0.00  0.00    +0.054 A 
ATOM     11  C   UNL     1       4.774  -4.648   0.155  0.00  0.00    +0.149 A 
ATOM     12 CL   UNL     1       2.061  -7.574   0.025  0.00  0.00    -0.083 Cl
BRANCH  11  13
ATOM     13  N   UNL     1       6.110  -4.426   0.751  0.00  0.00    +0.058 N 
ATOM     14  O   UNL     1       6.681  -5.338   1.323  0.00  0.00    -0.126 OA
ATOM     15  O   UNL     1       6.640  -3.332   0.670  0.00  0.00    -0.126 OA
ENDBRANCH  11  13
ENDBRANCH   4   6
ENDBRANCH   1   2
BRANCH   1  16
ATOM     16  N   UNL     1       3.787   1.075  -1.330  0.00  0.00    +0.393 N 
ATOM     17  H   UNL     1       2.987   0.698  -1.853  0.00  0.00    -0.080 HD
BRANCH  16  18
ATOM     18  C   UNL     1       4.348   2.223  -2.073  0.00  0.00    -0.002 C 
BRANCH  18  21
ATOM     19  C   UNL     1       4.635   1.339  -5.639  0.00  0.00    +0.041 A 
ATOM     20  C   UNL     1       3.910   1.877  -4.551  0.00  0.00    +0.042 A 
ATOM     21  C   UNL     1       4.702   1.776  -3.468  0.00  0.00    +0.089 A 
ATOM     22  O   UNL     1       5.863   1.215  -3.842  0.00  0.00    -0.470 OA
ATOM     23  C   UNL     1       5.826   0.943  -5.157  0.00  0.00    +0.195 A 
ENDBRANCH  18  21
ENDBRANCH  16  18
BRANCH  16  24
ATOM     24  C   UNL     1       3.326   1.512   0.004  0.00  0.00    -0.034 C 
BRANCH  24  25
ATOM     25  C   UNL     1       2.139   2.424  -0.167  0.00  0.00    -0.027 A 
ATOM     26  C   UNL     1       0.822   2.107  -0.229  0.00  0.00    +0.009 A 
ATOM     27  C   UNL     1      -0.104   3.120  -0.396  0.00  0.00    +0.008 A 
ATOM     28  C   UNL     1       0.332   4.401  -0.481  0.00  0.00    +0.045 A 
ATOM     29  S   UNL     1       2.100   4.200  -0.338  0.00  0.00    -0.103 S 
ENDBRANCH  24  25
ENDBRANCH  16  24
ENDBRANCH   1  16
TORSDOF 8
