REMARK  Name = ZINC32765475
REMARK  9 active torsions:
REMARK  status: ('A' for Active; 'I' for Inactive)
REMARK    1  A    between atoms: C_1  and  C_2
REMARK    2  A    between atoms: C_3  and  C_21
REMARK    3  A    between atoms: C_5  and  S_7
REMARK    4  A    between atoms: S_7  and  C_8
REMARK    5  A    between atoms: C_8  and  C_10
REMARK    6  A    between atoms: C_8  and  C_11
REMARK    7  A    between atoms: N_17  and  C_18
REMARK    8  A    between atoms: N_17  and  C_19
REMARK    9  A    between atoms: C_21  and  C_22
REMARK                            x       y       z     vdW  Elec       q    Type
REMARK                         _______ _______ _______ _____ _____    ______ ____
ROOT
ATOM      1  C   UNL     1       1.789  -0.294  -0.016  0.00  0.00    +0.118 C 
ATOM      2  C   UNL     1       2.402   0.219   1.289  0.00  0.00    +0.027 C 
ENDROOT
BRANCH   1   3
ATOM      3  C   UNL     1       2.056  -1.771  -0.150  0.00  0.00    +0.149 A 
ATOM      4  N   UNL     1       1.376  -2.634   0.585  0.00  0.00    -0.198 NA
ATOM      5  C   UNL     1       1.607  -3.939   0.466  0.00  0.00    +0.217 A 
ATOM      6  N   UNL     1       2.529  -4.374  -0.386  0.00  0.00    -0.181 NA
ATOM      7  C   UNL     1       3.214  -3.504  -1.119  0.00  0.00    +0.222 A 
ATOM      8  N   UNL     1       2.974  -2.200  -0.998  0.00  0.00    -0.198 NA
ATOM      9  N   UNL     1       4.173  -3.950  -2.006  0.00  0.00    -0.306 N 
ATOM     10  C   UNL     1       4.928  -2.990  -2.814  0.00  0.00    +0.132 C 
ATOM     11  C   UNL     1       4.436  -5.386  -2.138  0.00  0.00    +0.132 C 
ATOM     12  N   UNL     1       0.892  -4.839   1.230  0.00  0.00    -0.327 N 
ATOM     13  H   UNL     1       1.083  -5.918   1.131  0.00  0.00    +0.145 HD
ATOM     14  H   UNL     1       0.132  -4.478   1.938  0.00  0.00    +0.145 HD
ENDBRANCH   1   3
BRANCH   1  15
ATOM     15  S   UNL     1       0.002  -0.004   0.002  0.00  0.00    -0.088 S 
BRANCH  15  20
ATOM     16  C   UNL     1       1.963   4.861   0.009  0.00  0.00    +0.066 C 
ATOM     17  C   UNL     1       0.797   3.906   0.015  0.00  0.00    +0.050 A 
ATOM     18  C   UNL     1      -0.476   4.367   0.029  0.00  0.00    +0.022 A 
ATOM     19  S   UNL     1      -1.387   2.830   0.023  0.00  0.00    -0.065 S 
ATOM     20  C   UNL     1      -0.022   1.758   0.012  0.00  0.00    +0.136 A 
ATOM     21  N   UNL     1       0.994   2.601   0.006  0.00  0.00    -0.238 NA
BRANCH  18  22
ATOM     22  C   UNL     1      -0.985   5.786   0.040  0.00  0.00    +0.139 C 
BRANCH  22  23
ATOM     23  C   UNL     1      -1.167   6.265  -1.378  0.00  0.00    +0.215 C 
ATOM     24  O   UNL     1      -0.910   5.527  -2.305  0.00  0.00    -0.276 OA
ATOM     25  N   UNL     1      -1.616   7.514  -1.614  0.00  0.00    -0.329 N 
ATOM     26  H   UNL     1      -1.750   7.863  -2.649  0.00  0.00    +0.145 HD
ATOM     27  H   UNL     1      -1.850   8.183  -0.773  0.00  0.00    +0.145 HD
ENDBRANCH  22  23
ENDBRANCH  18  22
ENDBRANCH  15  20
ENDBRANCH   1  15
TORSDOF 5
