REMARK  Name = ZINC05585002
REMARK  11 active torsions:
REMARK  status: ('A' for Active; 'I' for Inactive)
REMARK    1  A    between atoms: C_1  and  C_2
REMARK    2  A    between atoms: C_2  and  O_3
REMARK    3  A    between atoms: O_3  and  C_4
REMARK    4  A    between atoms: C_7  and  C_11
REMARK    5  A    between atoms: C_9  and  O_10
REMARK    6  A    between atoms: N_12  and  N_13
REMARK    7  A    between atoms: C_14  and  C_16
REMARK    8  A    between atoms: C_16  and  N_17
REMARK    9  A    between atoms: N_17  and  C_18
REMARK   10  A    between atoms: C_21  and  C_25
REMARK   11  A    between atoms: C_23  and  C_24
REMARK                            x       y       z     vdW  Elec       q    Type
REMARK                         _______ _______ _______ _____ _____    ______ ____
ROOT
ATOM      1  N   UNL     1      -0.288   1.272  -2.443  0.00  0.00    -0.206 N 
ATOM      2  C   UNL     1      -0.742   1.585  -1.213  0.00  0.00    +0.249 C 
ATOM      3  O   UNL     1      -1.736   2.268  -1.088  0.00  0.00    -0.272 OA
ATOM      4  H   UNL     1       0.507   0.726  -2.543  0.00  0.00    +0.177 HD
ENDROOT
BRANCH   1   6
ATOM      5  C   UNL     1      -0.530   1.435  -4.763  0.00  0.00    +0.138 C 
ATOM      6  N   UNL     1      -0.966   1.736  -3.578  0.00  0.00    -0.188 NA
BRANCH   5  10
ATOM      7  C   UNL     1      -2.588   2.846  -8.201  0.00  0.00    +0.162 A 
ATOM      8  C   UNL     1      -3.054   3.167  -6.934  0.00  0.00    +0.050 A 
ATOM      9  C   UNL     1      -2.392   2.706  -5.816  0.00  0.00    +0.013 A 
ATOM     10  C   UNL     1      -1.243   1.924  -5.957  0.00  0.00    -0.002 A 
ATOM     11  C   UNL     1      -0.774   1.601  -7.233  0.00  0.00    +0.058 A 
ATOM     12  C   UNL     1      -1.447   2.061  -8.350  0.00  0.00    +0.159 A 
BRANCH  12  13
ATOM     13  O   UNL     1      -0.994   1.748  -9.593  0.00  0.00    -0.503 OA
ATOM     14  H   UNL     1      -1.363   0.930  -9.952  0.00  0.00    +0.292 HD
ENDBRANCH  12  13
BRANCH   7  15
ATOM     15  O   UNL     1      -3.248   3.298  -9.300  0.00  0.00    -0.489 OA
BRANCH  15  17
ATOM     16  C   UNL     1      -5.013   4.511 -10.420  0.00  0.00    +0.048 C 
ATOM     17  C   UNL     1      -4.411   4.098  -9.076  0.00  0.00    +0.226 C 
ENDBRANCH  15  17
ENDBRANCH   7  15
ENDBRANCH   5  10
ENDBRANCH   1   6
BRANCH   2  18
ATOM     18  C   UNL     1      -0.013   1.086   0.008  0.00  0.00    +0.199 C 
BRANCH  18  19
ATOM     19  N   UNL     1      -0.698   1.558   1.213  0.00  0.00    -0.335 N 
ATOM     20  H   UNL     1      -1.495   2.106   1.135  0.00  0.00    +0.147 HD
BRANCH  19  21
ATOM     21  C   UNL     1      -0.205   1.221   2.475  0.00  0.00    +0.030 A 
ATOM     22  C   UNL     1       0.937   0.437   2.590  0.00  0.00    +0.023 A 
ATOM     23  C   UNL     1       1.423   0.105   3.839  0.00  0.00    +0.005 A 
ATOM     24  C   UNL     1       0.774   0.553   4.976  0.00  0.00    -0.050 A 
ATOM     25  C   UNL     1      -0.362   1.333   4.866  0.00  0.00    +0.008 A 
ATOM     26  C   UNL     1      -0.850   1.672   3.619  0.00  0.00    -0.029 A 
ATOM     27  C   UNL     1      -2.085   2.528   3.500  0.00  0.00    +0.045 C 
ATOM     28  C   UNL     1       1.308   0.190   6.338  0.00  0.00    +0.044 C 
ENDBRANCH  19  21
ENDBRANCH  18  19
ENDBRANCH   2  18
TORSDOF 8
