REMARK  Name = ZINC19922934
REMARK  4 active torsions:
REMARK  status: ('A' for Active; 'I' for Inactive)
REMARK    1  A    between atoms: C_1  and  C_2
REMARK    2  A    between atoms: C_5  and  C_8
REMARK    3  A    between atoms: C_19  and  C_21
REMARK    4  A    between atoms: C_24  and  C_27
REMARK                            x       y       z     vdW  Elec       q    Type
REMARK                         _______ _______ _______ _____ _____    ______ ____
ROOT
ATOM      1  C   UNL     1       1.230   3.434  -0.203  0.00  0.00    +0.013 C 
ATOM      2  C   UNL     1       1.262   2.091  -0.154  0.00  0.00    -0.029 C 
ATOM      3  C   UNL     1       2.578   1.344  -0.166  0.00  0.00    +0.037 C 
ATOM      4  C   UNL     1       2.391   0.128  -1.085  0.00  0.00    +0.005 C 
ATOM      5  C   UNL     1       1.313  -0.774  -0.493  0.00  0.00    +0.012 C 
ATOM      6  C   UNL     1       0.029  -0.019  -0.248  0.00  0.00    +0.058 C 
ATOM      7  C   UNL     1       0.014   1.304  -0.087  0.00  0.00    +0.018 C 
ATOM      8  N   UNL     1      -1.183   1.990   0.144  0.00  0.00    -0.300 N 
ATOM      9  C   UNL     1      -2.351   1.335   0.216  0.00  0.00    +0.135 C 
ATOM     10  S   UNL     1      -3.791   2.214   0.509  0.00  0.00    -0.019 S 
ATOM     11  N   UNL     1      -2.414   0.007   0.058  0.00  0.00    -0.319 N 
ATOM     12  C   UNL     1      -1.248  -0.820  -0.191  0.00  0.00    +0.111 C 
ATOM     13  H   UNL     1      -1.175   3.083   0.270  0.00  0.00    +0.154 HD
ATOM     14  H   UNL     1      -3.411  -0.453   0.125  0.00  0.00    +0.148 HD
ENDROOT
BRANCH   1  19
ATOM     15  C   UNL     1       6.111   6.445   0.208  0.00  0.00    +0.044 C 
ATOM     16  C   UNL     1       4.832   5.656   0.101  0.00  0.00    -0.050 A 
ATOM     17  C   UNL     1       3.792   6.133  -0.678  0.00  0.00    +0.004 A 
ATOM     18  C   UNL     1       2.618   5.416  -0.782  0.00  0.00    +0.008 A 
ATOM     19  C   UNL     1       2.480   4.205  -0.098  0.00  0.00    -0.025 A 
ATOM     20  C   UNL     1       3.533   3.733   0.692  0.00  0.00    +0.008 A 
ATOM     21  C   UNL     1       4.702   4.457   0.781  0.00  0.00    +0.004 A 
ENDBRANCH   1  19
BRANCH  12  22
ATOM     22  C   UNL     1      -1.132  -1.844   0.909  0.00  0.00    -0.027 A 
ATOM     23  C   UNL     1      -1.333  -1.470   2.224  0.00  0.00    +0.006 A 
ATOM     24  C   UNL     1      -1.232  -2.409   3.233  0.00  0.00    +0.004 A 
ATOM     25  C   UNL     1      -0.920  -3.721   2.927  0.00  0.00    -0.050 A 
ATOM     26  C   UNL     1      -0.714  -4.094   1.612  0.00  0.00    +0.004 A 
ATOM     27  C   UNL     1      -0.820  -3.155   0.603  0.00  0.00    +0.006 A 
ATOM     28  C   UNL     1      -0.804  -4.744   4.027  0.00  0.00    +0.044 C 
ENDBRANCH  12  22
TORSDOF 2
