REMARK  Name = ZINC09123993
REMARK  12 active torsions:
REMARK  status: ('A' for Active; 'I' for Inactive)
REMARK    1  A    between atoms: C_1  and  C_2
REMARK    2  A    between atoms: C_4  and  C_39
REMARK    3  A    between atoms: C_5  and  O_38
REMARK    4  A    between atoms: C_6  and  C_8
REMARK    5  A    between atoms: N_16  and  C_26
REMARK    6  A    between atoms: C_17  and  C_19
REMARK    7  A    between atoms: C_26  and  C_27
REMARK    8  A    between atoms: C_27  and  C_28
REMARK    9  A    between atoms: C_31  and  O_36
REMARK   10  A    between atoms: C_32  and  O_34
REMARK   11  A    between atoms: O_34  and  C_35
REMARK   12  A    between atoms: O_36  and  C_37
REMARK                            x       y       z     vdW  Elec       q    Type
REMARK                         _______ _______ _______ _____ _____    ______ ____
ROOT
ATOM      1  C   UNL     1       0.123  -2.932   2.542  0.00  0.00    +0.102 A 
ATOM      2  C   UNL     1       0.176  -2.326   3.802  0.00  0.00    +0.035 A 
ATOM      3  C   UNL     1       0.143  -3.360   4.718  0.00  0.00    +0.126 A 
ATOM      4  N   UNL     1       0.073  -4.512   3.989  0.00  0.00    -0.272 N 
ATOM      5  H   UNL     1       0.036  -5.407   4.362  0.00  0.00    +0.189 HD
ATOM      6  N   UNL     1       0.058  -4.235   2.733  0.00  0.00    -0.173 NA
ATOM      7  C   UNL     1       0.196  -2.788   6.069  0.00  0.00    +0.265 C 
ATOM      8  O   UNL     1       0.184  -3.436   7.098  0.00  0.00    -0.268 OA
ATOM      9  N   UNL     1       0.260  -1.446   6.007  0.00  0.00    -0.285 N 
ATOM     10  C   UNL     1       0.253  -1.049   4.593  0.00  0.00    +0.141 C 
ENDROOT
BRANCH   1  16
ATOM     11  C   UNL     1      -1.573   0.703  -0.429  0.00  0.00    +0.044 C 
ATOM     12  C   UNL     1      -0.681  -0.490  -0.201  0.00  0.00    -0.049 A 
ATOM     13  C   UNL     1       0.147  -0.936  -1.216  0.00  0.00    +0.010 A 
ATOM     14  C   UNL     1       0.969  -2.028  -1.017  0.00  0.00    -0.008 A 
ATOM     15  C   UNL     1       0.967  -2.684   0.204  0.00  0.00    +0.129 A 
ATOM     16  C   UNL     1       0.132  -2.236   1.232  0.00  0.00    +0.044 A 
ATOM     17  C   UNL     1      -0.688  -1.130   1.022  0.00  0.00    +0.017 A 
ATOM     18  C   UNL     1       1.867  -2.508  -2.127  0.00  0.00    +0.047 C 
BRANCH  15  19
ATOM     19  O   UNL     1       1.774  -3.759   0.402  0.00  0.00    -0.506 OA
ATOM     20  H   UNL     1       2.649  -3.536   0.747  0.00  0.00    +0.292 HD
ENDBRANCH  15  19
ENDBRANCH   1  16
BRANCH  10  21
ATOM     21  C   UNL     1       1.520  -0.306   4.256  0.00  0.00    -0.022 A 
ATOM     22  C   UNL     1       2.742  -0.801   4.672  0.00  0.00    +0.007 A 
ATOM     23  C   UNL     1       3.905  -0.120   4.364  0.00  0.00    +0.020 A 
ATOM     24  C   UNL     1       3.845   1.057   3.639  0.00  0.00    +0.041 A 
ATOM     25  C   UNL     1       2.622   1.552   3.224  0.00  0.00    +0.020 A 
ATOM     26  C   UNL     1       1.461   0.867   3.528  0.00  0.00    +0.007 A 
ATOM     27 CL   UNL     1       5.305   1.913   3.252  0.00  0.00    -0.084 Cl
ENDBRANCH  10  21
BRANCH   9  28
ATOM     28  C   UNL     1       0.327  -0.536   7.153  0.00  0.00    +0.114 C 
BRANCH  28  29
ATOM     29  C   UNL     1       1.790  -0.289   7.525  0.00  0.00    +0.054 C 
BRANCH  29  30
ATOM     30  C   UNL     1       1.858   0.647   8.704  0.00  0.00    -0.042 A 
ATOM     31  C   UNL     1       1.915   2.013   8.498  0.00  0.00    +0.007 A 
ATOM     32  C   UNL     1       1.977   2.875   9.576  0.00  0.00    +0.049 A 
ATOM     33  C   UNL     1       1.983   2.372  10.867  0.00  0.00    +0.161 A 
ATOM     34  C   UNL     1       1.925   0.997  11.074  0.00  0.00    +0.162 A 
ATOM     35  C   UNL     1       1.858   0.138   9.989  0.00  0.00    +0.053 A 
BRANCH  34  36
ATOM     36  O   UNL     1       1.931   0.497  12.339  0.00  0.00    -0.491 OA
ATOM     37  C   UNL     1       1.870  -0.924  12.476  0.00  0.00    +0.277 C 
ENDBRANCH  34  36
BRANCH  33  38
ATOM     38  O   UNL     1       2.045   3.219  11.929  0.00  0.00    -0.491 OA
ATOM     39  C   UNL     1       2.102   4.617  11.641  0.00  0.00    +0.277 C 
ENDBRANCH  33  38
ENDBRANCH  29  30
ENDBRANCH  28  29
ENDBRANCH   9  28
TORSDOF 8
