REMARK  Name = ZINC12594326
REMARK  9 active torsions:
REMARK  status: ('A' for Active; 'I' for Inactive)
REMARK    1  A    between atoms: C_1  and  C_2
REMARK    2  A    between atoms: C_2  and  C_3
REMARK    3  A    between atoms: C_2  and  C_4
REMARK    4  A    between atoms: C_4  and  N_64
REMARK    5  A    between atoms: C_10  and  C_12
REMARK    6  A    between atoms: C_12  and  C_13
REMARK    7  A    between atoms: C_18  and  C_21
REMARK    8  A    between atoms: C_21  and  C_22
REMARK    9  A    between atoms: C_22  and  N_66
REMARK                            x       y       z     vdW  Elec       q    Type
REMARK                         _______ _______ _______ _____ _____    ______ ____
ROOT
ATOM      1  C   UNL     1       2.043   1.804   1.224  0.00  0.00    +0.214 C 
ATOM      2  O   UNL     1       1.349   2.235   2.121  0.00  0.00    -0.276 OA
ATOM      3  N   UNL     1       1.675   0.687   0.566  0.00  0.00    -0.301 N 
ATOM      4  C   UNL     1       0.437  -0.019   0.922  0.00  0.00    +0.108 C 
ATOM      5  C   UNL     1       0.770  -1.488   1.199  0.00  0.00    +0.022 C 
ATOM      6  C   UNL     1       1.505  -2.077  -0.007  0.00  0.00    -0.010 C 
ATOM      7  C   UNL     1       2.815  -1.319  -0.229  0.00  0.00    +0.022 C 
ATOM      8  C   UNL     1       2.505   0.153  -0.523  0.00  0.00    +0.108 C 
ENDROOT
BRANCH   1   9
ATOM      9  C   UNL     1       3.315   2.517   0.847  0.00  0.00    +0.090 C 
BRANCH   9  15
ATOM     10  C   UNL     1       3.301   4.752   3.864  0.00  0.00    -0.059 C 
ATOM     11  C   UNL     1       1.897   5.325   3.659  0.00  0.00    +0.085 C 
ATOM     12  N   UNL     1       1.591   5.401   2.234  0.00  0.00    -0.318 N 
ATOM     13  C   UNL     1       2.265   4.710   1.308  0.00  0.00    +0.200 C 
ATOM     14  O   UNL     1       1.925   4.809   0.148  0.00  0.00    -0.278 OA
ATOM     15  C   UNL     1       3.426   3.818   1.644  0.00  0.00    +0.028 C 
ATOM     16  H   UNL     1       0.866   5.977   1.946  0.00  0.00    +0.149 HD
ATOM     17  N   UNL     1       3.403   3.502   3.084  0.00  0.00    +0.389 N 
ATOM     18  H   UNL     1       2.586   2.913   3.285  0.00  0.00    -0.081 HD
BRANCH  17  19
ATOM     19  C   UNL     1       4.631   2.766   3.462  0.00  0.00    -0.075 C 
BRANCH  19  21
ATOM     20  C   UNL     1       6.967   2.986   4.322  0.00  0.00    +0.005 C 
ATOM     21  C   UNL     1       5.763   3.750   3.766  0.00  0.00    -0.034 C 
ATOM     22  C   UNL     1       6.168   4.475   2.481  0.00  0.00    +0.005 C 
ENDBRANCH  19  21
ENDBRANCH  17  19
ENDBRANCH   9  15
ENDBRANCH   1   9
BRANCH   6  23
ATOM     23  C   UNL     1       1.808  -3.554   0.252  0.00  0.00    -0.015 C 
BRANCH  23  24
ATOM     24  C   UNL     1       2.430  -4.175  -1.001  0.00  0.00    -0.079 C 
BRANCH  24  29
ATOM     25  C   UNL     1       1.520  -6.302  -0.245  0.00  0.00    -0.079 C 
ATOM     26  C   UNL     1       1.834  -7.790  -0.543  0.00  0.00    -0.020 C 
ATOM     27  C   UNL     1       2.560  -7.723  -1.906  0.00  0.00    -0.020 C 
ATOM     28  C   UNL     1       3.099  -6.284  -2.005  0.00  0.00    -0.079 C 
ATOM     29  N   UNL     1       2.718  -5.620  -0.757  0.00  0.00    +0.380 N 
ATOM     30  H   UNL     1       3.482  -5.700  -0.075  0.00  0.00    -0.082 HD
ENDBRANCH  24  29
ENDBRANCH  23  24
ENDBRANCH   6  23
TORSDOF 7
