REMARK  Name = ZINC04168171
REMARK  8 active torsions:
REMARK  status: ('A' for Active; 'I' for Inactive)
REMARK    1  A    between atoms: C_1  and  C_2
REMARK    2  A    between atoms: C_2  and  O_3
REMARK    3  A    between atoms: O_3  and  C_4
REMARK    4  A    between atoms: C_9  and  C_10
REMARK    5  A    between atoms: C_20  and  C_32
REMARK    6  A    between atoms: C_21  and  C_22
REMARK    7  A    between atoms: N_24  and  C_25
REMARK    8  A    between atoms: C_30  and  C_31
REMARK                            x       y       z     vdW  Elec       q    Type
REMARK                         _______ _______ _______ _____ _____    ______ ____
ROOT
ATOM      1  C   UNL     1      -4.059  -1.588   0.104  0.00  0.00    +0.094 C 
ATOM      2  C   UNL     1      -5.031  -2.000   1.181  0.00  0.00    +0.024 C 
ATOM      3  C   UNL     1      -5.877  -3.034   0.987  0.00  0.00    +0.015 C 
ATOM      4  C   UNL     1      -6.854  -3.450   2.058  0.00  0.00    +0.051 C 
ATOM      5  C   UNL     1      -6.266  -3.145   3.438  0.00  0.00    +0.014 C 
ATOM      6  C   UNL     1      -5.958  -1.646   3.514  0.00  0.00    +0.080 C 
ATOM      7  C   UNL     1      -5.030  -1.280   2.388  0.00  0.00    +0.162 C 
ATOM      8  O   UNL     1      -4.266  -0.345   2.525  0.00  0.00    -0.292 OA
ATOM      9  N   UNL     1      -5.868  -3.727  -0.194  0.00  0.00    -0.321 N 
ATOM     10  C   UNL     1      -5.324  -3.175  -1.321  0.00  0.00    +0.014 C 
ATOM     11  C   UNL     1      -4.460  -2.150  -1.228  0.00  0.00    +0.043 C 
ATOM     12  C   UNL     1      -5.697  -3.719  -2.676  0.00  0.00    +0.061 C 
ATOM     13  H   UNL     1      -6.300  -4.737  -0.241  0.00  0.00    +0.152 HD
ENDROOT
BRANCH   1  19
ATOM     14  C   UNL     1      -1.669  -1.192   0.751  0.00  0.00    +0.125 A 
ATOM     15  C   UNL     1      -0.406  -1.660   1.084  0.00  0.00    +0.046 A 
ATOM     16  C   UNL     1      -0.160  -3.018   1.118  0.00  0.00    +0.004 A 
ATOM     17  C   UNL     1      -1.172  -3.913   0.821  0.00  0.00    +0.001 A 
ATOM     18  C   UNL     1      -2.432  -3.450   0.489  0.00  0.00    +0.008 A 
ATOM     19  C   UNL     1      -2.684  -2.092   0.459  0.00  0.00    +0.006 A 
BRANCH  14  20
ATOM     20  O   UNL     1      -1.913   0.144   0.717  0.00  0.00    -0.492 OA
BRANCH  20  22
ATOM     21  C   UNL     1      -1.316   2.462   1.050  0.00  0.00    +0.048 C 
ATOM     22  C   UNL     1      -0.833   1.010   1.071  0.00  0.00    +0.225 C 
ENDBRANCH  20  22
ENDBRANCH  14  20
ENDBRANCH   1  19
BRANCH  11  23
ATOM     23  C   UNL     1      -3.918  -1.590  -2.411  0.00  0.00    +0.247 C 
ATOM     24  O   UNL     1      -4.314  -1.965  -3.499  0.00  0.00    -0.270 OA
ATOM     25  N   UNL     1      -2.963  -0.642  -2.331  0.00  0.00    -0.281 N 
ATOM     26  H   UNL     1      -2.538  -0.370  -1.353  0.00  0.00    +0.155 HD
BRANCH  25  27
ATOM     27  C   UNL     1      -2.512  -0.005  -3.491  0.00  0.00    +0.037 A 
ATOM     28  C   UNL     1      -3.306   0.010  -4.630  0.00  0.00    +0.023 A 
ATOM     29  C   UNL     1      -2.860   0.645  -5.773  0.00  0.00    +0.002 A 
ATOM     30  C   UNL     1      -1.619   1.256  -5.786  0.00  0.00    +0.000 A 
ATOM     31  C   UNL     1      -0.824   1.238  -4.655  0.00  0.00    +0.005 A 
ATOM     32  C   UNL     1      -1.266   0.609  -3.508  0.00  0.00    -0.029 A 
ATOM     33  C   UNL     1      -0.399   0.591  -2.276  0.00  0.00    +0.045 C 
ENDBRANCH  25  27
ENDBRANCH  11  23
TORSDOF 5
