REMARK  Name = ZINC14478345
REMARK  6 active torsions:
REMARK  status: ('A' for Active; 'I' for Inactive)
REMARK    1  A    between atoms: C_1  and  C_2
REMARK    2  A    between atoms: C_2  and  C_3
REMARK    3  A    between atoms: C_3  and  C_4
REMARK    4  A    between atoms: N_6  and  C_7
REMARK    5  A    between atoms: C_20  and  C_23
REMARK    6  A    between atoms: C_28  and  N_29
REMARK                            x       y       z     vdW  Elec       q    Type
REMARK                         _______ _______ _______ _____ _____    ______ ____
ROOT
ATOM      1  C   UNL     1      -2.089   0.417   2.051  0.00  0.00    +0.039 A 
ATOM      2  C   UNL     1      -1.879  -0.843   2.589  0.00  0.00    +0.025 A 
ATOM      3  C   UNL     1      -0.689  -1.505   2.353  0.00  0.00    +0.023 A 
ATOM      4  C   UNL     1       0.288  -0.907   1.583  0.00  0.00    +0.062 A 
ATOM      5  C   UNL     1       0.083   0.361   1.038  0.00  0.00    +0.052 A 
ATOM      6  C   UNL     1      -1.107   1.026   1.270  0.00  0.00    +0.003 A 
ATOM      7  C   UNL     1      -1.397   2.388   0.712  0.00  0.00    +0.050 C 
ATOM      8  C   UNL     1      -2.422   2.304  -0.395  0.00  0.00    -0.023 C 
ATOM      9  C   UNL     1      -2.118   3.127  -1.366  0.00  0.00    -0.030 C 
ATOM     10  C   UNL     1      -0.847   3.886  -1.042  0.00  0.00    +0.033 C 
ATOM     11  C   UNL     1      -0.153   2.996   0.028  0.00  0.00    +0.029 C 
ATOM     12  C   UNL     1       0.603   1.885  -0.705  0.00  0.00    +0.107 C 
ATOM     13  N   UNL     1       1.106   0.916   0.269  0.00  0.00    -0.335 N 
ATOM     14 CL   UNL     1       1.782  -1.740   1.288  0.00  0.00    -0.082 Cl
ATOM     15  H   UNL     1       1.817   1.327   0.855  0.00  0.00    +0.147 HD
ENDROOT
BRANCH  12  16
ATOM     16  C   UNL     1      -0.328   1.194  -1.668  0.00  0.00    +0.003 A 
ATOM     17  C   UNL     1      -1.004   0.053  -1.277  0.00  0.00    +0.008 A 
ATOM     18  C   UNL     1      -1.862  -0.577  -2.158  0.00  0.00    +0.000 A 
ATOM     19  C   UNL     1      -2.035  -0.074  -3.434  0.00  0.00    +0.002 A 
ATOM     20  C   UNL     1      -1.355   1.064  -3.826  0.00  0.00    +0.033 A 
ATOM     21  C   UNL     1      -0.502   1.698  -2.943  0.00  0.00    +0.131 A 
BRANCH  21  22
ATOM     22  N   UNL     1       0.227   2.916  -3.363  0.00  0.00    +0.057 N 
ATOM     23  O   UNL     1      -0.326   3.745  -4.063  0.00  0.00    -0.126 OA
ATOM     24  O   UNL     1       1.379   3.089  -3.009  0.00  0.00    -0.126 OA
ENDBRANCH  21  22
ENDBRANCH  12  16
BRANCH   1  27
ATOM     25  C   UNL     1      -4.446   0.385   2.380  0.00  0.00    +0.217 C 
ATOM     26  O   UNL     1      -4.426  -0.826   2.317  0.00  0.00    -0.275 OA
ATOM     27  N   UNL     1      -3.296   1.083   2.293  0.00  0.00    -0.285 N 
ATOM     28  H   UNL     1      -3.305   2.047   2.399  0.00  0.00    +0.155 HD
BRANCH  25  29
ATOM     29  C   UNL     1      -5.756   1.109   2.554  0.00  0.00    +0.096 C 
BRANCH  29  31
ATOM     30  C   UNL     1      -8.226   0.826   2.800  0.00  0.00    +0.004 C 
ATOM     31  C   UNL     1      -6.896   0.091   2.624  0.00  0.00    +0.006 C 
ENDBRANCH  29  31
ENDBRANCH  25  29
ENDBRANCH   1  27
TORSDOF 5
