REMARK  Name = ZINC03248361
REMARK  9 active torsions:
REMARK  status: ('A' for Active; 'I' for Inactive)
REMARK    1  A    between atoms: C_4  and  C_7
REMARK    2  A    between atoms: C_7  and  N_8
REMARK    3  A    between atoms: N_8  and  C_9
REMARK    4  A    between atoms: C_9  and  C_10
REMARK    5  A    between atoms: C_16  and  C_18
REMARK    6  A    between atoms: C_18  and  O_19
REMARK    7  A    between atoms: O_19  and  C_20
REMARK    8  A    between atoms: C_20  and  C_22
REMARK    9  A    between atoms: C_23  and  C_24
REMARK                            x       y       z     vdW  Elec       q    Type
REMARK                         _______ _______ _______ _____ _____    ______ ____
ROOT
ATOM      1  N   UNL     1       4.792   1.582   0.067  0.00  0.00    -0.290 N 
ATOM      2  C   UNL     1       3.543   2.081  -0.015  0.00  0.00    +0.254 C 
ATOM      3  O   UNL     1       3.374   3.279  -0.103  0.00  0.00    -0.272 OA
ENDROOT
BRANCH   1   4
ATOM      4  C   UNL     1       5.939   2.488   0.168  0.00  0.00    +0.143 C 
BRANCH   4   8
ATOM      5  C   UNL     1       6.760   3.298   4.281  0.00  0.00    +0.000 A 
ATOM      6  C   UNL     1       7.367   2.227   3.652  0.00  0.00    +0.000 A 
ATOM      7  C   UNL     1       7.101   1.965   2.321  0.00  0.00    +0.005 A 
ATOM      8  C   UNL     1       6.228   2.774   1.619  0.00  0.00    -0.030 A 
ATOM      9  C   UNL     1       5.625   3.848   2.245  0.00  0.00    +0.005 A 
ATOM     10  C   UNL     1       5.887   4.107   3.578  0.00  0.00    +0.000 A 
ENDBRANCH   4   8
ENDBRANCH   1   4
BRANCH   1  11
ATOM     11  C   UNL     1       5.004   0.132   0.057  0.00  0.00    +0.143 C 
BRANCH  11  12
ATOM     12  C   UNL     1       5.308  -0.321  -1.348  0.00  0.00    -0.030 A 
ATOM     13  C   UNL     1       4.295  -0.805  -2.153  0.00  0.00    +0.005 A 
ATOM     14  C   UNL     1       4.573  -1.216  -3.443  0.00  0.00    +0.000 A 
ATOM     15  C   UNL     1       5.868  -1.153  -3.924  0.00  0.00    +0.000 A 
ATOM     16  C   UNL     1       6.883  -0.674  -3.117  0.00  0.00    +0.000 A 
ATOM     17  C   UNL     1       6.603  -0.258  -1.829  0.00  0.00    +0.005 A 
ENDBRANCH  11  12
ENDBRANCH   1  11
BRANCH   2  18
ATOM     18  C   UNL     1       2.357   1.152   0.003  0.00  0.00    +0.328 C 
BRANCH  18  19
ATOM     19  O   UNL     1       1.151   1.918   0.023  0.00  0.00    -0.452 OA
BRANCH  19  20
ATOM     20  C   UNL     1      -0.011   1.232   0.041  0.00  0.00    +0.332 C 
ATOM     21  O   UNL     1       0.001   0.015   0.039  0.00  0.00    -0.246 OA
BRANCH  20  22
ATOM     22  C   UNL     1      -1.241   1.926   0.056  0.00  0.00    +0.095 C 
ATOM     23  C   UNL     1      -2.410   1.235   0.068  0.00  0.00    +0.053 C 
BRANCH  23  24
ATOM     24  C   UNL     1      -3.642   1.930   0.083  0.00  0.00    +0.130 A 
ATOM     25  C   UNL     1      -4.898   1.358   0.091  0.00  0.00    +0.050 A 
ATOM     26  C   UNL     1      -5.818   2.416   0.108  0.00  0.00    +0.057 A 
ATOM     27  C   UNL     1      -5.105   3.567   0.101  0.00  0.00    +0.171 A 
ATOM     28  O   UNL     1      -3.798   3.271   0.086  0.00  0.00    -0.449 OA
ATOM     29 BR   UNL     1      -5.836   5.311   0.112  0.00  0.00    -0.008 Br
ENDBRANCH  23  24
ENDBRANCH  20  22
ENDBRANCH  19  20
ENDBRANCH  18  19
ENDBRANCH   2  18
TORSDOF 9
