REMARK  Name = ZINC13112641
REMARK  5 active torsions:
REMARK  status: ('A' for Active; 'I' for Inactive)
REMARK    1  A    between atoms: N_9  and  C_28
REMARK    2  A    between atoms: C_10  and  C_12
REMARK    3  A    between atoms: C_12  and  N_13
REMARK    4  A    between atoms: C_21  and  C_23
REMARK    5  A    between atoms: C_28  and  C_29
REMARK                            x       y       z     vdW  Elec       q    Type
REMARK                         _______ _______ _______ _____ _____    ______ ____
ROOT
ATOM      1  C   UNL     1       1.251   1.935   1.284  0.00  0.00    +0.001 A 
ATOM      2  C   UNL     1       2.454   1.243   1.218  0.00  0.00    +0.002 A 
ATOM      3  C   UNL     1       2.477  -0.107   0.948  0.00  0.00    +0.028 A 
ATOM      4  C   UNL     1       1.277  -0.790   0.737  0.00  0.00    +0.078 A 
ATOM      5  C   UNL     1       0.056  -0.083   0.804  0.00  0.00    +0.065 A 
ATOM      6  C   UNL     1       0.055   1.283   1.079  0.00  0.00    +0.015 A 
ATOM      7  C   UNL     1      -1.188  -0.832   0.577  0.00  0.00    +0.262 A 
ATOM      8  O   UNL     1      -2.274  -0.282   0.621  0.00  0.00    -0.267 OA
ATOM      9  N   UNL     1      -1.081  -2.156   0.317  0.00  0.00    -0.286 N 
ATOM     10  C   UNL     1       0.138  -2.755   0.272  0.00  0.00    +0.128 A 
ATOM     11  N   UNL     1       1.253  -2.120   0.468  0.00  0.00    -0.232 NA
ENDROOT
BRANCH  10  12
ATOM     12  C   UNL     1       0.198  -4.232  -0.021  0.00  0.00    +0.159 C 
BRANCH  12  13
ATOM     13  N   UNL     1       1.601  -4.647  -0.157  0.00  0.00    -0.284 NA
ATOM     14  C   UNL     1       2.216  -4.041  -1.346  0.00  0.00    +0.091 C 
ATOM     15  C   UNL     1       3.745  -4.158  -1.226  0.00  0.00    +0.058 C 
ATOM     16  C   UNL     1       4.064  -5.558  -0.813  0.00  0.00    -0.004 A 
ATOM     17  C   UNL     1       3.188  -6.482  -0.327  0.00  0.00    -0.015 A 
ATOM     18  C   UNL     1       3.715  -7.731  -0.009  0.00  0.00    +0.013 A 
ATOM     19  C   UNL     1       5.035  -7.974  -0.186  0.00  0.00    +0.046 A 
ATOM     20  S   UNL     1       5.615  -6.411  -0.828  0.00  0.00    -0.101 S 
ATOM     21  C   UNL     1       1.718  -6.111  -0.160  0.00  0.00    +0.125 C 
BRANCH  21  22
ATOM     22  C   UNL     1       1.202  -6.662   1.145  0.00  0.00    +0.011 A 
ATOM     23  C   UNL     1       0.457  -7.772   1.367  0.00  0.00    +0.013 A 
ATOM     24  C   UNL     1       0.096  -8.089   2.663  0.00  0.00    +0.008 A 
ATOM     25  C   UNL     1       0.498  -7.280   3.674  0.00  0.00    +0.045 A 
ATOM     26  S   UNL     1       1.422  -6.028   2.799  0.00  0.00    -0.100 S 
ENDBRANCH  21  22
ENDBRANCH  12  13
ENDBRANCH  10  12
BRANCH   9  27
ATOM     27  C   UNL     1      -2.289  -2.950   0.084  0.00  0.00    +0.222 C 
BRANCH  27  28
ATOM     28  C   UNL     1      -2.789  -3.502   1.395  0.00  0.00    +0.230 C 
ATOM     29  O   UNL     1      -2.194  -3.255   2.422  0.00  0.00    -0.274 OA
ATOM     30  N   UNL     1      -3.896  -4.269   1.424  0.00  0.00    -0.328 N 
ATOM     31  H   UNL     1      -4.261  -4.671   2.381  0.00  0.00    +0.145 HD
ATOM     32  H   UNL     1      -4.436  -4.493   0.492  0.00  0.00    +0.145 HD
ENDBRANCH  27  28
ENDBRANCH   9  27
TORSDOF 5
