REMARK  Name = ZINC14548684
REMARK  5 active torsions:
REMARK  status: ('A' for Active; 'I' for Inactive)
REMARK    1  A    between atoms: C_2  and  C_3
REMARK    2  A    between atoms: C_3  and  N_4
REMARK    3  A    between atoms: N_4  and  S_5
REMARK    4  A    between atoms: S_5  and  C_8
REMARK    5  A    between atoms: C_21  and  C_24
REMARK                            x       y       z     vdW  Elec       q    Type
REMARK                         _______ _______ _______ _____ _____    ______ ____
ROOT
ATOM      1  C   UNL     1      -1.773   5.037  -2.354  0.00  0.00    +0.106 A 
ATOM      2  C   UNL     1      -1.870   5.703  -1.146  0.00  0.00    +0.030 A 
ATOM      3  C   UNL     1      -1.536   5.050   0.024  0.00  0.00    +0.025 A 
ATOM      4  C   UNL     1      -1.105   3.729  -0.017  0.00  0.00    +0.031 A 
ATOM      5  C   UNL     1      -1.004   3.060  -1.223  0.00  0.00    -0.018 A 
ATOM      6  C   UNL     1      -1.343   3.726  -2.394  0.00  0.00    +0.034 A 
ATOM      7  C   UNL     1      -0.539   1.633  -1.331  0.00  0.00    +0.049 C 
ATOM      8  C   UNL     1       0.702   1.623  -2.213  0.00  0.00    -0.023 C 
ATOM      9  C   UNL     1       1.786   1.638  -1.478  0.00  0.00    -0.030 C 
ATOM     10  C   UNL     1       1.426   1.655  -0.003  0.00  0.00    +0.033 C 
ATOM     11  C   UNL     1      -0.013   1.086   0.008  0.00  0.00    +0.029 C 
ATOM     12  C   UNL     1      -0.796   1.605   1.199  0.00  0.00    +0.111 C 
ATOM     13  N   UNL     1      -0.779   3.082   1.181  0.00  0.00    -0.336 N 
ATOM     14  H   UNL     1      -0.547   3.586   1.976  0.00  0.00    +0.147 HD
ENDROOT
BRANCH  12  15
ATOM     15  C   UNL     1      -2.221   1.123   1.111  0.00  0.00    +0.010 A 
ATOM     16  C   UNL     1      -2.812   0.084   1.750  0.00  0.00    +0.013 A 
ATOM     17  C   UNL     1      -4.150  -0.173   1.516  0.00  0.00    +0.008 A 
ATOM     18  C   UNL     1      -4.829   0.614   0.646  0.00  0.00    +0.045 A 
ATOM     19  S   UNL     1      -3.567   1.769   0.132  0.00  0.00    -0.100 S 
ENDBRANCH  12  15
BRANCH   1  20
ATOM     20  S   UNL     1      -2.201   5.865  -3.849  0.00  0.00    +0.059 S 
ATOM     21  O   UNL     1      -2.052   7.256  -3.599  0.00  0.00    -0.153 OA
ATOM     22  O   UNL     1      -1.505   5.201  -4.895  0.00  0.00    -0.153 OA
BRANCH  20  23
ATOM     23  N   UNL     1      -3.814   5.601  -4.111  0.00  0.00    -0.186 NA
ATOM     24  H   UNL     1      -4.103   5.088  -4.882  0.00  0.00    +0.148 HD
BRANCH  23  25
ATOM     25  C   UNL     1      -4.806   6.143  -3.179  0.00  0.00    +0.132 C 
BRANCH  25  27
ATOM     26  C   UNL     1      -7.157   5.482  -3.199  0.00  0.00    +0.005 C 
ATOM     27  C   UNL     1      -6.172   6.091  -3.813  0.00  0.00    -0.018 C 
ENDBRANCH  25  27
ENDBRANCH  23  25
ENDBRANCH  20  23
ENDBRANCH   1  20
TORSDOF 5
