REMARK  Name = ZINC33331740
REMARK  9 active torsions:
REMARK  status: ('A' for Active; 'I' for Inactive)
REMARK    1  A    between atoms: C_1  and  C_2
REMARK    2  A    between atoms: C_2  and  C_3
REMARK    3  A    between atoms: C_12  and  C_23
REMARK    4  A    between atoms: C_12  and  C_24
REMARK    5  A    between atoms: N_13  and  C_16
REMARK    6  A    between atoms: C_16  and  C_17
REMARK    7  A    between atoms: C_17  and  N_18
REMARK    8  A    between atoms: N_26  and  C_27
REMARK    9  A    between atoms: C_30  and  C_33
REMARK                            x       y       z     vdW  Elec       q    Type
REMARK                         _______ _______ _______ _____ _____    ______ ____
ROOT
ATOM      1  C   UNL     1      -4.808 -11.586   1.589  0.00  0.00    -0.008 A 
ATOM      2  C   UNL     1      -4.411 -10.297   1.643  0.00  0.00    +0.037 A 
ATOM      3  C   UNL     1      -3.261  -9.884   0.955  0.00  0.00    +0.057 A 
ATOM      4  C   UNL     1      -2.588 -10.887   0.241  0.00  0.00    +0.038 A 
ATOM      5  S   UNL     1      -3.568 -12.334   0.547  0.00  0.00    -0.092 S 
ATOM      6  C   UNL     1      -1.472 -10.344  -0.384  0.00  0.00    +0.048 A 
ATOM      7  C   UNL     1      -1.439  -9.019  -0.066  0.00  0.00    +0.106 A 
ATOM      8  N   UNL     1      -2.532  -8.728   0.743  0.00  0.00    -0.333 N 
ATOM      9  C   UNL     1      -2.792  -7.373   1.236  0.00  0.00    +0.157 C 
ATOM     10  C   UNL     1      -1.465  -6.627   1.372  0.00  0.00    +0.128 C 
ATOM     11  N   UNL     1      -0.608  -6.786   0.203  0.00  0.00    -0.282 N 
ATOM     12  C   UNL     1      -0.480  -7.971  -0.438  0.00  0.00    +0.264 C 
ATOM     13  O   UNL     1       0.383  -8.158  -1.276  0.00  0.00    -0.268 OA
ATOM     14  C   UNL     1      -0.726  -7.159   2.602  0.00  0.00    +0.043 C 
ENDROOT
BRANCH  10  15
ATOM     15  C   UNL     1      -1.749  -5.161   1.572  0.00  0.00    +0.238 C 
ATOM     16  O   UNL     1      -1.627  -4.664   2.672  0.00  0.00    -0.273 OA
ATOM     17  N   UNL     1      -2.138  -4.401   0.529  0.00  0.00    -0.311 N 
ATOM     18  H   UNL     1      -2.324  -4.866  -0.450  0.00  0.00    +0.149 HD
BRANCH  17  19
ATOM     19  C   UNL     1      -2.312  -2.957   0.700  0.00  0.00    +0.073 C 
ATOM     20  C   UNL     1      -2.273  -2.273  -0.669  0.00  0.00    +0.022 C 
ATOM     21  C   UNL     1      -2.455  -0.764  -0.491  0.00  0.00    +0.005 C 
ATOM     22  C   UNL     1      -3.803  -0.489   0.178  0.00  0.00    -0.014 C 
ATOM     23  C   UNL     1      -3.842  -1.172   1.547  0.00  0.00    +0.005 C 
ATOM     24  C   UNL     1      -3.660  -2.681   1.369  0.00  0.00    +0.022 C 
ATOM     25  C   UNL     1      -3.985   1.020   0.356  0.00  0.00    +0.007 C 
ENDBRANCH  17  19
ENDBRANCH  10  15
BRANCH   1  27
ATOM     26  C   UNL     1      -7.205 -12.154   1.304  0.00  0.00    +0.009 C 
ATOM     27  C   UNL     1      -6.002 -12.231   2.246  0.00  0.00    +0.039 C 
ENDBRANCH   1  27
BRANCH  11  28
ATOM     28  C   UNL     1       0.137  -5.626  -0.293  0.00  0.00    +0.091 C 
BRANCH  28  29
ATOM     29  C   UNL     1       1.462  -5.509   0.463  0.00  0.00    -0.060 C 
BRANCH  29  30
ATOM     30  N   UNL     1       2.252  -4.407  -0.102  0.00  0.00    +0.381 N 
ATOM     31  C   UNL     1       1.541  -3.112   0.045  0.00  0.00    -0.079 C 
ATOM     32  C   UNL     1       2.676  -2.066  -0.092  0.00  0.00    -0.020 C 
ATOM     33  C   UNL     1       3.860  -2.744   0.636  0.00  0.00    -0.020 C 
ATOM     34  C   UNL     1       3.533  -4.248   0.622  0.00  0.00    -0.079 C 
ATOM     35  H   UNL     1       2.416  -4.666  -1.158  0.00  0.00    -0.082 HD
ENDBRANCH  29  30
ENDBRANCH  28  29
ENDBRANCH  11  28
TORSDOF 6
