REMARK  Name = ZINC60305580
REMARK  7 active torsions:
REMARK  status: ('A' for Active; 'I' for Inactive)
REMARK    1  A    between atoms: C_3  and  C_6
REMARK    2  A    between atoms: N_8  and  C_9
REMARK    3  A    between atoms: C_9  and  C_10
REMARK    4  A    between atoms: C_10  and  C_11
REMARK    5  A    between atoms: C_11  and  N_12
REMARK    6  A    between atoms: C_13  and  C_15
REMARK    7  A    between atoms: C_18  and  C_20
REMARK                            x       y       z     vdW  Elec       q    Type
REMARK                         _______ _______ _______ _____ _____    ______ ____
ROOT
ATOM      1  N   UNL     1       9.334  -0.828  -0.091  0.00  0.00    -0.310 N 
ATOM      2  C   UNL     1      10.675  -0.687  -0.104  0.00  0.00    +0.263 C 
ATOM      3  O   UNL     1      11.169   0.424  -0.102  0.00  0.00    -0.269 OA
ATOM      4  H   UNL     1       8.940  -1.714  -0.092  0.00  0.00    +0.149 HD
ENDROOT
BRANCH   2   5
ATOM      5  C   UNL     1      11.540  -1.878  -0.118  0.00  0.00    +0.133 A 
ATOM      6  C   UNL     1      12.903  -1.746  -0.125  0.00  0.00    +0.080 A 
ATOM      7  S   UNL     1      13.426  -3.345  -0.141  0.00  0.00    -0.074 S 
ATOM      8  C   UNL     1      11.826  -4.136  -0.137  0.00  0.00    +0.116 A 
ATOM      9  N   UNL     1      11.010  -3.095  -0.119  0.00  0.00    -0.234 NA
BRANCH   8  10
ATOM     10  C   UNL     1      11.501  -5.571  -0.146  0.00  0.00    +0.046 A 
ATOM     11  C   UNL     1      12.348  -6.650  -0.153  0.00  0.00    +0.019 A 
ATOM     12  C   UNL     1      11.807  -7.915  -0.160  0.00  0.00    +0.028 A 
ATOM     13  C   UNL     1      10.455  -8.057  -0.160  0.00  0.00    +0.079 A 
ATOM     14  S   UNL     1       9.899  -6.361  -0.142  0.00  0.00    -0.075 S 
ATOM     15 CL   UNL     1       9.511  -9.514  -0.168  0.00  0.00    -0.076 Cl
ENDBRANCH   8  10
ENDBRANCH   2   5
BRANCH   1  16
ATOM     16  C   UNL     1       8.473   0.357  -0.077  0.00  0.00    +0.106 C 
BRANCH  16  17
ATOM     17  C   UNL     1       7.006  -0.078  -0.065  0.00  0.00    +0.037 C 
BRANCH  17  18
ATOM     18  C   UNL     1       6.107   1.160  -0.050  0.00  0.00    +0.106 C 
BRANCH  18  21
ATOM     19  C   UNL     1       3.725   1.670  -0.025  0.00  0.00    +0.251 C 
ATOM     20  O   UNL     1       4.008   2.853  -0.021  0.00  0.00    -0.270 OA
ATOM     21  N   UNL     1       4.703   0.743  -0.039  0.00  0.00    -0.311 N 
ATOM     22  H   UNL     1       4.477  -0.201  -0.042  0.00  0.00    +0.149 HD
BRANCH  19  25
ATOM     23  C   UNL     1      -0.016   1.352   0.009  0.00  0.00    +0.008 A 
ATOM     24  C   UNL     1       1.175   2.036   0.002  0.00  0.00    +0.021 A 
ATOM     25  C   UNL     1       2.320   1.253  -0.013  0.00  0.00    +0.074 A 
ATOM     26  S   UNL     1       1.636  -0.394  -0.016  0.00  0.00    -0.092 S 
ATOM     27  C   UNL     1       0.002  -0.004   0.002  0.00  0.00    +0.046 A 
ENDBRANCH  19  25
ENDBRANCH  18  21
ENDBRANCH  17  18
ENDBRANCH  16  17
ENDBRANCH   1  16
TORSDOF 7
