REMARK  Name = ZINC08940335
REMARK  9 active torsions:
REMARK  status: ('A' for Active; 'I' for Inactive)
REMARK    1  A    between atoms: C_1  and  C_2
REMARK    2  A    between atoms: C_2  and  C_3
REMARK    3  A    between atoms: C_4  and  C_14
REMARK    4  A    between atoms: C_5  and  C_13
REMARK    5  A    between atoms: C_14  and  O_16
REMARK    6  A    between atoms: O_16  and  C_17
REMARK    7  A    between atoms: C_17  and  C_18
REMARK    8  A    between atoms: N_24  and  C_25
REMARK    9  A    between atoms: N_24  and  C_26
REMARK                            x       y       z     vdW  Elec       q    Type
REMARK                         _______ _______ _______ _____ _____    ______ ____
ROOT
ATOM      1  C   UNL     1       0.020  -4.227  -0.021  0.00  0.00    +0.342 C 
ATOM      2  O   UNL     1       0.016  -4.840   1.027  0.00  0.00    -0.245 OA
ENDROOT
BRANCH   1   4
ATOM      3  C   UNL     1      -1.141  -2.013   0.002  0.00  0.00    +0.056 A 
ATOM      4  C   UNL     1       0.056  -2.751  -0.013  0.00  0.00    +0.084 A 
ATOM      5  C   UNL     1       1.274  -2.080  -0.021  0.00  0.00    -0.026 A 
ATOM      6  C   UNL     1       1.251  -0.675  -0.013  0.00  0.00    +0.004 A 
ATOM      7  C   UNL     1       2.441   0.073  -0.021  0.00  0.00    +0.010 A 
ATOM      8  C   UNL     1       2.381   1.433  -0.014  0.00  0.00    +0.001 A 
ATOM      9  C   UNL     1       1.155   2.094   0.002  0.00  0.00    +0.002 A 
ATOM     10  C   UNL     1      -0.017   1.401   0.010  0.00  0.00    +0.028 A 
ATOM     11  C   UNL     1       0.002  -0.004   0.002  0.00  0.00    +0.072 A 
ATOM     12  N   UNL     1      -1.138  -0.705   0.009  0.00  0.00    -0.251 NA
ATOM     13  C   UNL     1       2.578  -2.835  -0.037  0.00  0.00    +0.045 C 
BRANCH   3  15
ATOM     14  C   UNL     1      -2.889  -3.001   1.457  0.00  0.00    +0.010 C 
ATOM     15  C   UNL     1      -2.458  -2.746   0.011  0.00  0.00    +0.053 C 
ENDBRANCH   3  15
ENDBRANCH   1   4
BRANCH   1  16
ATOM     16  O   UNL     1      -0.007  -4.894  -1.192  0.00  0.00    -0.453 OA
BRANCH  16  17
ATOM     17  C   UNL     1      -0.042  -6.344  -1.124  0.00  0.00    +0.308 C 
BRANCH  17  18
ATOM     18  C   UNL     1      -0.070  -6.912  -2.519  0.00  0.00    +0.173 A 
ATOM     19  N   UNL     1       1.064  -7.188  -3.141  0.00  0.00    -0.196 NA
ATOM     20  C   UNL     1       1.043  -7.690  -4.373  0.00  0.00    +0.217 A 
ATOM     21  N   UNL     1      -0.118  -7.914  -4.979  0.00  0.00    -0.181 NA
ATOM     22  C   UNL     1      -1.255  -7.635  -4.351  0.00  0.00    +0.222 A 
ATOM     23  N   UNL     1      -1.227  -7.138  -3.116  0.00  0.00    -0.196 NA
ATOM     24  N   UNL     1      -2.464  -7.865  -4.975  0.00  0.00    -0.306 N 
ATOM     25  C   UNL     1      -2.494  -8.418  -6.332  0.00  0.00    +0.132 C 
ATOM     26  C   UNL     1      -3.717  -7.557  -4.282  0.00  0.00    +0.132 C 
ATOM     27  N   UNL     1       2.227  -7.978  -5.022  0.00  0.00    -0.327 N 
ATOM     28  H   UNL     1       3.075  -7.814  -4.580  0.00  0.00    +0.145 HD
ATOM     29  H   UNL     1       2.212  -8.344  -5.920  0.00  0.00    +0.145 HD
ENDBRANCH  17  18
ENDBRANCH  16  17
ENDBRANCH   1  16
TORSDOF 5
