REMARK  Name = ZINC02262694
REMARK  6 active torsions:
REMARK  status: ('A' for Active; 'I' for Inactive)
REMARK    1  A    between atoms: C_4  and  C_34
REMARK    2  A    between atoms: C_5  and  C_7
REMARK    3  A    between atoms: C_7  and  O_8
REMARK    4  A    between atoms: O_8  and  C_9
REMARK    5  A    between atoms: C_12  and  C_16
REMARK    6  A    between atoms: N_23  and  C_26
REMARK                            x       y       z     vdW  Elec       q    Type
REMARK                         _______ _______ _______ _____ _____    ______ ____
ROOT
ATOM      1  C   UNL     1      -0.149   7.112  -2.310  0.00  0.00    +0.157 A 
ATOM      2  C   UNL     1       1.214   6.864  -2.451  0.00  0.00    +0.085 A 
ATOM      3  C   UNL     1       1.759   5.700  -1.959  0.00  0.00    +0.031 A 
ATOM      4  C   UNL     1       0.938   4.762  -1.315  0.00  0.00    -0.021 A 
ATOM      5  C   UNL     1      -0.436   5.015  -1.181  0.00  0.00    +0.031 A 
ATOM      6  C   UNL     1      -0.968   6.185  -1.671  0.00  0.00    +0.085 A 
ATOM      7 CL   UNL     1      -2.666   6.503  -1.500  0.00  0.00    -0.080 Cl
ATOM      8 CL   UNL     1       2.228   8.027  -3.248  0.00  0.00    -0.080 Cl
ENDROOT
BRANCH   4   9
ATOM      9  C   UNL     1       1.511   3.523  -0.791  0.00  0.00    +0.026 C 
ATOM     10  C   UNL     1       1.116   3.048   0.446  0.00  0.00    +0.100 C 
ATOM     11  C   UNL     1       1.452   1.681   0.890  0.00  0.00    +0.257 C 
ATOM     12  O   UNL     1       2.088   0.930   0.175  0.00  0.00    -0.270 OA
ATOM     13  N   UNL     1       1.034   1.287   2.111  0.00  0.00    -0.235 N 
ATOM     14  C   UNL     1       0.327   2.102   2.906  0.00  0.00    +0.320 C 
ATOM     15  O   UNL     1      -0.023   1.683   3.992  0.00  0.00    -0.251 OA
ATOM     16  N   UNL     1      -0.008   3.356   2.572  0.00  0.00    -0.190 N 
ATOM     17  C   UNL     1       0.341   3.886   1.382  0.00  0.00    +0.263 C 
ATOM     18  O   UNL     1       0.027   5.024   1.088  0.00  0.00    -0.269 OA
ATOM     19  H   UNL     1       1.246   0.392   2.418  0.00  0.00    +0.159 HD
BRANCH  16  20
ATOM     20  C   UNL     1      -0.745   4.132   3.478  0.00  0.00    +0.046 A 
ATOM     21  C   UNL     1      -2.125   4.000   3.545  0.00  0.00    +0.027 A 
ATOM     22  C   UNL     1      -2.848   4.762   4.442  0.00  0.00    +0.040 A 
ATOM     23  C   UNL     1      -2.198   5.665   5.266  0.00  0.00    +0.124 A 
ATOM     24  C   UNL     1      -0.822   5.802   5.197  0.00  0.00    +0.040 A 
ATOM     25  C   UNL     1      -0.095   5.038   4.305  0.00  0.00    +0.027 A 
ATOM     26  F   UNL     1      -2.908   6.413   6.139  0.00  0.00    -0.205 F 
ENDBRANCH  16  20
ENDBRANCH   4   9
BRANCH   1  27
ATOM     27  O   UNL     1      -0.680   8.262  -2.796  0.00  0.00    -0.484 OA
BRANCH  27  28
ATOM     28  C   UNL     1      -1.154   8.239  -4.144  0.00  0.00    +0.266 C 
BRANCH  28  33
ATOM     29  C   UNL     1      -2.199  11.860  -3.910  0.00  0.00    +0.000 A 
ATOM     30  C   UNL     1      -2.720  12.089  -5.171  0.00  0.00    +0.001 A 
ATOM     31  C   UNL     1      -2.739  11.077  -6.108  0.00  0.00    +0.019 A 
ATOM     32  C   UNL     1      -2.225   9.820  -5.782  0.00  0.00    +0.058 A 
ATOM     33  C   UNL     1      -1.705   9.594  -4.506  0.00  0.00    +0.007 A 
ATOM     34  C   UNL     1      -1.693  10.616  -3.579  0.00  0.00    +0.008 A 
BRANCH  32  35
ATOM     35  C   UNL     1      -2.236   8.765  -6.751  0.00  0.00    +0.100 C 
ATOM     36  N   UNL     1      -2.244   7.929  -7.520  0.00  0.00    -0.191 NA
ENDBRANCH  32  35
ENDBRANCH  28  33
ENDBRANCH  27  28
ENDBRANCH   1  27
TORSDOF 6
