REMARK  Name = ZINC59383017
REMARK  6 active torsions:
REMARK  status: ('A' for Active; 'I' for Inactive)
REMARK    1  A    between atoms: C_4  and  S_7
REMARK    2  A    between atoms: S_7  and  N_10
REMARK    3  A    between atoms: N_10  and  C_11
REMARK    4  A    between atoms: N_10  and  C_24
REMARK    5  A    between atoms: C_11  and  C_12
REMARK    6  A    between atoms: N_14  and  N_15
REMARK                            x       y       z     vdW  Elec       q    Type
REMARK                         _______ _______ _______ _____ _____    ______ ____
ROOT
ATOM      1  N   UNL     1       4.378  -1.079   1.536  0.00  0.00    -0.194 N 
ENDROOT
BRANCH   1   2
ATOM      2  C   UNL     1       5.241  -0.180   2.167  0.00  0.00    +0.052 A 
ATOM      3  C   UNL     1       4.914   0.340   3.413  0.00  0.00    +0.026 A 
ATOM      4  C   UNL     1       5.769   1.228   4.035  0.00  0.00    +0.017 A 
ATOM      5  C   UNL     1       6.950   1.601   3.418  0.00  0.00    +0.018 A 
ATOM      6  C   UNL     1       7.279   1.085   2.177  0.00  0.00    +0.017 A 
ATOM      7  C   UNL     1       6.430   0.192   1.553  0.00  0.00    +0.026 A 
ATOM      8 BR   UNL     1       8.118   2.818   4.272  0.00  0.00    -0.050 Br
ENDBRANCH   1   2
BRANCH   1   9
ATOM      9  S   UNL     1       3.741  -0.711   0.052  0.00  0.00    +0.075 S 
ATOM     10  O   UNL     1       3.524  -1.947  -0.615  0.00  0.00    -0.150 OA
ATOM     11  O   UNL     1       4.554   0.317  -0.496  0.00  0.00    -0.150 OA
BRANCH   9  15
ATOM     12  C   UNL     1      -0.343   1.109   0.759  0.00  0.00    +0.000 A 
ATOM     13  C   UNL     1       0.776   1.920   0.709  0.00  0.00    +0.002 A 
ATOM     14  C   UNL     1       2.023   1.364   0.493  0.00  0.00    +0.029 A 
ATOM     15  C   UNL     1       2.151  -0.003   0.328  0.00  0.00    +0.109 A 
ATOM     16  C   UNL     1       1.033  -0.813   0.379  0.00  0.00    +0.029 A 
ATOM     17  C   UNL     1      -0.215  -0.257   0.593  0.00  0.00    +0.002 A 
ENDBRANCH   9  15
ENDBRANCH   1   9
BRANCH   1  18
ATOM     18  C   UNL     1       4.036  -2.346   2.186  0.00  0.00    +0.228 C 
BRANCH  18  19
ATOM     19  C   UNL     1       5.096  -3.371   1.877  0.00  0.00    +0.251 C 
ATOM     20  O   UNL     1       6.044  -3.072   1.182  0.00  0.00    -0.272 OA
ATOM     21  N   UNL     1       4.991  -4.620   2.373  0.00  0.00    -0.206 N 
ATOM     22  H   UNL     1       4.233  -4.859   2.929  0.00  0.00    +0.177 HD
BRANCH  21  23
ATOM     23  N   UNL     1       5.977  -5.573   2.086  0.00  0.00    -0.189 NA
ATOM     24  C   UNL     1       5.877  -6.759   2.557  0.00  0.00    +0.037 C 
ATOM     25  C   UNL     1       4.697  -7.143   3.419  0.00  0.00    +0.052 C 
ATOM     26  C   UNL     1       3.442  -7.167   2.561  0.00  0.00    +0.006 C 
ATOM     27  C   UNL     1       3.483  -8.400   1.638  0.00  0.00    +0.000 C 
ATOM     28  C   UNL     1       4.419  -8.121   0.467  0.00  0.00    +0.000 C 
ATOM     29  C   UNL     1       5.654  -9.040   0.515  0.00  0.00    +0.000 C 
ATOM     30  C   UNL     1       6.215  -9.104   1.934  0.00  0.00    +0.006 C 
ATOM     31  C   UNL     1       6.924  -7.783   2.256  0.00  0.00    +0.052 C 
ENDBRANCH  21  23
ENDBRANCH  18  19
ENDBRANCH   1  18
TORSDOF 6
