REMARK  Name = ZINC59171155
REMARK  9 active torsions:
REMARK  status: ('A' for Active; 'I' for Inactive)
REMARK    1  A    between atoms: C_1  and  C_2
REMARK    2  A    between atoms: C_2  and  O_3
REMARK    3  A    between atoms: O_3  and  C_4
REMARK    4  A    between atoms: C_8  and  N_10
REMARK    5  A    between atoms: C_12  and  C_24
REMARK    6  A    between atoms: C_18  and  O_21
REMARK    7  A    between atoms: O_21  and  C_22
REMARK    8  A    between atoms: C_22  and  C_23
REMARK    9  A    between atoms: C_24  and  N_26
REMARK                            x       y       z     vdW  Elec       q    Type
REMARK                         _______ _______ _______ _____ _____    ______ ____
ROOT
ATOM      1  N   UNL     1       2.188  -3.956   3.990  0.00  0.00    -0.325 N 
ATOM      2  C   UNL     1       1.666  -5.077   4.439  0.00  0.00    +0.209 A 
ATOM      3  C   UNL     1       2.395  -5.924   5.404  0.00  0.00    +0.064 A 
ATOM      4  C   UNL     1       1.634  -6.728   6.242  0.00  0.00    +0.027 A 
ATOM      5  C   UNL     1       0.177  -6.663   6.096  0.00  0.00    +0.022 A 
ATOM      6  C   UNL     1      -0.665  -7.226   7.063  0.00  0.00    +0.012 A 
ATOM      7  C   UNL     1      -2.021  -7.150   6.910  0.00  0.00    +0.004 A 
ATOM      8  C   UNL     1      -2.573  -6.519   5.805  0.00  0.00    +0.049 A 
ATOM      9  C   UNL     1      -1.759  -5.957   4.835  0.00  0.00    +0.163 A 
ATOM     10  C   UNL     1      -0.376  -6.026   4.971  0.00  0.00    +0.179 A 
ATOM     11  O   UNL     1       0.437  -5.487   4.034  0.00  0.00    -0.435 OA
ATOM     12  H   UNL     1       3.021  -3.626   4.362  0.00  0.00    +0.169 HD
ENDROOT
BRANCH   1  17
ATOM     13  C   UNL     1       0.778  -1.169   2.092  0.00  0.00    +0.122 A 
ATOM     14  C   UNL     1       0.278  -1.843   0.985  0.00  0.00    +0.046 A 
ATOM     15  C   UNL     1       0.416  -3.215   0.883  0.00  0.00    +0.006 A 
ATOM     16  C   UNL     1       1.052  -3.925   1.881  0.00  0.00    +0.026 A 
ATOM     17  C   UNL     1       1.558  -3.256   2.999  0.00  0.00    +0.045 A 
ATOM     18  C   UNL     1       1.422  -1.870   3.097  0.00  0.00    +0.071 A 
BRANCH  13  19
ATOM     19  O   UNL     1       0.639   0.179   2.186  0.00  0.00    -0.492 OA
BRANCH  19  21
ATOM     20  C   UNL     1      -0.096   2.341   1.393  0.00  0.00    +0.048 C 
ATOM     21  C   UNL     1      -0.037   0.838   1.113  0.00  0.00    +0.225 C 
ENDBRANCH  19  21
ENDBRANCH  13  19
ENDBRANCH   1  17
BRANCH   3  22
ATOM     22  C   UNL     1       3.865  -5.917   5.474  0.00  0.00    +0.082 C 
ATOM     23  S   UNL     1       4.772  -5.032   4.323  0.00  0.00    -0.035 S 
BRANCH  22  24
ATOM     24  N   UNL     1       4.496  -6.606   6.444  0.00  0.00    -0.352 N 
ATOM     25  H   UNL     1       3.982  -7.108   7.097  0.00  0.00    +0.143 HD
ATOM     26  H   UNL     1       5.465  -6.602   6.491  0.00  0.00    +0.143 HD
ENDBRANCH  22  24
ENDBRANCH   3  22
BRANCH   9  27
ATOM     27  O   UNL     1      -2.309  -5.342   3.755  0.00  0.00    -0.489 OA
BRANCH  27  28
ATOM     28  C   UNL     1      -3.736  -5.310   3.683  0.00  0.00    +0.226 C 
ATOM     29  C   UNL     1      -4.167  -4.582   2.408  0.00  0.00    +0.048 C 
ENDBRANCH  27  28
ENDBRANCH   9  27
TORSDOF 7
