REMARK  Name = ZINC35758602
REMARK  7 active torsions:
REMARK  status: ('A' for Active; 'I' for Inactive)
REMARK    1  A    between atoms: C_4  and  C_7
REMARK    2  A    between atoms: C_7  and  C_8
REMARK    3  A    between atoms: C_8  and  N_9
REMARK    4  A    between atoms: C_10  and  C_12
REMARK    5  A    between atoms: C_12  and  N_13
REMARK    6  A    between atoms: N_15  and  C_33
REMARK    7  A    between atoms: C_24  and  C_26
REMARK                            x       y       z     vdW  Elec       q    Type
REMARK                         _______ _______ _______ _____ _____    ______ ____
ROOT
ATOM      1  N   UNL     1       7.826  -3.003   3.892  0.00  0.00    -0.275 N 
ATOM      2  C   UNL     1       8.663  -2.096   4.675  0.00  0.00    +0.217 C 
ATOM      3  N   UNL     1       8.860  -2.691   6.003  0.00  0.00    -0.300 N 
ATOM      4  C   UNL     1       8.124  -3.962   5.987  0.00  0.00    +0.115 C 
ATOM      5  C   UNL     1       7.497  -4.081   4.623  0.00  0.00    +0.241 C 
ATOM      6  O   UNL     1       6.806  -5.004   4.244  0.00  0.00    -0.273 OA
ATOM      7  C   UNL     1       9.088  -5.123   6.230  0.00  0.00    +0.054 C 
ATOM      8  C   UNL     1       9.753  -4.953   7.600  0.00  0.00    +0.110 C 
ATOM      9  N   UNL     1       8.705  -4.805   8.619  0.00  0.00    -0.297 N 
ATOM     10  C   UNL     1       7.683  -3.766   8.437  0.00  0.00    +0.110 C 
ATOM     11  C   UNL     1       7.036  -3.947   7.060  0.00  0.00    +0.054 C 
ATOM     12  C   UNL     1       8.682  -5.609   9.701  0.00  0.00    +0.248 C 
ATOM     13  O   UNL     1       7.760  -5.539  10.491  0.00  0.00    -0.270 OA
ENDROOT
BRANCH  12  14
ATOM     14  C   UNL     1       9.777  -6.575   9.927  0.00  0.00    +0.055 A 
ATOM     15  C   UNL     1      11.072  -6.121  10.178  0.00  0.00    +0.014 A 
ATOM     16  C   UNL     1      12.089  -7.028  10.389  0.00  0.00    +0.001 A 
ATOM     17  C   UNL     1      11.829  -8.387  10.351  0.00  0.00    +0.001 A 
ATOM     18  C   UNL     1      10.548  -8.845  10.102  0.00  0.00    +0.021 A 
ATOM     19  C   UNL     1       9.518  -7.948   9.896  0.00  0.00    +0.053 A 
ATOM     20 CL   UNL     1       7.909  -8.524   9.591  0.00  0.00    -0.083 Cl
ENDBRANCH  12  14
BRANCH   3  21
ATOM     21  C   UNL     1       9.595  -2.157   7.064  0.00  0.00    +0.032 A 
ATOM     22  C   UNL     1      10.299  -0.972   6.897  0.00  0.00    +0.023 A 
ATOM     23  C   UNL     1      11.024  -0.447   7.948  0.00  0.00    +0.002 A 
ATOM     24  C   UNL     1      11.051  -1.100   9.166  0.00  0.00    +0.000 A 
ATOM     25  C   UNL     1      10.351  -2.281   9.336  0.00  0.00    +0.002 A 
ATOM     26  C   UNL     1       9.619  -2.808   8.291  0.00  0.00    +0.023 A 
ENDBRANCH   3  21
BRANCH   1  27
ATOM     27  C   UNL     1       7.402  -2.768   2.509  0.00  0.00    +0.205 C 
BRANCH  27  29
ATOM     28  N   UNL     1       5.512  -1.685   1.337  0.00  0.00    -0.314 N 
ATOM     29  C   UNL     1       6.096  -2.014   2.506  0.00  0.00    +0.230 C 
ATOM     30  O   UNL     1       5.572  -1.704   3.555  0.00  0.00    -0.274 OA
ATOM     31  H   UNL     1       5.931  -1.932   0.498  0.00  0.00    +0.149 HD
BRANCH  28  32
ATOM     32  C   UNL     1       4.243  -0.952   1.334  0.00  0.00    +0.109 C 
BRANCH  32  33
ATOM     33  C   UNL     1       3.800  -0.706  -0.110  0.00  0.00    +0.054 C 
BRANCH  33  37
ATOM     34  C   UNL     1       0.101   1.430  -0.122  0.00  0.00    +0.000 A 
ATOM     35  C   UNL     1       1.298   2.121  -0.126  0.00  0.00    +0.000 A 
ATOM     36  C   UNL     1       2.495   1.430  -0.122  0.00  0.00    +0.004 A 
ATOM     37  C   UNL     1       2.495   0.048  -0.114  0.00  0.00    -0.046 A 
ATOM     38  C   UNL     1       1.298  -0.643  -0.108  0.00  0.00    +0.004 A 
ATOM     39  C   UNL     1       0.101   0.048  -0.114  0.00  0.00    +0.000 A 
ENDBRANCH  33  37
ENDBRANCH  32  33
ENDBRANCH  28  32
ENDBRANCH  27  29
ENDBRANCH   1  27
TORSDOF 7
