REMARK  Name = ZINC35026610
REMARK  8 active torsions:
REMARK  status: ('A' for Active; 'I' for Inactive)
REMARK    1  A    between atoms: C_1  and  C_2
REMARK    2  A    between atoms: C_2  and  N_3
REMARK    3  A    between atoms: C_13  and  C_14
REMARK    4  A    between atoms: C_14  and  C_16
REMARK    5  A    between atoms: C_14  and  N_17
REMARK    6  A    between atoms: N_17  and  C_18
REMARK    7  A    between atoms: C_18  and  C_19
REMARK    8  A    between atoms: N_27  and  C_28
REMARK                            x       y       z     vdW  Elec       q    Type
REMARK                         _______ _______ _______ _____ _____    ______ ____
ROOT
ATOM      1  N   UNL     1      -2.498  -0.464  -3.268  0.00  0.00    -0.271 N 
ATOM      2  C   UNL     1      -2.282  -1.505  -4.096  0.00  0.00    +0.307 C 
ATOM      3  O   UNL     1      -1.324  -2.233  -3.921  0.00  0.00    -0.252 OA
ATOM      4  N   UNL     1      -3.127  -1.739  -5.120  0.00  0.00    -0.268 N 
ATOM      5  H   UNL     1      -3.849  -1.117  -5.304  0.00  0.00    +0.156 HD
ENDROOT
BRANCH   4   6
ATOM      6  C   UNL     1      -2.964  -2.878  -5.916  0.00  0.00    +0.049 A 
ATOM      7  C   UNL     1      -2.406  -4.030  -5.377  0.00  0.00    +0.024 A 
ATOM      8  C   UNL     1      -2.247  -5.153  -6.165  0.00  0.00    +0.002 A 
ATOM      9  C   UNL     1      -2.643  -5.132  -7.490  0.00  0.00    +0.001 A 
ATOM     10  C   UNL     1      -3.199  -3.987  -8.030  0.00  0.00    +0.017 A 
ATOM     11  C   UNL     1      -3.366  -2.862  -7.246  0.00  0.00    +0.039 A 
ATOM     12 BR   UNL     1      -4.134  -1.299  -7.983  0.00  0.00    -0.048 Br
ENDBRANCH   4   6
BRANCH   1  13
ATOM     13  C   UNL     1      -1.579  -0.210  -2.156  0.00  0.00    +0.141 C 
ATOM     14  C   UNL     1      -0.848   1.114  -2.390  0.00  0.00    +0.036 C 
BRANCH  13  25
ATOM     15  N   UNL     1      -2.833  -1.287  -0.333  0.00  0.00    -0.295 N 
ATOM     16  C   UNL     1      -3.534  -1.272   0.826  0.00  0.00    +0.262 A 
ATOM     17  O   UNL     1      -3.961  -2.299   1.319  0.00  0.00    -0.267 OA
ATOM     18  C   UNL     1      -3.757   0.033   1.464  0.00  0.00    +0.065 A 
ATOM     19  C   UNL     1      -4.465   0.158   2.658  0.00  0.00    +0.015 A 
ATOM     20  C   UNL     1      -4.645   1.406   3.213  0.00  0.00    +0.001 A 
ATOM     21  C   UNL     1      -4.128   2.536   2.593  0.00  0.00    +0.002 A 
ATOM     22  C   UNL     1      -3.426   2.434   1.413  0.00  0.00    +0.028 A 
ATOM     23  C   UNL     1      -3.230   1.180   0.831  0.00  0.00    +0.078 A 
ATOM     24  N   UNL     1      -2.544   1.034  -0.330  0.00  0.00    -0.232 NA
ATOM     25  C   UNL     1      -2.357  -0.133  -0.868  0.00  0.00    +0.133 A 
BRANCH  15  27
ATOM     26  C   UNL     1      -1.304  -3.192  -0.454  0.00  0.00    +0.027 C 
ATOM     27  C   UNL     1      -2.581  -2.560  -1.012  0.00  0.00    +0.123 C 
ENDBRANCH  15  27
ENDBRANCH  13  25
ENDBRANCH   1  13
BRANCH   1  28
ATOM     28  C   UNL     1      -3.652   0.413  -3.480  0.00  0.00    +0.145 C 
BRANCH  28  29
ATOM     29  C   UNL     1      -4.872  -0.199  -2.841  0.00  0.00    -0.030 A 
ATOM     30  C   UNL     1      -5.595  -1.164  -3.517  0.00  0.00    +0.005 A 
ATOM     31  C   UNL     1      -6.714  -1.726  -2.931  0.00  0.00    +0.000 A 
ATOM     32  C   UNL     1      -7.110  -1.322  -1.669  0.00  0.00    +0.000 A 
ATOM     33  C   UNL     1      -6.387  -0.357  -0.994  0.00  0.00    +0.000 A 
ATOM     34  C   UNL     1      -5.265   0.201  -1.578  0.00  0.00    +0.005 A 
ENDBRANCH  28  29
ENDBRANCH   1  28
TORSDOF 6
