REMARK  Name = ZINC40570130
REMARK  13 active torsions:
REMARK  status: ('A' for Active; 'I' for Inactive)
REMARK    1  A    between atoms: C_1  and  C_2
REMARK    2  A    between atoms: C_5  and  O_8
REMARK    3  A    between atoms: O_8  and  C_9
REMARK    4  A    between atoms: C_9  and  C_11
REMARK    5  A    between atoms: C_12  and  N_37
REMARK    6  A    between atoms: C_14  and  C_25
REMARK    7  A    between atoms: N_22  and  C_24
REMARK    8  A    between atoms: C_27  and  O_35
REMARK    9  A    between atoms: C_28  and  O_33
REMARK   10  A    between atoms: C_30  and  O_31
REMARK   11  A    between atoms: O_31  and  C_32
REMARK   12  A    between atoms: O_33  and  C_34
REMARK   13  A    between atoms: O_35  and  C_36
REMARK                            x       y       z     vdW  Elec       q    Type
REMARK                         _______ _______ _______ _____ _____    ______ ____
ROOT
ATOM      1  C   UNL     1       0.308  -6.175   1.196  0.00  0.00    +0.120 A 
ATOM      2  C   UNL     1       0.433  -6.997   2.298  0.00  0.00    +0.056 A 
ATOM      3  C   UNL     1       0.553  -8.428   2.080  0.00  0.00    +0.037 A 
ATOM      4  C   UNL     1       0.694  -9.470   3.043  0.00  0.00    +0.000 A 
ATOM      5  C   UNL     1       0.794 -10.790   2.606  0.00  0.00    -0.034 A 
ATOM      6  C   UNL     1       0.754 -11.073   1.256  0.00  0.00    +0.043 A 
ATOM      7  N   UNL     1       0.624 -10.096   0.371  0.00  0.00    -0.244 NA
ATOM      8  C   UNL     1       0.527  -8.835   0.728  0.00  0.00    +0.112 A 
ATOM      9  S   UNL     1       0.341  -7.315  -0.173  0.00  0.00    -0.060 S 
ATOM     10  C   UNL     1       0.851 -12.490   0.749  0.00  0.00    +0.037 C 
ATOM     11  C   UNL     1       1.393 -13.399   1.852  0.00  0.00    -0.073 C 
ATOM     12  N   UNL     1       0.598 -13.181   3.071  0.00  0.00    +0.381 N 
ATOM     13  C   UNL     1       0.947 -11.876   3.639  0.00  0.00    -0.041 C 
ATOM     14  C   UNL     1       0.896 -14.238   4.047  0.00  0.00    -0.096 C 
ATOM     15  H   UNL     1      -0.384 -13.199   2.841  0.00  0.00    -0.082 HD
ENDROOT
BRANCH   4  16
ATOM     16  C   UNL     1       0.735  -9.154   4.488  0.00  0.00    +0.028 A 
ATOM     17  C   UNL     1      -0.447  -9.120   5.231  0.00  0.00    +0.061 A 
ATOM     18  C   UNL     1      -0.405  -8.825   6.579  0.00  0.00    +0.162 A 
ATOM     19  C   UNL     1       0.815  -8.562   7.200  0.00  0.00    +0.165 A 
ATOM     20  C   UNL     1       1.991  -8.595   6.467  0.00  0.00    +0.095 A 
ATOM     21  C   UNL     1       1.959  -8.895   5.115  0.00  0.00    +0.131 A 
BRANCH  21  22
ATOM     22  O   UNL     1       3.112  -8.932   4.399  0.00  0.00    -0.494 OA
ATOM     23  C   UNL     1       4.324  -8.657   5.105  0.00  0.00    +0.277 C 
ENDBRANCH  21  22
BRANCH  19  24
ATOM     24  O   UNL     1       0.852  -8.273   8.527  0.00  0.00    -0.491 OA
ATOM     25  C   UNL     1       2.135  -8.013   9.099  0.00  0.00    +0.277 C 
ENDBRANCH  19  24
BRANCH  18  26
ATOM     26  O   UNL     1      -1.556  -8.791   7.303  0.00  0.00    -0.491 OA
ATOM     27  C   UNL     1      -2.771  -9.070   6.604  0.00  0.00    +0.277 C 
ENDBRANCH  18  26
ENDBRANCH   4  16
BRANCH   2  28
ATOM     28  N   UNL     1       0.444  -6.470   3.582  0.00  0.00    -0.356 N 
ATOM     29  H   UNL     1       0.363  -5.513   3.714  0.00  0.00    +0.142 HD
ATOM     30  H   UNL     1       0.534  -7.059   4.347  0.00  0.00    +0.142 HD
ENDBRANCH   2  28
BRANCH   1  31
ATOM     31  C   UNL     1       0.177  -4.768   1.163  0.00  0.00    +0.353 C 
ATOM     32  O   UNL     1       0.172  -4.132   2.201  0.00  0.00    -0.244 OA
BRANCH  31  33
ATOM     33  O   UNL     1       0.059  -4.129  -0.021  0.00  0.00    -0.422 OA
BRANCH  33  38
ATOM     34  C   UNL     1       0.047   1.503   0.003  0.00  0.00    +0.044 C 
ATOM     35  C   UNL     1       0.051  -0.004  -0.003  0.00  0.00    -0.050 A 
ATOM     36  C   UNL     1       1.209  -0.693   0.305  0.00  0.00    +0.007 A 
ATOM     37  C   UNL     1       1.214  -2.074   0.300  0.00  0.00    +0.046 A 
ATOM     38  C   UNL     1       0.056  -2.770  -0.015  0.00  0.00    +0.132 A 
ATOM     39  C   UNL     1      -1.105  -2.076  -0.324  0.00  0.00    +0.046 A 
ATOM     40  C   UNL     1      -1.107  -0.695  -0.312  0.00  0.00    +0.007 A 
ENDBRANCH  33  38
ENDBRANCH  31  33
ENDBRANCH   1  31
TORSDOF 8
