REMARK  Name = ZINC39352625
REMARK  9 active torsions:
REMARK  status: ('A' for Active; 'I' for Inactive)
REMARK    1  A    between atoms: C_1  and  N_2
REMARK    2  A    between atoms: N_8  and  C_11
REMARK    3  A    between atoms: C_11  and  C_12
REMARK    4  A    between atoms: C_17  and  C_18
REMARK    5  A    between atoms: N_25  and  C_28
REMARK    6  A    between atoms: C_28  and  C_29
REMARK    7  A    between atoms: C_29  and  C_30
REMARK    8  A    between atoms: C_33  and  O_36
REMARK    9  A    between atoms: O_36  and  C_37
REMARK                            x       y       z     vdW  Elec       q    Type
REMARK                         _______ _______ _______ _____ _____    ______ ____
ROOT
ATOM      1  C   UNL     1      -0.015   1.462   0.047  0.00  0.00    +0.143 C 
ATOM      2  N   UNL     1       0.004  -0.003   0.019  0.00  0.00    -0.227 N 
ATOM      3  C   UNL     1      -1.102  -0.775  -0.008  0.00  0.00    +0.246 C 
ATOM      4  O   UNL     1      -2.256  -0.405  -0.013  0.00  0.00    -0.273 OA
ATOM      5  C   UNL     1      -0.598  -2.200  -0.031  0.00  0.00    +0.112 C 
ATOM      6  C   UNL     1      -1.055  -2.907  -1.303  0.00  0.00    +0.017 C 
ATOM      7  C   UNL     1      -0.569  -4.359  -1.277  0.00  0.00    -0.076 C 
ATOM      8  N   UNL     1      -1.113  -5.037  -0.093  0.00  0.00    +0.380 N 
ATOM      9  C   UNL     1      -0.594  -4.407   1.127  0.00  0.00    -0.076 C 
ATOM     10  C   UNL     1      -1.081  -2.957   1.202  0.00  0.00    +0.017 C 
ATOM     11  N   UNL     1       0.863  -2.063  -0.014  0.00  0.00    -0.271 N 
ATOM     12  C   UNL     1       1.121  -0.741   0.010  0.00  0.00    +0.312 C 
ATOM     13  O   UNL     1       2.242  -0.271   0.025  0.00  0.00    -0.252 OA
ATOM     14  H   UNL     1      -2.119  -4.971  -0.102  0.00  0.00    -0.082 HD
ENDROOT
BRANCH   8  15
ATOM     15  C   UNL     1      -0.718  -6.452  -0.117  0.00  0.00    -0.063 C 
BRANCH  15  16
ATOM     16  C   UNL     1      -1.385  -7.188   1.046  0.00  0.00    +0.066 C 
ATOM     17  C   UNL     1      -2.883  -7.280   0.831  0.00  0.00    +0.115 C 
ATOM     18  N   UNL     1      -3.159  -8.542   0.770  0.00  0.00    -0.161 NA
ATOM     19  N   UNL     1      -2.031  -9.342   0.918  0.00  0.00    -0.153 NA
ATOM     20  C   UNL     1      -0.942  -8.637   1.087  0.00  0.00    +0.077 C 
BRANCH  20  21
ATOM     21  C   UNL     1       0.427  -9.141   1.275  0.00  0.00    -0.001 A 
ATOM     22  C   UNL     1       1.488  -8.246   1.448  0.00  0.00    +0.012 A 
ATOM     23  C   UNL     1       2.768  -8.725   1.624  0.00  0.00    +0.039 A 
ATOM     24  C   UNL     1       3.005 -10.091   1.631  0.00  0.00    +0.123 A 
ATOM     25  C   UNL     1       1.958 -10.984   1.460  0.00  0.00    +0.039 A 
ATOM     26  C   UNL     1       0.672 -10.518   1.289  0.00  0.00    +0.012 A 
ATOM     27  F   UNL     1       4.263 -10.554   1.803  0.00  0.00    -0.205 F 
ENDBRANCH  20  21
ENDBRANCH  15  16
ENDBRANCH   8  15
BRANCH  11  28
ATOM     28  C   UNL     1       1.846  -3.149  -0.025  0.00  0.00    +0.115 C 
BRANCH  28  29
ATOM     29  C   UNL     1       2.634  -3.111  -1.335  0.00  0.00    +0.054 C 
BRANCH  29  30
ATOM     30  C   UNL     1       3.560  -4.298  -1.400  0.00  0.00    -0.046 A 
ATOM     31  C   UNL     1       4.841  -4.202  -0.890  0.00  0.00    +0.007 A 
ATOM     32  C   UNL     1       5.692  -5.289  -0.948  0.00  0.00    +0.046 A 
ATOM     33  C   UNL     1       5.260  -6.477  -1.519  0.00  0.00    +0.120 A 
ATOM     34  C   UNL     1       3.974  -6.571  -2.030  0.00  0.00    +0.046 A 
ATOM     35  C   UNL     1       3.125  -5.483  -1.965  0.00  0.00    +0.007 A 
BRANCH  33  36
ATOM     36  O   UNL     1       6.095  -7.548  -1.578  0.00  0.00    -0.495 OA
ATOM     37  C   UNL     1       5.582  -8.738  -2.180  0.00  0.00    +0.277 C 
ENDBRANCH  33  36
ENDBRANCH  29  30
ENDBRANCH  28  29
ENDBRANCH  11  28
TORSDOF 7
