REMARK  Name = ZINC09088066
REMARK  8 active torsions:
REMARK  status: ('A' for Active; 'I' for Inactive)
REMARK    1  A    between atoms: C_1  and  C_2
REMARK    2  A    between atoms: C_2  and  C_3
REMARK    3  A    between atoms: C_3  and  N_20
REMARK    4  A    between atoms: N_10  and  C_13
REMARK    5  A    between atoms: C_18  and  C_19
REMARK    6  A    between atoms: N_20  and  N_21
REMARK    7  A    between atoms: C_22  and  C_24
REMARK    8  A    between atoms: C_29  and  O_30
REMARK                            x       y       z     vdW  Elec       q    Type
REMARK                         _______ _______ _______ _____ _____    ______ ____
ROOT
ATOM      1  C   UNL     1       0.705  -0.495  -1.226  0.00  0.00    +0.039 C 
ATOM      2  C   UNL     1       2.079  -0.682  -1.194  0.00  0.00    +0.119 C 
ATOM      3  C   UNL     1       2.837  -1.016  -2.407  0.00  0.00    +0.278 C 
ATOM      4  O   UNL     1       2.212  -1.151  -3.596  0.00  0.00    -0.268 OA
ATOM      5  N   UNL     1       4.145  -1.182  -2.309  0.00  0.00    -0.123 NA
ATOM      6  C   UNL     1       4.787  -1.056  -1.151  0.00  0.00    +0.340 C 
ATOM      7  O   UNL     1       5.994  -1.224  -1.140  0.00  0.00    -0.250 OA
ATOM      8  N   UNL     1       4.179  -0.754   0.005  0.00  0.00    -0.188 N 
ATOM      9  C   UNL     1       2.845  -0.550   0.058  0.00  0.00    +0.265 C 
ATOM     10  O   UNL     1       2.293  -0.271   1.107  0.00  0.00    -0.269 OA
ENDROOT
BRANCH   8  11
ATOM     11  C   UNL     1       4.940  -0.642   1.176  0.00  0.00    +0.049 A 
ATOM     12  C   UNL     1       5.478   0.585   1.542  0.00  0.00    +0.024 A 
ATOM     13  C   UNL     1       6.228   0.692   2.696  0.00  0.00    +0.002 A 
ATOM     14  C   UNL     1       6.443  -0.421   3.489  0.00  0.00    +0.000 A 
ATOM     15  C   UNL     1       5.909  -1.644   3.127  0.00  0.00    +0.005 A 
ATOM     16  C   UNL     1       5.153  -1.756   1.977  0.00  0.00    -0.029 A 
ATOM     17  C   UNL     1       4.565  -3.088   1.587  0.00  0.00    +0.045 C 
ENDBRANCH   8  11
BRANCH   1  19
ATOM     18  C   UNL     1       0.026   1.505   0.073  0.00  0.00    +0.010 C 
ATOM     19  C   UNL     1      -0.020  -0.023   0.008  0.00  0.00    +0.049 C 
ENDBRANCH   1  19
BRANCH   1  20
ATOM     20  N   UNL     1       0.020  -0.734  -2.360  0.00  0.00    -0.267 N 
ATOM     21  H   UNL     1       0.471  -1.119  -3.127  0.00  0.00    +0.170 HD
BRANCH  20  22
ATOM     22  N   UNL     1      -1.345  -0.426  -2.431  0.00  0.00    -0.233 N 
ATOM     23  C   UNL     1      -2.009  -0.572  -3.595  0.00  0.00    +0.264 C 
ATOM     24  O   UNL     1      -1.448  -1.057  -4.558  0.00  0.00    -0.269 OA
ATOM     25  H   UNL     1      -1.812  -0.107  -1.643  0.00  0.00    +0.173 HD
BRANCH  23  26
ATOM     26  C   UNL     1      -3.417  -0.143  -3.700  0.00  0.00    +0.079 A 
ATOM     27  C   UNL     1      -4.032   0.517  -2.633  0.00  0.00    +0.017 A 
ATOM     28  C   UNL     1      -5.347   0.915  -2.737  0.00  0.00    +0.001 A 
ATOM     29  C   UNL     1      -6.064   0.662  -3.896  0.00  0.00    +0.004 A 
ATOM     30  C   UNL     1      -5.468   0.010  -4.957  0.00  0.00    +0.046 A 
ATOM     31  C   UNL     1      -4.144  -0.391  -4.872  0.00  0.00    +0.129 A 
BRANCH  31  32
ATOM     32  O   UNL     1      -3.556  -1.027  -5.916  0.00  0.00    -0.506 OA
ATOM     33  H   UNL     1      -3.646  -1.989  -5.892  0.00  0.00    +0.292 HD
ENDBRANCH  31  32
ENDBRANCH  23  26
ENDBRANCH  20  22
ENDBRANCH   1  20
TORSDOF 6
