REMARK  Name = ZINC08896391
REMARK  11 active torsions:
REMARK  status: ('A' for Active; 'I' for Inactive)
REMARK    1  A    between atoms: C_1  and  C_2
REMARK    2  A    between atoms: C_2  and  C_3
REMARK    3  A    between atoms: C_2  and  C_4
REMARK    4  A    between atoms: C_2  and  C_5
REMARK    5  A    between atoms: C_12  and  N_16
REMARK    6  A    between atoms: C_13  and  C_14
REMARK    7  A    between atoms: N_16  and  C_17
REMARK    8  A    between atoms: C_17  and  N_19
REMARK    9  A    between atoms: C_20  and  C_22
REMARK   10  A    between atoms: C_27  and  O_28
REMARK   11  A    between atoms: O_28  and  C_29
REMARK                            x       y       z     vdW  Elec       q    Type
REMARK                         _______ _______ _______ _____ _____    ______ ____
ROOT
ATOM      1  N   UNL     1      -4.216   4.014   5.811  0.00  0.00    -0.290 N 
ATOM      2  H   UNL     1      -3.831   3.751   6.662  0.00  0.00    +0.154 HD
ENDROOT
BRANCH   1   9
ATOM      3  C   UNL     1      -9.676   7.336   5.703  0.00  0.00    -0.000 C 
ATOM      4  C   UNL     1      -8.965   7.867   6.951  0.00  0.00    +0.009 C 
ATOM      5  C   UNL     1      -8.148   6.747   7.599  0.00  0.00    +0.037 C 
ATOM      6  C   UNL     1      -7.250   6.119   6.541  0.00  0.00    -0.018 A 
ATOM      7  C   UNL     1      -7.503   6.289   5.224  0.00  0.00    -0.004 A 
ATOM      8  S   UNL     1      -6.213   5.401   4.398  0.00  0.00    -0.077 S 
ATOM      9  C   UNL     1      -5.356   4.803   5.780  0.00  0.00    +0.089 A 
ATOM     10  C   UNL     1      -6.082   5.311   6.847  0.00  0.00    +0.084 A 
ATOM     11  C   UNL     1      -8.629   7.065   4.613  0.00  0.00    +0.047 C 
BRANCH   3  13
ATOM     12  C   UNL     1      -9.940   9.672   4.855  0.00  0.00    +0.011 C 
ATOM     13  C   UNL     1     -10.679   8.378   5.203  0.00  0.00    -0.035 C 
ATOM     14  C   UNL     1     -11.389   7.846   3.956  0.00  0.00    +0.011 C 
ATOM     15  C   UNL     1     -11.711   8.659   6.296  0.00  0.00    +0.011 C 
ENDBRANCH   3  13
BRANCH  10  16
ATOM     16  C   UNL     1      -5.696   5.048   8.200  0.00  0.00    +0.102 C 
ATOM     17  N   UNL     1      -5.389   4.840   9.274  0.00  0.00    -0.191 NA
ENDBRANCH  10  16
ENDBRANCH   1   9
BRANCH   1  18
ATOM     18  C   UNL     1      -3.642   3.612   4.660  0.00  0.00    +0.141 C 
ATOM     19  S   UNL     1      -4.321   4.076   3.158  0.00  0.00    -0.018 S 
BRANCH  18  20
ATOM     20  N   UNL     1      -2.535   2.845   4.691  0.00  0.00    -0.263 N 
ATOM     21  C   UNL     1      -1.961   2.443   3.539  0.00  0.00    +0.253 C 
ATOM     22  O   UNL     1      -2.443   2.772   2.473  0.00  0.00    -0.270 OA
ATOM     23  H   UNL     1      -2.150   2.582   5.542  0.00  0.00    +0.157 HD
BRANCH  21  24
ATOM     24  C   UNL     1      -0.749   1.603   3.573  0.00  0.00    +0.080 A 
ATOM     25  C   UNL     1      -0.195   1.218   4.796  0.00  0.00    +0.032 A 
ATOM     26  C   UNL     1       0.941   0.438   4.821  0.00  0.00    +0.019 A 
ATOM     27  C   UNL     1       1.534   0.029   3.636  0.00  0.00    +0.019 A 
ATOM     28  C   UNL     1       0.993   0.398   2.421  0.00  0.00    +0.047 A 
ATOM     29  C   UNL     1      -0.150   1.183   2.377  0.00  0.00    +0.132 A 
ATOM     30 BR   UNL     1       1.695  -0.076   6.477  0.00  0.00    -0.050 Br
BRANCH  29  31
ATOM     31  O   UNL     1      -0.682   1.547   1.184  0.00  0.00    -0.494 OA
ATOM     32  C   UNL     1      -0.013   1.086   0.008  0.00  0.00    +0.277 C 
ENDBRANCH  29  31
ENDBRANCH  21  24
ENDBRANCH  18  20
ENDBRANCH   1  18
TORSDOF 7
