REMARK  Name = ZINC33959564
REMARK  11 active torsions:
REMARK  status: ('A' for Active; 'I' for Inactive)
REMARK    1  A    between atoms: C_1  and  C_2
REMARK    2  A    between atoms: C_7  and  C_8
REMARK    3  A    between atoms: N_9  and  N_10
REMARK    4  A    between atoms: C_11  and  C_13
REMARK    5  A    between atoms: C_13  and  C_15
REMARK    6  A    between atoms: C_13  and  N_28
REMARK    7  A    between atoms: C_15  and  C_16
REMARK    8  A    between atoms: C_16  and  C_17
REMARK    9  A    between atoms: C_17  and  C_18
REMARK   10  A    between atoms: C_18  and  N_19
REMARK   11  A    between atoms: C_20  and  C_22
REMARK                            x       y       z     vdW  Elec       q    Type
REMARK                         _______ _______ _______ _____ _____    ______ ____
ROOT
ATOM      1  C   UNL     1       0.215   4.102   5.062  0.00  0.00    +0.021 C 
ENDROOT
BRANCH   1   2
ATOM      2  N   UNL     1      -0.380   5.444   5.031  0.00  0.00    +0.387 N 
ATOM      3  C   UNL     1      -0.324   6.034   6.374  0.00  0.00    -0.078 C 
ATOM      4  C   UNL     1      -0.869   7.463   6.331  0.00  0.00    -0.019 C 
ATOM      5  C   UNL     1      -2.321   7.436   5.844  0.00  0.00    -0.004 C 
ATOM      6  C   UNL     1      -2.377   6.751   4.476  0.00  0.00    -0.019 C 
ATOM      7  C   UNL     1      -1.776   5.348   4.587  0.00  0.00    -0.078 C 
ATOM      8  H   UNL     1       0.137   6.026   4.388  0.00  0.00    -0.081 HD
ENDBRANCH   1   2
BRANCH   1  10
ATOM      9  N   UNL     1       0.422   2.229   3.459  0.00  0.00    -0.208 N 
ATOM     10  C   UNL     1       0.298   3.556   3.660  0.00  0.00    +0.219 C 
ATOM     11  O   UNL     1       0.253   4.311   2.712  0.00  0.00    -0.276 OA
ATOM     12  H   UNL     1       0.458   1.625   4.217  0.00  0.00    +0.177 HD
BRANCH   9  14
ATOM     13  C   UNL     1       0.618   0.445   1.962  0.00  0.00    +0.138 C 
ATOM     14  N   UNL     1       0.498   1.722   2.155  0.00  0.00    -0.188 NA
BRANCH  13  21
ATOM     15  C   UNL     1       0.251   2.227  -0.288  0.00  0.00    +0.044 C 
ATOM     16  C   UNL     1       0.524   0.760  -0.505  0.00  0.00    -0.042 A 
ATOM     17  C   UNL     1       0.606   0.255  -1.786  0.00  0.00    +0.004 A 
ATOM     18  C   UNL     1       0.856  -1.091  -1.988  0.00  0.00    +0.000 A 
ATOM     19  C   UNL     1       1.024  -1.939  -0.908  0.00  0.00    +0.001 A 
ATOM     20  C   UNL     1       0.944  -1.448   0.378  0.00  0.00    +0.010 A 
ATOM     21  C   UNL     1       0.699  -0.089   0.589  0.00  0.00    -0.003 A 
ENDBRANCH  13  21
ENDBRANCH   9  14
ENDBRANCH   1  10
BRANCH   1  22
ATOM     22  C   UNL     1       1.620   4.181   5.662  0.00  0.00    -0.006 C 
BRANCH  22  23
ATOM     23  C   UNL     1       2.470   5.154   4.843  0.00  0.00    +0.000 C 
BRANCH  23  24
ATOM     24  C   UNL     1       3.902   5.159   5.382  0.00  0.00    +0.019 C 
BRANCH  24  25
ATOM     25  C   UNL     1       4.752   6.132   4.563  0.00  0.00    +0.104 C 
BRANCH  25  26
ATOM     26  N   UNL     1       6.124   6.136   5.079  0.00  0.00    -0.311 N 
ATOM     27  C   UNL     1       7.056   6.925   4.509  0.00  0.00    +0.244 C 
ATOM     28  O   UNL     1       6.759   7.633   3.566  0.00  0.00    -0.270 OA
ATOM     29  H   UNL     1       6.361   5.571   5.831  0.00  0.00    +0.149 HD
BRANCH  27  30
ATOM     30  C   UNL     1       8.440   6.929   5.029  0.00  0.00    +0.037 A 
ATOM     31  C   UNL     1       8.785   6.113   6.108  0.00  0.00    +0.013 A 
ATOM     32  C   UNL     1      10.078   6.121   6.588  0.00  0.00    +0.001 A 
ATOM     33  C   UNL     1      11.032   6.936   6.004  0.00  0.00    +0.000 A 
ATOM     34  C   UNL     1      10.696   7.747   4.935  0.00  0.00    +0.001 A 
ATOM     35  C   UNL     1       9.408   7.744   4.441  0.00  0.00    +0.013 A 
ENDBRANCH  27  30
ENDBRANCH  25  26
ENDBRANCH  24  25
ENDBRANCH  23  24
ENDBRANCH  22  23
ENDBRANCH   1  22
TORSDOF 10
