REMARK  Name = ZINC12580619
REMARK  13 active torsions:
REMARK  status: ('A' for Active; 'I' for Inactive)
REMARK    1  A    between atoms: C_1  and  N_57
REMARK    2  A    between atoms: C_2  and  N_57
REMARK    3  A    between atoms: C_3  and  C_4
REMARK    4  A    between atoms: C_3  and  N_57
REMARK    5  A    between atoms: C_4  and  C_6
REMARK    6  A    between atoms: C_4  and  O_27
REMARK    7  A    between atoms: C_6  and  O_7
REMARK    8  A    between atoms: O_7  and  C_8
REMARK    9  A    between atoms: C_11  and  C_14
REMARK   10  A    between atoms: C_14  and  N_59
REMARK   11  A    between atoms: C_15  and  N_59
REMARK   12  A    between atoms: C_16  and  C_17
REMARK   13  A    between atoms: C_16  and  N_59
REMARK                            x       y       z     vdW  Elec       q    Type
REMARK                         _______ _______ _______ _____ _____    ______ ____
ROOT
ATOM      1  C   UNL     1       1.399   0.889  -3.887  0.00  0.00    +0.121 A 
ATOM      2  C   UNL     1       2.607   0.212  -3.972  0.00  0.00    +0.046 A 
ATOM      3  C   UNL     1       3.174  -0.035  -5.207  0.00  0.00    +0.005 A 
ATOM      4  C   UNL     1       2.543   0.402  -6.358  0.00  0.00    -0.064 A 
ATOM      5  C   UNL     1       1.342   1.082  -6.275  0.00  0.00    +0.005 A 
ATOM      6  C   UNL     1       0.768   1.326  -5.043  0.00  0.00    +0.046 A 
ENDROOT
BRANCH   1   7
ATOM      7  O   UNL     1       0.837   1.128  -2.673  0.00  0.00    -0.489 OA
BRANCH   7   8
ATOM      8  C   UNL     1       1.542   0.649  -1.526  0.00  0.00    +0.258 C 
BRANCH   8   9
ATOM      9  C   UNL     1       0.761   1.009  -0.260  0.00  0.00    +0.135 C 
BRANCH   9  10
ATOM     10  O   UNL     1      -0.487   0.312  -0.255  0.00  0.00    -0.390 OA
ATOM     11  H   UNL     1      -0.399  -0.651  -0.273  0.00  0.00    +0.210 HD
ENDBRANCH   9  10
BRANCH   9  12
ATOM     12  C   UNL     1       1.574   0.608   0.972  0.00  0.00    -0.045 C 
BRANCH  12  15
ATOM     13  C   UNL     1       1.387   0.304   3.367  0.00  0.00    -0.096 C 
ATOM     14  C   UNL     1       0.852   2.446   2.373  0.00  0.00    -0.096 C 
ATOM     15  N   UNL     1       0.815   0.981   2.184  0.00  0.00    +0.378 N 
ATOM     16  H   UNL     1      -0.162   0.684   2.071  0.00  0.00    -0.083 HD
ENDBRANCH  12  15
ENDBRANCH   9  12
ENDBRANCH   8   9
ENDBRANCH   7   8
ENDBRANCH   1   7
BRANCH   4  17
ATOM     17  C   UNL     1       3.167   0.137  -7.704  0.00  0.00    -0.043 C 
BRANCH  17  19
ATOM     18  C   UNL     1       5.205   1.322  -7.150  0.00  0.00    -0.095 C 
ATOM     19  N   UNL     1       4.039   1.277  -8.058  0.00  0.00    +0.383 N 
ATOM     20  H   UNL     1       3.506   2.149  -7.959  0.00  0.00    -0.081 HD
BRANCH  19  21
ATOM     21  C   UNL     1       4.494   1.149  -9.458  0.00  0.00    -0.042 C 
BRANCH  21  22
ATOM     22  C   UNL     1       5.068   2.469  -9.904  0.00  0.00    -0.056 A 
ATOM     23  C   UNL     1       6.413   2.617 -10.046  0.00  0.00    +0.002 A 
ATOM     24  C   UNL     1       6.962   3.830 -10.457  0.00  0.00    +0.001 A 
ATOM     25  C   UNL     1       6.168   4.902 -10.728  0.00  0.00    +0.008 A 
ATOM     26  C   UNL     1       4.775   4.788 -10.593  0.00  0.00    -0.018 A 
ATOM     27  C   UNL     1       4.216   3.552 -10.180  0.00  0.00    -0.017 A 
ATOM     28  C   UNL     1       2.822   3.438 -10.040  0.00  0.00    +0.009 A 
ATOM     29  C   UNL     1       2.029   4.511 -10.310  0.00  0.00    +0.001 A 
ATOM     30  C   UNL     1       2.578   5.724 -10.720  0.00  0.00    +0.001 A 
ATOM     31  C   UNL     1       3.923   5.872 -10.863  0.00  0.00    +0.008 A 
ENDBRANCH  21  22
ENDBRANCH  19  21
ENDBRANCH  17  19
ENDBRANCH   4  17
TORSDOF 10
