REMARK  Name = ZINC20153255
REMARK  9 active torsions:
REMARK  status: ('A' for Active; 'I' for Inactive)
REMARK    1  A    between atoms: C_1  and  C_2
REMARK    2  A    between atoms: C_5  and  C_30
REMARK    3  A    between atoms: C_7  and  N_8
REMARK    4  A    between atoms: N_8  and  C_9
REMARK    5  A    between atoms: C_9  and  N_11
REMARK    6  A    between atoms: C_12  and  C_14
REMARK    7  A    between atoms: C_16  and  N_27
REMARK    8  A    between atoms: C_19  and  N_20
REMARK    9  A    between atoms: C_23  and  C_26
REMARK                            x       y       z     vdW  Elec       q    Type
REMARK                         _______ _______ _______ _____ _____    ______ ____
ROOT
ATOM      1  N   UNL     1      -0.328  -0.024   4.738  0.00  0.00    -0.264 N 
ATOM      2  C   UNL     1      -0.348  -0.694   5.907  0.00  0.00    +0.251 C 
ATOM      3  O   UNL     1      -0.324  -1.909   5.912  0.00  0.00    -0.270 OA
ATOM      4  H   UNL     1      -0.347   0.946   4.734  0.00  0.00    +0.157 HD
ENDROOT
BRANCH   2   5
ATOM      5  C   UNL     1      -0.400   0.047   7.180  0.00  0.00    +0.060 A 
ATOM      6  C   UNL     1      -0.528   1.438   7.179  0.00  0.00    +0.047 A 
ATOM      7  C   UNL     1      -0.576   2.125   8.372  0.00  0.00    +0.127 A 
ATOM      8  C   UNL     1      -0.496   1.443   9.576  0.00  0.00    +0.034 A 
ATOM      9  C   UNL     1      -0.368   0.069   9.594  0.00  0.00    +0.026 A 
ATOM     10  C   UNL     1      -0.325  -0.642   8.401  0.00  0.00    +0.042 A 
BRANCH  10  11
ATOM     11  N   UNL     1      -0.203  -2.025   8.416  0.00  0.00    -0.329 N 
ATOM     12  C   UNL     1      -1.394  -2.881   8.493  0.00  0.00    +0.105 C 
ATOM     13  C   UNL     1      -1.230  -3.849   9.669  0.00  0.00    +0.022 C 
ATOM     14  C   UNL     1       0.085  -4.616   9.514  0.00  0.00    -0.011 C 
ATOM     15  C   UNL     1       1.256  -3.631   9.533  0.00  0.00    +0.022 C 
ATOM     16  C   UNL     1       1.121  -2.660   8.350  0.00  0.00    +0.105 C 
ATOM     17  C   UNL     1       0.236  -5.609  10.668  0.00  0.00    +0.007 C 
ENDBRANCH  10  11
BRANCH   7  18
ATOM     18  N   UNL     1      -0.712   3.599   8.369  0.00  0.00    +0.056 N 
ATOM     19  O   UNL     1      -0.782   4.197   7.321  0.00  0.00    -0.126 OA
ATOM     20  O   UNL     1      -0.754   4.204   9.414  0.00  0.00    -0.126 OA
ENDBRANCH   7  18
ENDBRANCH   2   5
BRANCH   1  21
ATOM     21  C   UNL     1      -0.281  -0.701   3.574  0.00  0.00    +0.141 C 
ATOM     22  S   UNL     1      -0.247  -2.413   3.580  0.00  0.00    -0.018 S 
BRANCH  21  23
ATOM     23  N   UNL     1      -0.261  -0.031   2.404  0.00  0.00    -0.296 N 
ATOM     24  H   UNL     1      -0.212   0.938   2.401  0.00  0.00    +0.154 HD
BRANCH  23  31
ATOM     25  C   UNL     1      -2.076   0.867   0.411  0.00  0.00    +0.045 C 
ATOM     26  C   UNL     1      -1.184  -0.328   0.192  0.00  0.00    -0.029 A 
ATOM     27  C   UNL     1      -1.233  -1.014  -1.008  0.00  0.00    +0.006 A 
ATOM     28  C   UNL     1      -0.420  -2.109  -1.216  0.00  0.00    +0.015 A 
ATOM     29  C   UNL     1       0.458  -2.528  -0.212  0.00  0.00    +0.065 A 
ATOM     30  C   UNL     1       0.507  -1.835   0.999  0.00  0.00    +0.038 A 
ATOM     31  C   UNL     1      -0.311  -0.733   1.195  0.00  0.00    +0.036 A 
BRANCH  29  32
ATOM     32  C   UNL     1       1.328  -3.699  -0.431  0.00  0.00    +0.387 C 
ATOM     33  O   UNL     1       1.283  -4.305  -1.492  0.00  0.00    -0.241 OA
ATOM     34  O   UNL     1       2.095  -4.064   0.449  0.00  0.00    -0.241 OA
ENDBRANCH  29  32
ENDBRANCH  23  31
ENDBRANCH  21  23
ENDBRANCH   1  21
TORSDOF 7
