REMARK  Name = ZINC41015767
REMARK  7 active torsions:
REMARK  status: ('A' for Active; 'I' for Inactive)
REMARK    1  A    between atoms: C_1  and  C_2
REMARK    2  A    between atoms: C_11  and  N_15
REMARK    3  A    between atoms: C_12  and  C_13
REMARK    4  A    between atoms: C_16  and  C_18
REMARK    5  A    between atoms: C_18  and  C_20
REMARK    6  A    between atoms: C_18  and  N_27
REMARK    7  A    between atoms: C_20  and  C_21
REMARK                            x       y       z     vdW  Elec       q    Type
REMARK                         _______ _______ _______ _____ _____    ______ ____
ROOT
ATOM      1  C   UNL     1       2.426  -8.614   1.187  0.00  0.00    +0.175 C 
ENDROOT
BRANCH   1   2
ATOM      2  N   UNL     1       2.789  -9.313   2.422  0.00  0.00    -0.222 N 
ATOM      3  C   UNL     1       3.847  -8.999   3.191  0.00  0.00    +0.255 C 
ATOM      4  O   UNL     1       4.641  -8.106   2.975  0.00  0.00    -0.270 OA
ATOM      5  C   UNL     1       3.882  -9.924   4.344  0.00  0.00    +0.049 A 
ATOM      6  C   UNL     1       4.720 -10.077   5.437  0.00  0.00    +0.014 A 
ATOM      7  C   UNL     1       4.465 -11.075   6.364  0.00  0.00    +0.001 A 
ATOM      8  C   UNL     1       3.381 -11.918   6.206  0.00  0.00    +0.001 A 
ATOM      9  C   UNL     1       2.535 -11.777   5.117  0.00  0.00    +0.014 A 
ATOM     10  C   UNL     1       2.777 -10.784   4.182  0.00  0.00    +0.049 A 
ATOM     11  C   UNL     1       2.105 -10.350   2.939  0.00  0.00    +0.255 C 
ATOM     12  O   UNL     1       1.104 -10.847   2.464  0.00  0.00    -0.270 OA
ENDBRANCH   1   2
BRANCH   1  14
ATOM     13  N   UNL     1       1.813  -6.319   0.498  0.00  0.00    -0.277 N 
ATOM     14  C   UNL     1       2.165  -7.161   1.490  0.00  0.00    +0.239 C 
ATOM     15  O   UNL     1       2.272  -6.750   2.626  0.00  0.00    -0.273 OA
ATOM     16  H   UNL     1       1.727  -6.648  -0.410  0.00  0.00    +0.155 HD
BRANCH  13  26
ATOM     17  C   UNL     1      -0.019   1.526   0.010  0.00  0.00    +0.008 C 
ATOM     18  C   UNL     1       0.002  -0.004   0.002  0.00  0.00    -0.009 C 
ATOM     19  C   UNL     1       0.739  -0.508  -1.246  0.00  0.00    +0.008 C 
ATOM     20  C   UNL     1       0.542  -2.015  -1.327  0.00  0.00    +0.037 C 
ATOM     21  C   UNL     1       0.942  -2.701  -0.028  0.00  0.00    -0.023 A 
ATOM     22  C   UNL     1       1.014  -2.005   1.126  0.00  0.00    -0.022 A 
ATOM     23  C   UNL     1       1.354  -2.607   2.371  0.00  0.00    +0.061 A 
ATOM     24  S   UNL     1       1.423  -1.706   3.825  0.00  0.00    -0.044 S 
ATOM     25  S   UNL     1       1.702  -4.349   2.324  0.00  0.00    -0.065 S 
ATOM     26  C   UNL     1       1.574  -4.992   0.775  0.00  0.00    +0.091 A 
ATOM     27  C   UNL     1       1.208  -4.075  -0.202  0.00  0.00    +0.083 A 
ATOM     28  C   UNL     1       0.757  -0.518   1.222  0.00  0.00    +0.040 C 
BRANCH  27  29
ATOM     29  C   UNL     1       1.088  -4.582  -1.536  0.00  0.00    +0.102 C 
ATOM     30  N   UNL     1       0.993  -4.984  -2.594  0.00  0.00    -0.191 NA
ENDBRANCH  27  29
ENDBRANCH  13  26
ENDBRANCH   1  14
BRANCH   1  31
ATOM     31  C   UNL     1       3.573  -8.727   0.181  0.00  0.00    +0.067 C 
BRANCH  31  32
ATOM     32  C   UNL     1       3.754 -10.170  -0.216  0.00  0.00    -0.045 A 
ATOM     33  C   UNL     1       4.607 -10.984   0.506  0.00  0.00    +0.004 A 
ATOM     34  C   UNL     1       4.772 -12.307   0.142  0.00  0.00    +0.000 A 
ATOM     35  C   UNL     1       4.084 -12.817  -0.943  0.00  0.00    +0.000 A 
ATOM     36  C   UNL     1       3.231 -12.003  -1.664  0.00  0.00    +0.000 A 
ATOM     37  C   UNL     1       3.062 -10.681  -1.298  0.00  0.00    +0.004 A 
ENDBRANCH  31  32
ENDBRANCH   1  31
TORSDOF 6
