REMARK  Name = ZINC12944522
REMARK  12 active torsions:
REMARK  status: ('A' for Active; 'I' for Inactive)
REMARK    1  A    between atoms: C_1  and  C_2
REMARK    2  A    between atoms: C_8  and  N_10
REMARK    3  A    between atoms: C_11  and  C_13
REMARK    4  A    between atoms: C_13  and  C_15
REMARK    5  A    between atoms: C_13  and  O_16
REMARK    6  A    between atoms: O_16  and  C_17
REMARK    7  A    between atoms: C_17  and  C_19
REMARK    8  A    between atoms: C_21  and  S_26
REMARK    9  A    between atoms: S_26  and  N_29
REMARK   10  A    between atoms: N_29  and  C_30
REMARK   11  A    between atoms: C_30  and  C_31
REMARK   12  A    between atoms: C_30  and  C_32
REMARK                            x       y       z     vdW  Elec       q    Type
REMARK                         _______ _______ _______ _____ _____    ______ ____
ROOT
ATOM      1  C   UNL     1      -0.034  -0.705   2.284  0.00  0.00    +0.341 C 
ATOM      2  O   UNL     1      -1.231  -0.501   2.266  0.00  0.00    -0.245 OA
ENDROOT
BRANCH   1   3
ATOM      3  C   UNL     1       0.613  -1.195   3.518  0.00  0.00    +0.075 A 
ATOM      4  C   UNL     1       1.990  -1.431   3.542  0.00  0.00    +0.044 A 
ATOM      5  C   UNL     1       2.587  -1.888   4.698  0.00  0.00    +0.106 A 
ATOM      6  C   UNL     1       1.826  -2.113   5.832  0.00  0.00    +0.029 A 
ATOM      7  C   UNL     1       0.463  -1.882   5.816  0.00  0.00    +0.018 A 
ATOM      8  C   UNL     1      -0.148  -1.419   4.668  0.00  0.00    +0.032 A 
ATOM      9 BR   UNL     1      -2.011  -1.095   4.649  0.00  0.00    -0.049 Br
BRANCH   5  10
ATOM     10  S   UNL     1       4.323  -2.186   4.731  0.00  0.00    +0.059 S 
ATOM     11  O   UNL     1       4.554  -3.129   5.768  0.00  0.00    -0.153 OA
ATOM     12  O   UNL     1       4.721  -2.419   3.387  0.00  0.00    -0.153 OA
BRANCH  10  13
ATOM     13  N   UNL     1       5.053  -0.776   5.203  0.00  0.00    -0.187 NA
ATOM     14  H   UNL     1       5.636  -0.302   4.589  0.00  0.00    +0.148 HD
BRANCH  13  15
ATOM     15  C   UNL     1       4.819  -0.244   6.548  0.00  0.00    +0.070 C 
ATOM     16  C   UNL     1       5.938  -0.709   7.482  0.00  0.00    +0.025 C 
ATOM     17  C   UNL     1       4.800   1.284   6.495  0.00  0.00    +0.025 C 
ENDBRANCH  13  15
ENDBRANCH  10  13
ENDBRANCH   5  10
ENDBRANCH   1   3
BRANCH   1  18
ATOM     18  O   UNL     1       0.704  -0.485   1.178  0.00  0.00    -0.449 OA
BRANCH  18  19
ATOM     19  C   UNL     1       0.002  -0.004   0.002  0.00  0.00    +0.259 C 
ATOM     20  C   UNL     1      -0.019   1.526   0.010  0.00  0.00    +0.062 C 
BRANCH  19  22
ATOM     21  N   UNL     1       0.176  -0.250  -2.453  0.00  0.00    -0.309 N 
ATOM     22  C   UNL     1       0.707  -0.490  -1.238  0.00  0.00    +0.254 C 
ATOM     23  O   UNL     1       1.753  -1.097  -1.142  0.00  0.00    -0.272 OA
ATOM     24  H   UNL     1      -0.660   0.235  -2.530  0.00  0.00    +0.149 HD
BRANCH  21  31
ATOM     25  C   UNL     1       0.856   1.602  -4.573  0.00  0.00    +0.009 C 
ATOM     26  C   UNL     1       0.461   0.150  -4.849  0.00  0.00    +0.006 C 
ATOM     27  C   UNL     1       1.177  -0.343  -6.108  0.00  0.00    +0.005 C 
ATOM     28  C   UNL     1       0.781  -1.795  -6.384  0.00  0.00    +0.000 C 
ATOM     29  C   UNL     1       1.183  -2.668  -5.193  0.00  0.00    +0.002 C 
ATOM     30  C   UNL     1       0.466  -2.175  -3.934  0.00  0.00    +0.022 C 
ATOM     31  C   UNL     1       0.862  -0.723  -3.658  0.00  0.00    +0.076 C 
ENDBRANCH  21  31
ENDBRANCH  19  22
ENDBRANCH  18  19
ENDBRANCH   1  18
TORSDOF 8
