REMARK  Name = ZINC12480689
REMARK  10 active torsions:
REMARK  status: ('A' for Active; 'I' for Inactive)
REMARK    1  A    between atoms: C_1  and  C_2
REMARK    2  A    between atoms: C_6  and  C_7
REMARK    3  A    between atoms: C_7  and  C_9
REMARK    4  A    between atoms: C_7  and  N_19
REMARK    5  A    between atoms: N_11  and  C_12
REMARK    6  A    between atoms: C_12  and  C_13
REMARK    7  A    between atoms: N_19  and  C_20
REMARK    8  A    between atoms: C_20  and  C_21
REMARK    9  A    between atoms: C_26  and  C_28
REMARK   10  A    between atoms: C_28  and  N_29
REMARK                            x       y       z     vdW  Elec       q    Type
REMARK                         _______ _______ _______ _____ _____    ______ ____
ROOT
ATOM      1  N   UNL     1      -0.631   5.913  -1.658  0.00  0.00    -0.279 N 
ATOM      2  C   UNL     1      -1.111   6.589  -0.595  0.00  0.00    +0.238 C 
ATOM      3  O   UNL     1      -1.834   7.549  -0.763  0.00  0.00    -0.274 OA
ENDROOT
BRANCH   1   4
ATOM      4  C   UNL     1      -0.982   6.338  -3.015  0.00  0.00    +0.199 C 
BRANCH   4  10
ATOM      5  C   UNL     1      -2.322   5.292  -5.574  0.00  0.00    +0.044 C 
ATOM      6  C   UNL     1      -3.099   5.680  -4.343  0.00  0.00    -0.038 A 
ATOM      7  C   UNL     1      -4.478   5.576  -4.322  0.00  0.00    +0.011 A 
ATOM      8  C   UNL     1      -5.147   5.933  -3.199  0.00  0.00    +0.046 A 
ATOM      9  S   UNL     1      -3.816   6.430  -2.118  0.00  0.00    -0.099 S 
ATOM     10  C   UNL     1      -2.458   6.137  -3.240  0.00  0.00    +0.022 A 
ENDBRANCH   4  10
BRANCH   4  11
ATOM     11  C   UNL     1      -0.641   7.796  -3.189  0.00  0.00    +0.239 C 
ATOM     12  O   UNL     1      -0.086   8.400  -2.296  0.00  0.00    -0.273 OA
ATOM     13  N   UNL     1      -0.954   8.429  -4.338  0.00  0.00    -0.311 N 
ATOM     14  H   UNL     1      -1.397   7.946  -5.052  0.00  0.00    +0.149 HD
BRANCH  13  15
ATOM     15  C   UNL     1      -0.623   9.846  -4.506  0.00  0.00    +0.135 C 
BRANCH  15  16
ATOM     16  C   UNL     1      -1.082  10.315  -5.888  0.00  0.00    +0.135 C 
ATOM     17  C   UNL     1      -0.738  11.806  -6.076  0.00  0.00    +0.035 C 
ATOM     18  C   UNL     1       0.172  11.831  -7.328  0.00  0.00    +0.031 C 
ATOM     19  C   UNL     1      -0.187  10.490  -8.017  0.00  0.00    +0.160 C 
ATOM     20  O   UNL     1      -0.383   9.584  -6.910  0.00  0.00    -0.375 OA
ENDBRANCH  15  16
ENDBRANCH  13  15
ENDBRANCH   4  11
ENDBRANCH   1   4
BRANCH   1  21
ATOM     21  C   UNL     1       0.241   4.754  -1.455  0.00  0.00    +0.151 C 
BRANCH  21  22
ATOM     22  C   UNL     1      -0.584   3.493  -1.485  0.00  0.00    +0.007 A 
ATOM     23  C   UNL     1      -0.835   2.661  -2.525  0.00  0.00    +0.013 A 
ATOM     24  C   UNL     1      -1.627   1.548  -2.317  0.00  0.00    +0.008 A 
ATOM     25  C   UNL     1      -2.138   1.326  -1.082  0.00  0.00    +0.045 A 
ATOM     26  S   UNL     1      -1.492   2.712  -0.161  0.00  0.00    -0.100 S 
ENDBRANCH  21  22
ENDBRANCH   1  21
BRANCH   2  27
ATOM     27  C   UNL     1      -0.751   6.152   0.801  0.00  0.00    +0.241 C 
BRANCH  27  28
ATOM     28  N   UNL     1      -1.393   7.042   1.772  0.00  0.00    -0.235 N 
ATOM     29  C   UNL     1      -0.872   8.201   2.296  0.00  0.00    +0.090 A 
ATOM     30  C   UNL     1       0.325   8.887   2.123  0.00  0.00    +0.029 A 
ATOM     31  C   UNL     1       0.549  10.046   2.810  0.00  0.00    +0.002 A 
ATOM     32  C   UNL     1      -0.409  10.548   3.682  0.00  0.00    +0.002 A 
ATOM     33  C   UNL     1      -1.592   9.894   3.870  0.00  0.00    +0.032 A 
ATOM     34  C   UNL     1      -1.846   8.702   3.177  0.00  0.00    +0.113 A 
ATOM     35  N   UNL     1      -2.893   7.854   3.156  0.00  0.00    -0.129 NA
ATOM     36  N   UNL     1      -2.662   6.878   2.350  0.00  0.00    -0.064 NA
ENDBRANCH  27  28
ENDBRANCH   2  27
TORSDOF 9
