REMARK  Name = ZINC32051801
REMARK  5 active torsions:
REMARK  status: ('A' for Active; 'I' for Inactive)
REMARK    1  A    between atoms: C_1  and  O_2
REMARK    2  A    between atoms: O_2  and  C_3
REMARK    3  A    between atoms: C_10  and  C_13
REMARK    4  A    between atoms: N_17  and  C_21
REMARK    5  A    between atoms: C_24  and  C_27
REMARK                            x       y       z     vdW  Elec       q    Type
REMARK                         _______ _______ _______ _____ _____    ______ ____
ROOT
ATOM      1  C   UNL     1      -3.495  -2.952  -1.645  0.00  0.00    +0.048 C 
ATOM      2  C   UNL     1      -4.136  -2.181  -0.733  0.00  0.00    +0.079 C 
ATOM      3  C   UNL     1      -4.413  -0.725  -0.754  0.00  0.00    +0.263 C 
ATOM      4  O   UNL     1      -4.059  -0.020  -1.679  0.00  0.00    -0.269 OA
ATOM      5  N   UNL     1      -5.070  -0.235   0.284  0.00  0.00    -0.224 N 
ATOM      6  C   UNL     1      -5.455  -1.020   1.311  0.00  0.00    +0.125 C 
ATOM      7  S   UNL     1      -6.299  -0.574   2.731  0.00  0.00    -0.027 S 
ATOM      8  S   UNL     1      -4.872  -2.639   0.831  0.00  0.00    -0.061 S 
ENDROOT
BRANCH   1  16
ATOM      9  C   UNL     1      -1.560   0.991  -3.575  0.00  0.00    +0.146 A 
ATOM     10  C   UNL     1      -0.809   1.588  -4.547  0.00  0.00    +0.048 A 
ATOM     11  C   UNL     1      -0.238   0.840  -5.572  0.00  0.00    +0.004 A 
ATOM     12  C   UNL     1      -0.412  -0.511  -5.635  0.00  0.00    +0.010 A 
ATOM     13  C   UNL     1      -1.176  -1.162  -4.656  0.00  0.00    +0.004 A 
ATOM     14  C   UNL     1      -1.762  -0.406  -3.608  0.00  0.00    +0.113 A 
ATOM     15  N   UNL     1      -2.491  -1.016  -2.673  0.00  0.00    -0.244 NA
ATOM     16  C   UNL     1      -2.684  -2.324  -2.698  0.00  0.00    +0.066 A 
ATOM     17  C   UNL     1      -2.128  -3.128  -3.712  0.00  0.00    +0.028 A 
ATOM     18  C   UNL     1      -1.375  -2.557  -4.692  0.00  0.00    +0.012 A 
BRANCH   9  20
ATOM     19  C   UNL     1      -1.867   3.145  -2.618  0.00  0.00    +0.277 C 
ATOM     20  O   UNL     1      -2.115   1.738  -2.586  0.00  0.00    -0.493 OA
ENDBRANCH   9  20
ENDBRANCH   1  16
BRANCH   5  21
ATOM     21  C   UNL     1      -5.366   1.129   0.321  0.00  0.00    +0.043 A 
ATOM     22  C   UNL     1      -4.750   1.948   1.262  0.00  0.00    +0.025 A 
ATOM     23  C   UNL     1      -5.036   3.294   1.298  0.00  0.00    +0.017 A 
ATOM     24  C   UNL     1      -5.956   3.836   0.395  0.00  0.00    +0.063 A 
ATOM     25  C   UNL     1      -6.577   3.009  -0.545  0.00  0.00    +0.017 A 
ATOM     26  C   UNL     1      -6.281   1.665  -0.579  0.00  0.00    +0.025 A 
BRANCH  24  27
ATOM     27  C   UNL     1      -6.269   5.277   0.434  0.00  0.00    +0.387 C 
ATOM     28  O   UNL     1      -7.068   5.746  -0.352  0.00  0.00    -0.241 OA
ATOM     29  O   UNL     1      -5.670   6.072   1.341  0.00  0.00    -0.241 OA
ENDBRANCH  24  27
ENDBRANCH   5  21
TORSDOF 4
