REMARK  Name = ZINC20463773
REMARK  7 active torsions:
REMARK  status: ('A' for Active; 'I' for Inactive)
REMARK    1  A    between atoms: C_4  and  C_7
REMARK    2  A    between atoms: C_7  and  C_8
REMARK    3  A    between atoms: N_11  and  C_14
REMARK    4  A    between atoms: C_16  and  O_39
REMARK    5  A    between atoms: C_18  and  N_27
REMARK    6  A    between atoms: N_27  and  C_28
REMARK    7  A    between atoms: C_28  and  C_29
REMARK                            x       y       z     vdW  Elec       q    Type
REMARK                         _______ _______ _______ _____ _____    ______ ____
ROOT
ATOM      1  C   UNL     1       5.477  -3.253   4.766  0.00  0.00    +0.143 C 
ATOM      2  C   UNL     1       6.811  -3.997   4.640  0.00  0.00    +0.156 C 
ATOM      3  C   UNL     1       6.581  -5.330   3.918  0.00  0.00    +0.116 C 
ATOM      4  C   UNL     1       5.441  -6.080   4.628  0.00  0.00    +0.166 C 
ATOM      5  C   UNL     1       5.703  -6.002   6.151  0.00  0.00    +0.196 C 
ATOM      6  O   UNL     1       5.029  -4.805   6.582  0.00  0.00    -0.347 OA
ATOM      7  C   UNL     1       4.435  -4.198   5.384  0.00  0.00    +0.270 C 
ATOM      8  O   UNL     1       4.238  -5.291   4.456  0.00  0.00    -0.343 OA
ENDROOT
BRANCH   1  12
ATOM      9  C   UNL     1       4.096  -0.976   1.421  0.00  0.00    -0.004 C 
ATOM     10  C   UNL     1       3.164  -2.005   2.069  0.00  0.00    +0.019 C 
ATOM     11  C   UNL     1       3.652  -2.304   3.488  0.00  0.00    +0.085 C 
ATOM     12  N   UNL     1       5.025  -2.824   3.435  0.00  0.00    -0.293 NA
ATOM     13  C   UNL     1       5.946  -1.836   2.860  0.00  0.00    +0.085 C 
ATOM     14  C   UNL     1       5.526  -1.522   1.422  0.00  0.00    +0.019 C 
BRANCH   9  15
ATOM     15  C   UNL     1       3.648  -0.718  -0.020  0.00  0.00    +0.038 C 
BRANCH  15  19
ATOM     16  C   UNL     1      -0.204   1.128  -0.007  0.00  0.00    +0.000 A 
ATOM     17  C   UNL     1       0.936   1.908   0.025  0.00  0.00    +0.000 A 
ATOM     18  C   UNL     1       2.183   1.311   0.021  0.00  0.00    +0.003 A 
ATOM     19  C   UNL     1       2.289  -0.067  -0.015  0.00  0.00    -0.047 A 
ATOM     20  C   UNL     1       1.149  -0.847  -0.046  0.00  0.00    +0.003 A 
ATOM     21  C   UNL     1      -0.098  -0.250  -0.043  0.00  0.00    +0.000 A 
ENDBRANCH  15  19
ENDBRANCH   9  15
ENDBRANCH   1  12
BRANCH   3  22
ATOM     22  N   UNL     1       6.213  -5.076   2.519  0.00  0.00    -0.305 NA
ATOM     23  H   UNL     1       5.234  -4.845   2.439  0.00  0.00    +0.123 HD
BRANCH  22  24
ATOM     24  C   UNL     1       6.554  -6.224   1.669  0.00  0.00    +0.118 C 
BRANCH  24  25
ATOM     25  C   UNL     1       6.163  -5.928   0.244  0.00  0.00    -0.009 A 
ATOM     26  C   UNL     1       5.055  -6.351  -0.385  0.00  0.00    +0.088 A 
ATOM     27  N   UNL     1       5.040  -5.884  -1.671  0.00  0.00    -0.360 N 
ATOM     28  H   UNL     1       4.340  -6.058  -2.319  0.00  0.00    +0.165 HD
ATOM     29  C   UNL     1       6.167  -5.129  -1.907  0.00  0.00    +0.047 A 
ATOM     30  C   UNL     1       6.917  -5.118  -0.716  0.00  0.00    +0.004 A 
ATOM     31  C   UNL     1       8.123  -4.417  -0.658  0.00  0.00    +0.010 A 
ATOM     32  C   UNL     1       8.568  -3.741  -1.759  0.00  0.00    +0.001 A 
ATOM     33  C   UNL     1       7.830  -3.745  -2.935  0.00  0.00    +0.002 A 
ATOM     34  C   UNL     1       6.642  -4.438  -3.017  0.00  0.00    +0.026 A 
ENDBRANCH  24  25
ENDBRANCH  22  24
ENDBRANCH   3  22
BRANCH   2  35
ATOM     35  O   UNL     1       7.343  -4.245   5.943  0.00  0.00    -0.388 OA
ATOM     36  H   UNL     1       8.189  -4.714   5.939  0.00  0.00    +0.210 HD
ENDBRANCH   2  35
TORSDOF 7
