REMARK  Name = ZINC62100928
REMARK  2 active torsions:
REMARK  status: ('A' for Active; 'I' for Inactive)
REMARK    1  A    between atoms: C_5  and  C_8
REMARK    2  A    between atoms: C_5  and  N_11
REMARK                            x       y       z     vdW  Elec       q    Type
REMARK                         _______ _______ _______ _____ _____    ______ ____
ROOT
ATOM      1  N   UNL     1       2.462  -0.545  -0.389  0.00  0.00    -0.283 N 
ATOM      2  C   UNL     1       2.115  -1.620  -1.124  0.00  0.00    +0.303 C 
ATOM      3  O   UNL     1       1.485  -2.527  -0.615  0.00  0.00    -0.253 OA
ATOM      4  N   UNL     1       2.467  -1.691  -2.423  0.00  0.00    -0.284 N 
ATOM      5  C   UNL     1       1.972  -2.807  -3.225  0.00  0.00    +0.118 C 
ATOM      6  C   UNL     1       3.153  -3.663  -3.697  0.00  0.00    +0.115 C 
ATOM      7  C   UNL     1       3.788  -2.991  -4.894  0.00  0.00    +0.215 C 
ATOM      8  O   UNL     1       3.660  -3.479  -5.997  0.00  0.00    -0.276 OA
ATOM      9  N   UNL     1       4.490  -1.864  -4.745  0.00  0.00    -0.314 N 
ATOM     10  C   UNL     1       4.663  -1.260  -3.416  0.00  0.00    +0.123 C 
ATOM     11  C   UNL     1       3.324  -0.645  -2.976  0.00  0.00    +0.128 C 
ATOM     12  H   UNL     1       2.896   0.212  -0.812  0.00  0.00    +0.151 HD
ATOM     13  H   UNL     1       4.889  -1.440  -5.521  0.00  0.00    +0.149 HD
ENDROOT
BRANCH   1  18
ATOM     14  C   UNL     1      -0.044   1.426   0.022  0.00  0.00    +0.000 C 
ATOM     15  C   UNL     1       1.367   2.050   0.004  0.00  0.00    +0.000 C 
ATOM     16  C   UNL     1       1.925   2.009   1.400  0.00  0.00    +0.003 C 
ATOM     17  C   UNL     1       2.792   0.761   1.652  0.00  0.00    +0.037 C 
ATOM     18  C   UNL     1       2.184  -0.520   1.049  0.00  0.00    +0.137 C 
ATOM     19  C   UNL     1       0.697  -0.606   1.259  0.00  0.00    +0.037 C 
ATOM     20  C   UNL     1      -0.008  -0.029   0.014  0.00  0.00    +0.003 C 
BRANCH  18  21
ATOM     21  C   UNL     1       2.837  -1.718   1.690  0.00  0.00    +0.379 C 
ATOM     22  O   UNL     1       2.756  -1.883   2.896  0.00  0.00    -0.244 OA
ATOM     23  O   UNL     1       3.445  -2.521   1.004  0.00  0.00    -0.244 OA
ENDBRANCH  18  21
ENDBRANCH   1  18
TORSDOF 2
