REMARK  Name = ZINC39469639
REMARK  7 active torsions:
REMARK  status: ('A' for Active; 'I' for Inactive)
REMARK    1  A    between atoms: C_1  and  O_2
REMARK    2  A    between atoms: O_2  and  C_3
REMARK    3  A    between atoms: P_12  and  S_23
REMARK    4  A    between atoms: C_20  and  O_21
REMARK    5  A    between atoms: O_21  and  C_22
REMARK    6  A    between atoms: S_23  and  O_26
REMARK    7  A    between atoms: O_26  and  C_27
REMARK                            x       y       z     vdW  Elec       q    Type
REMARK                         _______ _______ _______ _____ _____    ______ ____
ROOT
ATOM      1  C   UNL     1       0.606  -0.607  -1.056  0.00  0.00    +0.158 C 
ATOM      2  C   UNL     1       1.154   0.131  -2.028  0.00  0.00    +0.026 C 
ATOM      3  C   UNL     1       1.824  -0.570  -3.177  0.00  0.00    +0.019 C 
ATOM      4  C   UNL     1       2.842   0.333  -3.868  0.00  0.00    -0.002 C 
ATOM      5  C   UNL     1       3.522  -0.441  -5.006  0.00  0.00    -0.020 C 
ATOM      6  C   UNL     1       4.548   0.502  -5.648  0.00  0.00    +0.158 C 
ATOM      7  O   UNL     1       5.152  -0.150  -6.780  0.00  0.00    -0.301 OA
ATOM      8  P   UNL     1       5.742  -1.651  -6.563  0.00  0.00    +0.431 P 
ATOM      9  O   UNL     1       7.080  -1.589  -5.933  0.00  0.00    -0.246 OA
ATOM     10  N   UNL     1       4.669  -2.398  -5.555  0.00  0.00    -0.271 NA
ATOM     11  N   UNL     1       4.174  -1.651  -4.505  0.00  0.00    +0.398 N 
ATOM     12  C   UNL     1       3.217  -2.530  -3.811  0.00  0.00    -0.046 C 
ATOM     13  C   UNL     1       2.570  -1.799  -2.642  0.00  0.00    +0.008 C 
ATOM     14  C   UNL     1       1.601  -2.668  -1.890  0.00  0.00    +0.025 C 
ATOM     15  C   UNL     1       0.666  -2.083  -1.135  0.00  0.00    +0.158 C 
ATOM     16  H   UNL     1       4.409  -3.322  -5.695  0.00  0.00    +0.113 HD
ATOM     17  H   UNL     1       4.919  -1.396  -3.875  0.00  0.00    -0.055 HD
ENDROOT
BRANCH   8  18
ATOM     18  S   UNL     1       5.851  -2.673  -8.417  0.00  0.00    +0.209 S 
ATOM     19  O   UNL     1       6.505  -3.908  -8.162  0.00  0.00    -0.126 OA
ATOM     20  O   UNL     1       4.555  -2.602  -8.996  0.00  0.00    -0.126 OA
BRANCH  18  21
ATOM     21  O   UNL     1       6.776  -1.870  -9.320  0.00  0.00    -0.339 OA
BRANCH  21  22
ATOM     22  C   UNL     1       8.093  -1.992  -9.011  0.00  0.00    +0.157 A 
ATOM     23  C   UNL     1       8.678  -1.120  -8.105  0.00  0.00    +0.048 A 
ATOM     24  C   UNL     1      10.018  -1.247  -7.792  0.00  0.00    +0.004 A 
ATOM     25  C   UNL     1      10.776  -2.242  -8.383  0.00  0.00    +0.000 A 
ATOM     26  C   UNL     1      10.195  -3.111  -9.287  0.00  0.00    +0.004 A 
ATOM     27  C   UNL     1       8.854  -2.993  -9.598  0.00  0.00    +0.048 A 
ENDBRANCH  21  22
ENDBRANCH  18  21
ENDBRANCH   8  18
BRANCH   1  29
ATOM     28  C   UNL     1      -0.017   1.425   0.010  0.00  0.00    +0.277 C 
ATOM     29  O   UNL     1       0.002  -0.004   0.002  0.00  0.00    -0.492 OA
ENDBRANCH   1  29
BRANCH  15  30
ATOM     30  O   UNL     1      -0.228  -2.842  -0.449  0.00  0.00    -0.492 OA
ATOM     31  C   UNL     1      -0.107  -4.260  -0.575  0.00  0.00    +0.277 C 
ENDBRANCH  15  30
TORSDOF 5
