REMARK  Name = ZINC20916615
REMARK  9 active torsions:
REMARK  status: ('A' for Active; 'I' for Inactive)
REMARK    1  A    between atoms: C_9  and  O_33
REMARK    2  A    between atoms: C_10  and  C_11
REMARK    3  A    between atoms: N_12  and  N_13
REMARK    4  A    between atoms: C_17  and  S_20
REMARK    5  A    between atoms: N_18  and  N_19
REMARK    6  A    between atoms: S_20  and  C_21
REMARK    7  A    between atoms: C_21  and  C_22
REMARK    8  A    between atoms: C_22  and  C_23
REMARK    9  A    between atoms: N_25  and  C_26
REMARK                            x       y       z     vdW  Elec       q    Type
REMARK                         _______ _______ _______ _____ _____    ______ ____
ROOT
ATOM      1  N   UNL     1       1.428   5.005  -0.049  0.00  0.00    -0.204 N 
ATOM      2  C   UNL     1       0.629   3.872  -0.038  0.00  0.00    +0.254 A 
ATOM      3  N   UNL     1      -0.682   3.854  -0.016  0.00  0.00    -0.109 NA
ATOM      4  N   UNL     1      -1.096   2.515  -0.017  0.00  0.00    -0.119 NA
ATOM      5  C   UNL     1      -0.025   1.759  -0.031  0.00  0.00    +0.210 A 
ATOM      6  N   UNL     1       1.069   2.578  -0.048  0.00  0.00    -0.211 N 
ATOM      7  H   UNL     1       2.523   4.906  -0.067  0.00  0.00    +0.177 HD
ENDROOT
BRANCH   6   8
ATOM      8  N   UNL     1       2.374   2.174  -0.070  0.00  0.00    -0.294 N 
ATOM      9  H   UNL     1       2.617   1.101  -0.076  0.00  0.00    +0.163 HD
ATOM     10  H   UNL     1       3.181   2.921  -0.081  0.00  0.00    +0.163 HD
ENDBRANCH   6   8
BRANCH   1  12
ATOM     11  C   UNL     1       1.590   7.340  -0.047  0.00  0.00    +0.142 C 
ATOM     12  N   UNL     1       0.841   6.277  -0.037  0.00  0.00    -0.187 NA
BRANCH  11  22
ATOM     13  C   UNL     1       3.314  12.200  -0.048  0.00  0.00    +0.001 A 
ATOM     14  C   UNL     1       3.934  10.953  -0.060  0.00  0.00    +0.001 A 
ATOM     15  C   UNL     1       3.199   9.805  -0.057  0.00  0.00    +0.009 A 
ATOM     16  C   UNL     1       1.801   9.879  -0.040  0.00  0.00    -0.006 A 
ATOM     17  C   UNL     1       1.167  11.145  -0.033  0.00  0.00    -0.017 A 
ATOM     18  C   UNL     1       1.956  12.308  -0.043  0.00  0.00    +0.008 A 
ATOM     19  C   UNL     1      -0.237  11.217  -0.009  0.00  0.00    +0.012 A 
ATOM     20  C   UNL     1      -0.992  10.086   0.000  0.00  0.00    +0.046 A 
ATOM     21  C   UNL     1      -0.414   8.818  -0.011  0.00  0.00    +0.126 A 
ATOM     22  C   UNL     1       0.974   8.674  -0.035  0.00  0.00    +0.044 A 
BRANCH  21  23
ATOM     23  O   UNL     1      -1.206   7.715   0.000  0.00  0.00    -0.506 OA
ATOM     24  H   UNL     1      -0.754   6.713  -0.009  0.00  0.00    +0.292 HD
ENDBRANCH  21  23
ENDBRANCH  11  22
ENDBRANCH   1  12
BRANCH   5  25
ATOM     25  S   UNL     1       0.000  -0.003  -0.036  0.00  0.00    -0.084 S 
BRANCH  25  26
ATOM     26  C   UNL     1      -1.753  -0.466  -0.007  0.00  0.00    +0.086 C 
BRANCH  26  27
ATOM     27  C   UNL     1      -1.878  -1.991  -0.009  0.00  0.00    +0.107 C 
BRANCH  27  28
ATOM     28  C   UNL     1      -3.335  -2.376   0.015  0.00  0.00    +0.218 C 
ATOM     29  O   UNL     1      -4.189  -1.515   0.031  0.00  0.00    -0.275 OA
ATOM     30  N   UNL     1      -3.688  -3.677   0.018  0.00  0.00    -0.284 N 
ATOM     31  H   UNL     1      -2.917  -4.456  -0.072  0.00  0.00    +0.155 HD
BRANCH  30  32
ATOM     32  C   UNL     1      -5.036  -4.035   0.134  0.00  0.00    +0.052 A 
ATOM     33  C   UNL     1      -6.019  -3.243  -0.443  0.00  0.00    +0.025 A 
ATOM     34  C   UNL     1      -7.348  -3.603  -0.332  0.00  0.00    +0.002 A 
ATOM     35  C   UNL     1      -7.701  -4.745   0.364  0.00  0.00    +0.002 A 
ATOM     36  C   UNL     1      -6.726  -5.533   0.946  0.00  0.00    +0.022 A 
ATOM     37  C   UNL     1      -5.393  -5.182   0.833  0.00  0.00    +0.062 A 
ATOM     38 CL   UNL     1      -4.169  -6.172   1.564  0.00  0.00    -0.082 Cl
ENDBRANCH  30  32
ENDBRANCH  27  28
ENDBRANCH  26  27
ENDBRANCH  25  26
ENDBRANCH   5  25
TORSDOF 9
