REMARK  Name = ZINC40403184
REMARK  8 active torsions:
REMARK  status: ('A' for Active; 'I' for Inactive)
REMARK    1  A    between atoms: C_1  and  C_2
REMARK    2  A    between atoms: C_2  and  O_3
REMARK    3  A    between atoms: O_3  and  C_4
REMARK    4  A    between atoms: C_4  and  C_6
REMARK    5  A    between atoms: C_13  and  C_15
REMARK    6  A    between atoms: N_18  and  C_30
REMARK    7  A    between atoms: N_21  and  C_23
REMARK    8  A    between atoms: C_30  and  C_31
REMARK                            x       y       z     vdW  Elec       q    Type
REMARK                         _______ _______ _______ _____ _____    ______ ____
ROOT
ATOM      1  C   UNL     1       2.310  -2.583   7.220  0.00  0.00    +0.210 A 
ATOM      2  C   UNL     1       2.842  -1.808   8.357  0.00  0.00    +0.288 A 
ATOM      3  O   UNL     1       2.750  -0.595   8.390  0.00  0.00    -0.265 OA
ATOM      4  N   UNL     1       3.436  -2.493   9.362  0.00  0.00    -0.253 N 
ATOM      5  C   UNL     1       3.510  -3.836   9.274  0.00  0.00    +0.353 A 
ATOM      6  O   UNL     1       4.040  -4.464  10.169  0.00  0.00    -0.244 OA
ATOM      7  N   UNL     1       3.009  -4.493   8.216  0.00  0.00    -0.181 N 
ATOM      8  N   UNL     1       2.431  -3.893   7.238  0.00  0.00    -0.152 NA
ENDROOT
BRANCH   1  15
ATOM      9  C   UNL     1       1.148  -2.149   2.604  0.00  0.00    +0.115 C 
ATOM     10  C   UNL     1       1.478  -3.624   2.363  0.00  0.00    +0.018 C 
ATOM     11  C   UNL     1       2.429  -4.120   3.455  0.00  0.00    +0.020 C 
ATOM     12  C   UNL     1       1.744  -3.994   4.819  0.00  0.00    +0.108 C 
ATOM     13  N   UNL     1       1.294  -2.607   4.996  0.00  0.00    -0.295 N 
ATOM     14  C   UNL     1       0.449  -2.000   3.959  0.00  0.00    +0.122 C 
ATOM     15  C   UNL     1       1.649  -1.904   6.090  0.00  0.00    +0.272 C 
ATOM     16  O   UNL     1       1.426  -0.710   6.145  0.00  0.00    -0.268 OA
BRANCH   9  17
ATOM     17  C   UNL     1       0.237  -1.652   1.511  0.00  0.00    +0.312 C 
ATOM     18  O   UNL     1      -0.112  -2.400   0.629  0.00  0.00    -0.250 OA
BRANCH  17  19
ATOM     19  O   UNL     1      -0.186  -0.378   1.517  0.00  0.00    -0.465 OA
BRANCH  19  21
ATOM     20  C   UNL     1      -1.423   1.497   0.626  0.00  0.00    +0.048 C 
ATOM     21  C   UNL     1      -1.047   0.025   0.450  0.00  0.00    +0.229 C 
ENDBRANCH  19  21
ENDBRANCH  17  19
ENDBRANCH   9  17
ENDBRANCH   1  15
BRANCH   7  22
ATOM     22  C   UNL     1       3.115  -5.887   8.179  0.00  0.00    +0.073 A 
ATOM     23  C   UNL     1       4.333  -6.500   8.450  0.00  0.00    +0.028 A 
ATOM     24  C   UNL     1       4.436  -7.876   8.414  0.00  0.00    +0.005 A 
ATOM     25  C   UNL     1       3.330  -8.647   8.107  0.00  0.00    +0.038 A 
ATOM     26  C   UNL     1       2.114  -8.041   7.836  0.00  0.00    +0.125 A 
ATOM     27  C   UNL     1       2.003  -6.662   7.878  0.00  0.00    +0.066 A 
ATOM     28  F   UNL     1       1.035  -8.796   7.536  0.00  0.00    -0.205 F 
ENDBRANCH   7  22
BRANCH   4  29
ATOM     29  C   UNL     1       3.988  -1.788  10.522  0.00  0.00    +0.165 C 
BRANCH  29  30
ATOM     30  C   UNL     1       2.925  -1.659  11.583  0.00  0.00    -0.027 A 
ATOM     31  C   UNL     1       2.091  -0.557  11.594  0.00  0.00    +0.008 A 
ATOM     32  C   UNL     1       1.116  -0.437  12.567  0.00  0.00    +0.038 A 
ATOM     33  C   UNL     1       0.975  -1.422  13.530  0.00  0.00    +0.123 A 
ATOM     34  C   UNL     1       1.811  -2.526  13.517  0.00  0.00    +0.038 A 
ATOM     35  C   UNL     1       2.782  -2.646  12.541  0.00  0.00    +0.008 A 
ATOM     36  F   UNL     1       0.023  -1.306  14.481  0.00  0.00    -0.205 F 
ENDBRANCH  29  30
ENDBRANCH   4  29
TORSDOF 7
