REMARK  Name = ZINC39466690
REMARK  7 active torsions:
REMARK  status: ('A' for Active; 'I' for Inactive)
REMARK    1  A    between atoms: C_1  and  S_2
REMARK    2  A    between atoms: S_2  and  C_3
REMARK    3  A    between atoms: P_12  and  C_31
REMARK    4  A    between atoms: C_20  and  S_21
REMARK    5  A    between atoms: S_21  and  O_24
REMARK    6  A    between atoms: O_24  and  C_25
REMARK    7  A    between atoms: C_31  and  C_32
REMARK                            x       y       z     vdW  Elec       q    Type
REMARK                         _______ _______ _______ _____ _____    ______ ____
ROOT
ATOM      1  C   UNL     1      -1.282  -0.256  -0.133  0.00  0.00    +0.032 C 
ATOM      2  C   UNL     1      -2.058   0.835  -0.155  0.00  0.00    -0.006 C 
ATOM      3  C   UNL     1      -3.555   0.685  -0.136  0.00  0.00    +0.017 C 
ATOM      4  C   UNL     1      -4.218   1.904  -0.762  0.00  0.00    -0.003 C 
ATOM      5  C   UNL     1      -5.596   1.550  -1.338  0.00  0.00    -0.020 C 
ATOM      6  C   UNL     1      -6.425   2.841  -1.249  0.00  0.00    +0.156 C 
ATOM      7  O   UNL     1      -7.737   2.631  -1.794  0.00  0.00    -0.319 OA
ATOM      8  P   UNL     1      -8.575   1.347  -1.248  0.00  0.00    +0.262 P 
ATOM      9  O   UNL     1      -9.630   0.971  -2.215  0.00  0.00    -0.274 OA
ATOM     10  N   UNL     1      -7.460   0.141  -1.116  0.00  0.00    -0.291 NA
ATOM     11  N   UNL     1      -6.218   0.456  -0.602  0.00  0.00    +0.397 N 
ATOM     12  C   UNL     1      -5.461  -0.799  -0.722  0.00  0.00    -0.046 C 
ATOM     13  C   UNL     1      -3.961  -0.553  -0.932  0.00  0.00    +0.006 C 
ATOM     14  C   UNL     1      -3.171  -1.744  -0.459  0.00  0.00    +0.007 C 
ATOM     15  C   UNL     1      -1.907  -1.593  -0.084  0.00  0.00    +0.137 C 
ATOM     16  H   UNL     1      -7.677  -0.765  -1.387  0.00  0.00    +0.111 HD
ATOM     17  H   UNL     1      -6.301   0.709   0.371  0.00  0.00    -0.055 HD
ENDROOT
BRANCH  15  18
ATOM     18  S   UNL     1      -0.982  -2.983   0.478  0.00  0.00    +0.152 S 
ATOM     19  O   UNL     1      -0.273  -2.559   1.635  0.00  0.00    -0.131 OA
ATOM     20  O   UNL     1      -1.877  -4.087   0.496  0.00  0.00    -0.131 OA
BRANCH  18  21
ATOM     21  O   UNL     1       0.063  -3.288  -0.585  0.00  0.00    -0.342 OA
BRANCH  21  22
ATOM     22  C   UNL     1      -0.440  -3.879  -1.701  0.00  0.00    +0.157 A 
ATOM     23  C   UNL     1      -0.501  -5.262  -1.787  0.00  0.00    +0.048 A 
ATOM     24  C   UNL     1      -1.013  -5.860  -2.922  0.00  0.00    +0.004 A 
ATOM     25  C   UNL     1      -1.464  -5.081  -3.972  0.00  0.00    +0.000 A 
ATOM     26  C   UNL     1      -1.403  -3.703  -3.889  0.00  0.00    +0.004 A 
ATOM     27  C   UNL     1      -0.898  -3.099  -2.753  0.00  0.00    +0.048 A 
ENDBRANCH  21  22
ENDBRANCH  18  21
ENDBRANCH  15  18
BRANCH   1  29
ATOM     28  C   UNL     1       0.751   1.694  -0.225  0.00  0.00    +0.090 C 
ATOM     29  S   UNL     1       0.473  -0.098  -0.170  0.00  0.00    -0.127 S 
ENDBRANCH   1  29
BRANCH   8  30
ATOM     30  C   UNL     1      -9.311   1.716   0.379  0.00  0.00    +0.147 C 
BRANCH  30  31
ATOM     31  C   UNL     1     -10.243   2.893   0.254  0.00  0.00    -0.037 A 
ATOM     32  C   UNL     1      -9.763   4.177   0.432  0.00  0.00    +0.004 A 
ATOM     33  C   UNL     1     -10.618   5.257   0.317  0.00  0.00    +0.000 A 
ATOM     34  C   UNL     1     -11.953   5.054   0.022  0.00  0.00    +0.000 A 
ATOM     35  C   UNL     1     -12.433   3.770  -0.157  0.00  0.00    +0.000 A 
ATOM     36  C   UNL     1     -11.577   2.690  -0.046  0.00  0.00    +0.004 A 
ENDBRANCH  30  31
ENDBRANCH   8  30
TORSDOF 6
