REMARK  Name = ZINC21227852
REMARK  9 active torsions:
REMARK  status: ('A' for Active; 'I' for Inactive)
REMARK    1  A    between atoms: C_1  and  C_2
REMARK    2  A    between atoms: C_2  and  C_3
REMARK    3  A    between atoms: C_3  and  O_4
REMARK    4  A    between atoms: O_4  and  C_5
REMARK    5  A    between atoms: C_10  and  C_11
REMARK    6  A    between atoms: C_16  and  C_21
REMARK    7  A    between atoms: C_24  and  N_27
REMARK    8  A    between atoms: N_27  and  C_28
REMARK    9  A    between atoms: N_27  and  C_29
REMARK                            x       y       z     vdW  Elec       q    Type
REMARK                         _______ _______ _______ _____ _____    ______ ____
ROOT
ATOM      1  C   UNL     1       2.459   3.892   0.009  0.00  0.00    +0.139 C 
ATOM      2  C   UNL     1       3.011   3.889  -1.397  0.00  0.00    +0.037 C 
ATOM      3  C   UNL     1       3.053   4.938  -2.232  0.00  0.00    +0.017 C 
ATOM      4  C   UNL     1       3.605   4.780  -3.640  0.00  0.00    +0.059 C 
ATOM      5  C   UNL     1       4.725   3.741  -3.646  0.00  0.00    +0.032 C 
ATOM      6  C   UNL     1       4.133   2.414  -3.157  0.00  0.00    +0.088 C 
ATOM      7  C   UNL     1       3.522   2.631  -1.806  0.00  0.00    +0.163 C 
ATOM      8  O   UNL     1       3.461   1.695  -1.033  0.00  0.00    -0.292 OA
ATOM      9  N   UNL     1       2.614   6.186  -1.932  0.00  0.00    -0.316 N 
ATOM     10  C   UNL     1       1.395   6.474  -1.328  0.00  0.00    +0.052 A 
ATOM     11  C   UNL     1       0.421   7.231  -1.955  0.00  0.00    +0.025 A 
ATOM     12  C   UNL     1      -0.725   7.574  -1.258  0.00  0.00    +0.002 A 
ATOM     13  C   UNL     1      -0.895   7.161   0.051  0.00  0.00    +0.002 A 
ATOM     14  C   UNL     1       0.069   6.386   0.672  0.00  0.00    +0.025 A 
ATOM     15  C   UNL     1       1.210   6.027  -0.028  0.00  0.00    +0.049 A 
ATOM     16  N   UNL     1       2.186   5.211   0.539  0.00  0.00    -0.331 N 
ATOM     17  H   UNL     1       3.239   7.060  -2.168  0.00  0.00    +0.152 HD
ATOM     18  H   UNL     1       2.754   5.584   1.404  0.00  0.00    +0.147 HD
ENDROOT
BRANCH   1  24
ATOM     19  C   UNL     1       0.708   2.559   1.210  0.00  0.00    +0.126 A 
ATOM     20  C   UNL     1      -0.471   1.827   1.219  0.00  0.00    +0.046 A 
ATOM     21  C   UNL     1      -1.169   1.631   0.043  0.00  0.00    +0.004 A 
ATOM     22  C   UNL     1      -0.700   2.173  -1.139  0.00  0.00    +0.001 A 
ATOM     23  C   UNL     1       0.474   2.902  -1.151  0.00  0.00    +0.009 A 
ATOM     24  C   UNL     1       1.179   3.097   0.022  0.00  0.00    +0.019 A 
BRANCH  19  25
ATOM     25  O   UNL     1       1.400   2.749   2.365  0.00  0.00    -0.492 OA
BRANCH  25  26
ATOM     26  C   UNL     1       0.856   2.166   3.550  0.00  0.00    +0.229 C 
BRANCH  26  28
ATOM     27  C   UNL     1       1.183   1.859   6.008  0.00  0.00    +0.007 C 
ATOM     28  C   UNL     1       1.765   2.483   4.739  0.00  0.00    +0.038 C 
ENDBRANCH  26  28
ENDBRANCH  25  26
ENDBRANCH  19  25
ENDBRANCH   1  24
BRANCH   5  29
ATOM     29  C   UNL     1       5.263   3.578  -5.044  0.00  0.00    -0.043 A 
ATOM     30  C   UNL     1       4.425   3.159  -6.061  0.00  0.00    +0.006 A 
ATOM     31  C   UNL     1       4.914   3.013  -7.344  0.00  0.00    +0.023 A 
ATOM     32  C   UNL     1       6.251   3.279  -7.611  0.00  0.00    +0.029 A 
ATOM     33  C   UNL     1       7.091   3.694  -6.586  0.00  0.00    +0.023 A 
ATOM     34  C   UNL     1       6.595   3.843  -5.306  0.00  0.00    +0.006 A 
BRANCH  32  35
ATOM     35  N   UNL     1       6.750   3.128  -8.907  0.00  0.00    -0.336 N 
ATOM     36  C   UNL     1       8.183   3.286  -9.163  0.00  0.00    +0.129 C 
ATOM     37  C   UNL     1       5.839   2.811 -10.010  0.00  0.00    +0.129 C 
ENDBRANCH  32  35
ENDBRANCH   5  29
TORSDOF 6
