REMARK  Name = ZINC45599251
REMARK  10 active torsions:
REMARK  status: ('A' for Active; 'I' for Inactive)
REMARK    1  A    between atoms: C_1  and  C_2
REMARK    2  A    between atoms: C_2  and  N_3
REMARK    3  A    between atoms: C_4  and  C_22
REMARK    4  A    between atoms: C_7  and  S_8
REMARK    5  A    between atoms: S_8  and  C_9
REMARK    6  A    between atoms: C_9  and  C_11
REMARK    7  A    between atoms: C_9  and  C_12
REMARK    8  A    between atoms: N_18  and  C_19
REMARK    9  A    between atoms: N_18  and  C_20
REMARK   10  A    between atoms: C_24  and  C_32
REMARK                            x       y       z     vdW  Elec       q    Type
REMARK                         _______ _______ _______ _____ _____    ______ ____
ROOT
ATOM      1  N   UNL     1      -1.439  -0.363   0.031  0.00  0.00    -0.302 N 
ATOM      2  C   UNL     1      -2.111  -0.890   1.111  0.00  0.00    +0.166 A 
ATOM      3  N   UNL     1      -3.223  -1.421   0.653  0.00  0.00    -0.128 NA
ATOM      4  N   UNL     1      -3.289  -1.265  -0.621  0.00  0.00    -0.122 NA
ATOM      5  C   UNL     1      -2.227  -0.618  -1.054  0.00  0.00    +0.193 A 
ENDROOT
BRANCH   2   6
ATOM      6  C   UNL     1      -1.668  -0.863   2.517  0.00  0.00    +0.030 A 
ATOM      7  C   UNL     1      -0.376  -1.235   2.876  0.00  0.00    +0.040 A 
ATOM      8  C   UNL     1       0.002  -1.194   4.221  0.00  0.00    +0.072 A 
ATOM      9  N   UNL     1      -0.826  -0.813   5.175  0.00  0.00    -0.247 NA
ATOM     10  C   UNL     1      -2.083  -0.440   4.923  0.00  0.00    +0.072 A 
ATOM     11  C   UNL     1      -2.567  -0.438   3.592  0.00  0.00    +0.011 A 
ATOM     12  C   UNL     1      -3.882  -0.041   3.330  0.00  0.00    +0.011 A 
ATOM     13  C   UNL     1      -4.687   0.347   4.361  0.00  0.00    +0.001 A 
ATOM     14  C   UNL     1      -4.214   0.354   5.671  0.00  0.00    +0.002 A 
ATOM     15  C   UNL     1      -2.943  -0.039   5.961  0.00  0.00    +0.028 A 
BRANCH   8  16
ATOM     16  C   UNL     1       1.382  -1.594   4.589  0.00  0.00    +0.000 A 
ATOM     17  C   UNL     1       2.280  -1.996   3.602  0.00  0.00    +0.010 A 
ATOM     18  C   UNL     1       3.563  -2.367   3.950  0.00  0.00    +0.001 A 
ATOM     19  C   UNL     1       3.958  -2.340   5.276  0.00  0.00    +0.000 A 
ATOM     20  C   UNL     1       3.071  -1.942   6.260  0.00  0.00    +0.001 A 
ATOM     21  C   UNL     1       1.787  -1.563   5.923  0.00  0.00    +0.010 A 
ENDBRANCH   8  16
ENDBRANCH   2   6
BRANCH   1  23
ATOM     22  C   UNL     1      -0.377   1.824   0.298  0.00  0.00    +0.027 C 
ATOM     23  C   UNL     1      -0.150   0.332   0.043  0.00  0.00    +0.122 C 
ENDBRANCH   1  23
BRANCH   5  24
ATOM     24  S   UNL     1      -1.884  -0.170  -2.723  0.00  0.00    -0.075 S 
BRANCH  24  25
ATOM     25  C   UNL     1      -3.313  -0.797  -3.648  0.00  0.00    +0.119 C 
ATOM     26  C   UNL     1      -3.341  -2.325  -3.569  0.00  0.00    +0.028 C 
BRANCH  25  27
ATOM     27  C   UNL     1      -3.206  -0.370  -5.089  0.00  0.00    +0.149 A 
ATOM     28  N   UNL     1      -2.055  -0.488  -5.727  0.00  0.00    -0.198 NA
ATOM     29  C   UNL     1      -1.956  -0.113  -7.000  0.00  0.00    +0.217 A 
ATOM     30  N   UNL     1      -3.016   0.382  -7.629  0.00  0.00    -0.181 NA
ATOM     31  C   UNL     1      -4.172   0.500  -6.984  0.00  0.00    +0.222 A 
ATOM     32  N   UNL     1      -4.264   0.117  -5.713  0.00  0.00    -0.198 NA
ATOM     33  N   UNL     1      -5.276   1.014  -7.633  0.00  0.00    -0.306 N 
ATOM     34  C   UNL     1      -5.174   1.430  -9.034  0.00  0.00    +0.132 C 
ATOM     35  C   UNL     1      -6.549   1.143  -6.921  0.00  0.00    +0.132 C 
ATOM     36  N   UNL     1      -0.753  -0.236  -7.666  0.00  0.00    -0.327 N 
ATOM     37  H   UNL     1       0.021  -0.598  -7.206  0.00  0.00    +0.145 HD
ATOM     38  H   UNL     1      -0.682   0.038  -8.593  0.00  0.00    +0.145 HD
ENDBRANCH  25  27
ENDBRANCH  24  25
ENDBRANCH   5  24
TORSDOF 6
