REMARK  Name = ZINC00877232
REMARK  7 active torsions:
REMARK  status: ('A' for Active; 'I' for Inactive)
REMARK    1  A    between atoms: C_1  and  C_2
REMARK    2  A    between atoms: C_4  and  C_28
REMARK    3  A    between atoms: C_7  and  C_27
REMARK    4  A    between atoms: C_11  and  S_15
REMARK    5  A    between atoms: S_15  and  C_16
REMARK    6  A    between atoms: C_16  and  C_17
REMARK    7  A    between atoms: N_19  and  C_20
REMARK                            x       y       z     vdW  Elec       q    Type
REMARK                         _______ _______ _______ _____ _____    ______ ____
ROOT
ATOM      1  C   UNL     1      -4.003   3.869   4.500  0.00  0.00    +0.044 C 
ATOM      2  C   UNL     1      -2.865   3.101   5.122  0.00  0.00    -0.048 A 
ATOM      3  C   UNL     1      -2.753   3.037   6.503  0.00  0.00    +0.007 A 
ATOM      4  C   UNL     1      -1.719   2.338   7.085  0.00  0.00    -0.041 A 
ATOM      5  C   UNL     1      -0.779   1.690   6.278  0.00  0.00    +0.002 A 
ATOM      6  C   UNL     1       0.331   0.938   6.870  0.00  0.00    +0.017 A 
ATOM      7  C   UNL     1       1.220   0.325   6.055  0.00  0.00    -0.005 A 
ATOM      8  C   UNL     1       1.078   0.408   4.650  0.00  0.00    +0.165 A 
ATOM      9  N   UNL     1       1.789  -0.086   3.653  0.00  0.00    -0.128 NA
ATOM     10  N   UNL     1       1.263   0.256   2.531  0.00  0.00    -0.122 NA
ATOM     11  C   UNL     1       0.194   0.993   2.735  0.00  0.00    +0.197 A 
ATOM     12  N   UNL     1       0.038   1.113   4.085  0.00  0.00    -0.270 N 
ATOM     13  C   UNL     1      -0.896   1.757   4.878  0.00  0.00    +0.058 A 
ATOM     14  C   UNL     1      -1.946   2.467   4.312  0.00  0.00    +0.030 A 
ATOM     15  C   UNL     1       2.367  -0.452   6.647  0.00  0.00    +0.047 C 
ATOM     16  C   UNL     1      -1.602   2.271   8.586  0.00  0.00    +0.044 C 
ENDROOT
BRANCH  11  17
ATOM     17  S   UNL     1      -0.847   1.691   1.497  0.00  0.00    -0.076 S 
BRANCH  17  18
ATOM     18  C   UNL     1      -0.003   1.101   0.008  0.00  0.00    +0.173 C 
BRANCH  18  19
ATOM     19  C   UNL     1      -0.738   1.591  -1.213  0.00  0.00    +0.228 C 
ATOM     20  O   UNL     1      -1.735   2.271  -1.089  0.00  0.00    -0.275 OA
ATOM     21  N   UNL     1      -0.288   1.272  -2.443  0.00  0.00    -0.284 N 
ATOM     22  H   UNL     1       0.543   0.784  -2.544  0.00  0.00    +0.155 HD
BRANCH  21  23
ATOM     23  C   UNL     1      -1.022   1.647  -3.575  0.00  0.00    +0.052 A 
ATOM     24  C   UNL     1      -1.723   2.845  -3.585  0.00  0.00    +0.025 A 
ATOM     25  C   UNL     1      -2.441   3.214  -4.706  0.00  0.00    +0.002 A 
ATOM     26  C   UNL     1      -2.472   2.387  -5.813  0.00  0.00    +0.002 A 
ATOM     27  C   UNL     1      -1.780   1.190  -5.805  0.00  0.00    +0.022 A 
ATOM     28  C   UNL     1      -1.055   0.817  -4.689  0.00  0.00    +0.062 A 
ATOM     29 CL   UNL     1      -0.187  -0.687  -4.679  0.00  0.00    -0.082 Cl
ENDBRANCH  21  23
ENDBRANCH  18  19
ENDBRANCH  17  18
ENDBRANCH  11  17
TORSDOF 4
