REMARK  Name = ZINC09187519
REMARK  16 active torsions:
REMARK  status: ('A' for Active; 'I' for Inactive)
REMARK    1  A    between atoms: C_1  and  C_2
REMARK    2  A    between atoms: C_2  and  C_3
REMARK    3  A    between atoms: C_3  and  O_4
REMARK    4  A    between atoms: O_4  and  C_5
REMARK    5  A    between atoms: C_8  and  C_14
REMARK    6  A    between atoms: C_10  and  O_11
REMARK    7  A    between atoms: O_11  and  C_12
REMARK    8  A    between atoms: C_12  and  C_13
REMARK    9  A    between atoms: C_16  and  C_26
REMARK   10  A    between atoms: C_17  and  O_25
REMARK   11  A    between atoms: N_20  and  C_21
REMARK   12  A    between atoms: C_21  and  C_22
REMARK   13  A    between atoms: C_22  and  N_71
REMARK   14  A    between atoms: C_23  and  N_71
REMARK   15  A    between atoms: C_24  and  N_71
REMARK   16  A    between atoms: C_26  and  C_28
REMARK                            x       y       z     vdW  Elec       q    Type
REMARK                         _______ _______ _______ _____ _____    ______ ____
ROOT
ATOM      1  C   UNL     1       2.884   3.055   0.113  0.00  0.00    +0.144 C 
ATOM      2  C   UNL     1       1.455   2.566   0.076  0.00  0.00    +0.071 C 
ATOM      3  C   UNL     1       1.505   1.228  -0.118  0.00  0.00    +0.188 C 
ATOM      4  C   UNL     1       2.917   0.802  -0.207  0.00  0.00    +0.282 C 
ATOM      5  O   UNL     1       3.292  -0.341  -0.374  0.00  0.00    -0.267 OA
ATOM      6  N   UNL     1       3.727   1.869  -0.078  0.00  0.00    -0.285 N 
ENDROOT
BRANCH   1  10
ATOM      7  C   UNL     1       3.722   4.861   3.897  0.00  0.00    +0.162 A 
ATOM      8  C   UNL     1       3.545   3.490   3.805  0.00  0.00    +0.050 A 
ATOM      9  C   UNL     1       3.268   2.910   2.581  0.00  0.00    +0.009 A 
ATOM     10  C   UNL     1       3.179   3.693   1.445  0.00  0.00    -0.019 A 
ATOM     11  C   UNL     1       3.356   5.062   1.530  0.00  0.00    +0.055 A 
ATOM     12  C   UNL     1       3.627   5.650   2.755  0.00  0.00    +0.162 A 
BRANCH   7  13
ATOM     13  O   UNL     1       3.988   5.434   5.101  0.00  0.00    -0.488 OA
BRANCH  13  14
ATOM     14  C   UNL     1       4.071   4.562   6.231  0.00  0.00    +0.229 C 
BRANCH  14  16
ATOM     15  C   UNL     1       4.464   4.448   8.695  0.00  0.00    +0.007 C 
ATOM     16  C   UNL     1       4.375   5.382   7.487  0.00  0.00    +0.038 C 
ENDBRANCH  14  16
ENDBRANCH  13  14
ENDBRANCH   7  13
BRANCH  12  17
ATOM     17  O   UNL     1       3.801   6.997   2.841  0.00  0.00    -0.489 OA
BRANCH  17  18
ATOM     18  C   UNL     1       3.805   7.729   1.614  0.00  0.00    +0.226 C 
ATOM     19  C   UNL     1       4.131   9.197   1.898  0.00  0.00    +0.048 C 
ENDBRANCH  17  18
ENDBRANCH  12  17
ENDBRANCH   1  10
BRANCH   3  20
ATOM     20  O   UNL     1       0.432   0.408  -0.210  0.00  0.00    -0.502 OA
ATOM     21  H   UNL     1       0.742  -0.532  -0.353  0.00  0.00    +0.292 HD
ENDBRANCH   3  20
BRANCH   2  22
ATOM     22  C   UNL     1       0.247   3.384   0.223  0.00  0.00    +0.195 C 
ATOM     23  O   UNL     1      -0.536   3.157   1.127  0.00  0.00    -0.287 OA
BRANCH  22  24
ATOM     24  C   UNL     1      -0.021   4.482  -0.726  0.00  0.00    +0.026 A 
ATOM     25  C   UNL     1       0.816   4.675  -1.830  0.00  0.00    +0.015 A 
ATOM     26  C   UNL     1       0.562   5.698  -2.715  0.00  0.00    +0.050 A 
ATOM     27  C   UNL     1      -0.519   6.549  -2.511  0.00  0.00    +0.162 A 
ATOM     28  C   UNL     1      -1.355   6.364  -1.413  0.00  0.00    +0.163 A 
ATOM     29  C   UNL     1      -1.107   5.337  -0.522  0.00  0.00    +0.061 A 
ATOM     30  O   UNL     1      -2.422   7.184  -1.204  0.00  0.00    -0.485 OA
ATOM     31  C   UNL     1      -2.424   8.430  -1.910  0.00  0.00    +0.270 C 
ATOM     32  C   UNL     1      -2.045   8.155  -3.371  0.00  0.00    +0.270 C 
ATOM     33  O   UNL     1      -0.744   7.559  -3.393  0.00  0.00    -0.485 OA
ENDBRANCH  22  24
ENDBRANCH   2  22
BRANCH   6  34
ATOM     34  C   UNL     1       5.191   1.849  -0.115  0.00  0.00    +0.090 C 
BRANCH  34  35
ATOM     35  C   UNL     1       5.734   1.636   1.299  0.00  0.00    -0.060 C 
BRANCH  35  38
ATOM     36  C   UNL     1       7.764   1.652   2.619  0.00  0.00    -0.097 C 
ATOM     37  C   UNL     1       7.695   0.448   0.519  0.00  0.00    -0.097 C 
ATOM     38  N   UNL     1       7.212   1.640   1.248  0.00  0.00    +0.377 N 
ATOM     39  H   UNL     1       7.526   2.483   0.754  0.00  0.00    -0.083 HD
ENDBRANCH  35  38
ENDBRANCH  34  35
ENDBRANCH   6  34
TORSDOF 12
