REMARK  Name = ZINC40450833
REMARK  9 active torsions:
REMARK  status: ('A' for Active; 'I' for Inactive)
REMARK    1  A    between atoms: C_1  and  C_2
REMARK    2  A    between atoms: C_2  and  C_3
REMARK    3  A    between atoms: C_11  and  S_15
REMARK    4  A    between atoms: S_15  and  C_18
REMARK    5  A    between atoms: C_18  and  C_19
REMARK    6  A    between atoms: C_19  and  C_20
REMARK    7  A    between atoms: N_22  and  C_23
REMARK    8  A    between atoms: C_23  and  C_24
REMARK    9  A    between atoms: C_24  and  N_25
REMARK                            x       y       z     vdW  Elec       q    Type
REMARK                         _______ _______ _______ _____ _____    ______ ____
ROOT
ATOM      1  S   UNL     1       3.408  -1.903  -6.142  0.00  0.00    -0.002 S 
ATOM      2  O   UNL     1       2.848  -2.435  -7.335  0.00  0.00    -0.169 OA
ATOM      3  O   UNL     1       3.217  -0.538  -5.799  0.00  0.00    -0.169 OA
ENDROOT
BRANCH   1  12
ATOM      4  C   UNL     1       0.641  -1.051  -1.302  0.00  0.00    +0.220 C 
ATOM      5  O   UNL     1       1.088  -0.198  -2.040  0.00  0.00    -0.275 OA
ATOM      6  N   UNL     1       0.787  -2.354  -1.614  0.00  0.00    -0.271 N 
ATOM      7  C   UNL     1       0.287  -3.472  -0.809  0.00  0.00    +0.118 C 
ATOM      8  C   UNL     1       0.698  -4.738  -1.577  0.00  0.00    +0.056 C 
ATOM      9  C   UNL     1       1.424  -4.223  -2.799  0.00  0.00    -0.023 A 
ATOM     10  C   UNL     1       1.432  -2.838  -2.757  0.00  0.00    +0.041 A 
ATOM     11  C   UNL     1       2.047  -2.132  -3.792  0.00  0.00    +0.051 A 
ATOM     12  C   UNL     1       2.634  -2.806  -4.842  0.00  0.00    +0.104 A 
ATOM     13  C   UNL     1       2.617  -4.189  -4.877  0.00  0.00    +0.043 A 
ATOM     14  C   UNL     1       2.016  -4.896  -3.851  0.00  0.00    +0.022 A 
ATOM     15 BR   UNL     1       3.422  -5.110  -6.319  0.00  0.00    -0.048 Br
BRANCH   4  17
ATOM     16  C   UNL     1      -0.102   0.871   0.076  0.00  0.00    +0.013 C 
ATOM     17  C   UNL     1      -0.076  -0.654  -0.038  0.00  0.00    +0.093 C 
ENDBRANCH   4  17
ENDBRANCH   1  12
BRANCH   1  18
ATOM     18  C   UNL     1       5.165  -2.337  -6.029  0.00  0.00    +0.181 C 
BRANCH  18  19
ATOM     19  C   UNL     1       5.943  -1.603  -7.123  0.00  0.00    +0.119 C 
BRANCH  19  20
ATOM     20  C   UNL     1       7.403  -1.963  -7.030  0.00  0.00    +0.215 C 
ATOM     21  O   UNL     1       7.784  -2.732  -6.172  0.00  0.00    -0.276 OA
ATOM     22  N   UNL     1       8.286  -1.431  -7.899  0.00  0.00    -0.317 N 
ATOM     23  H   UNL     1       7.981  -0.817  -8.584  0.00  0.00    +0.149 HD
BRANCH  22  24
ATOM     24  C   UNL     1       9.705  -1.782  -7.808  0.00  0.00    +0.085 C 
BRANCH  24  25
ATOM     25  C   UNL     1      10.483  -1.047  -8.902  0.00  0.00    -0.060 C 
BRANCH  25  26
ATOM     26  N   UNL     1      11.921  -1.297  -8.732  0.00  0.00    +0.381 N 
ATOM     27  C   UNL     1      12.667  -0.399  -9.635  0.00  0.00    -0.079 C 
ATOM     28  C   UNL     1      14.050  -0.200  -9.069  0.00  0.00    -0.019 C 
ATOM     29  C   UNL     1      15.065  -1.166  -9.709  0.00  0.00    -0.002 C 
ATOM     30  C   UNL     1      14.473  -2.577  -9.897  0.00  0.00    -0.002 C 
ATOM     31  C   UNL     1      13.649  -3.016  -8.713  0.00  0.00    -0.019 C 
ATOM     32  C   UNL     1      12.171  -2.650  -8.965  0.00  0.00    -0.079 C 
ATOM     33  H   UNL     1      12.176  -1.080  -7.780  0.00  0.00    -0.082 HD
ENDBRANCH  25  26
ENDBRANCH  24  25
ENDBRANCH  22  24
ENDBRANCH  19  20
ENDBRANCH  18  19
ENDBRANCH   1  18
TORSDOF 8
