REMARK  Name = ZINC19531687
REMARK  10 active torsions:
REMARK  status: ('A' for Active; 'I' for Inactive)
REMARK    1  A    between atoms: C_1  and  C_2
REMARK    2  A    between atoms: C_2  and  O_3
REMARK    3  A    between atoms: O_3  and  C_4
REMARK    4  A    between atoms: C_5  and  C_13
REMARK    5  A    between atoms: C_8  and  O_10
REMARK    6  A    between atoms: O_10  and  C_11
REMARK    7  A    between atoms: C_11  and  C_12
REMARK    8  A    between atoms: C_13  and  O_34
REMARK    9  A    between atoms: N_21  and  C_23
REMARK   10  A    between atoms: C_23  and  C_24
REMARK                            x       y       z     vdW  Elec       q    Type
REMARK                         _______ _______ _______ _____ _____    ______ ____
ROOT
ATOM      1  C   UNL     1      -2.998   2.059   1.844  0.00  0.00    +0.099 C 
ATOM      2  C   UNL     1      -2.222   1.502   3.077  0.00  0.00    +0.040 C 
ATOM      3  C   UNL     1      -0.934   0.827   2.500  0.00  0.00    +0.005 C 
ATOM      4  C   UNL     1      -0.760   1.592   1.210  0.00  0.00    -0.023 C 
ATOM      5  C   UNL     1      -2.242   1.523   0.661  0.00  0.00    +0.010 C 
ATOM      6  C   UNL     1      -2.037   2.239  -0.652  0.00  0.00    -0.072 C 
ATOM      7  N   UNL     1      -0.779   1.603  -1.168  0.00  0.00    +0.384 N 
ATOM      8  C   UNL     1      -0.013   1.086   0.008  0.00  0.00    -0.075 C 
ATOM      9  H   UNL     1      -1.013   0.786  -1.867  0.00  0.00    -0.081 HD
ENDROOT
BRANCH   1  11
ATOM     10  C   UNL     1      -4.683   0.182   1.887  0.00  0.00    +0.227 A 
ATOM     11  C   UNL     1      -4.416   1.550   1.839  0.00  0.00    +0.064 A 
ATOM     12  C   UNL     1      -5.482   2.427   1.781  0.00  0.00    +0.128 A 
ATOM     13  N   UNL     1      -6.716   1.946   1.778  0.00  0.00    -0.203 NA
ATOM     14  C   UNL     1      -6.938   0.643   1.830  0.00  0.00    +0.321 A 
ATOM     15  N   UNL     1      -5.945  -0.229   1.886  0.00  0.00    -0.159 NA
BRANCH  10  16
ATOM     16  O   UNL     1      -3.668  -0.715   1.940  0.00  0.00    -0.476 OA
BRANCH  16  18
ATOM     17  C   UNL     1      -2.757  -2.951   2.041  0.00  0.00    +0.048 C 
ATOM     18  C   UNL     1      -4.026  -2.097   1.987  0.00  0.00    +0.227 C 
ENDBRANCH  16  18
ENDBRANCH  10  16
BRANCH  14  19
ATOM     19  O   UNL     1      -8.215   0.190   1.825  0.00  0.00    -0.463 OA
BRANCH  19  20
ATOM     20  C   UNL     1      -9.251   1.172   1.763  0.00  0.00    +0.229 C 
ATOM     21  C   UNL     1     -10.614   0.476   1.767  0.00  0.00    +0.048 C 
ENDBRANCH  19  20
ENDBRANCH  14  19
ENDBRANCH   1  11
BRANCH   1  22
ATOM     22  O   UNL     1      -2.978   3.488   1.844  0.00  0.00    -0.384 OA
ATOM     23  H   UNL     1      -2.018   4.025   1.847  0.00  0.00    +0.211 HD
ENDBRANCH   1  22
BRANCH   7  24
ATOM     24  C   UNL     1       0.021   2.566  -1.936  0.00  0.00    -0.021 C 
BRANCH  24  25
ATOM     25  C   UNL     1       1.144   1.843  -2.634  0.00  0.00    +0.044 A 
ATOM     26  C   UNL     1       0.979   1.421  -3.956  0.00  0.00    +0.132 A 
ATOM     27  N   UNL     1       1.945   0.794  -4.586  0.00  0.00    -0.252 NA
ATOM     28  C   UNL     1       3.097   0.545  -3.953  0.00  0.00    +0.089 A 
ATOM     29  C   UNL     1       4.148  -0.130  -4.597  0.00  0.00    +0.030 A 
ATOM     30  C   UNL     1       5.308  -0.368  -3.926  0.00  0.00    +0.002 A 
ATOM     31  C   UNL     1       5.471   0.047  -2.605  0.00  0.00    +0.002 A 
ATOM     32  C   UNL     1       4.475   0.703  -1.950  0.00  0.00    +0.030 A 
ATOM     33  C   UNL     1       3.263   0.968  -2.610  0.00  0.00    +0.089 A 
ATOM     34  N   UNL     1       2.265   1.610  -1.992  0.00  0.00    -0.250 NA
ENDBRANCH  24  25
ENDBRANCH   7  24
TORSDOF 8
