REMARK  Name = ZINC09124137
REMARK  8 active torsions:
REMARK  status: ('A' for Active; 'I' for Inactive)
REMARK    1  A    between atoms: C_1  and  O_2
REMARK    2  A    between atoms: O_2  and  C_3
REMARK    3  A    between atoms: C_6  and  C_9
REMARK    4  A    between atoms: C_9  and  C_10
REMARK    5  A    between atoms: C_10  and  N_11
REMARK    6  A    between atoms: C_12  and  C_30
REMARK    7  A    between atoms: C_15  and  C_22
REMARK    8  A    between atoms: C_27  and  O_28
REMARK                            x       y       z     vdW  Elec       q    Type
REMARK                         _______ _______ _______ _____ _____    ______ ____
ROOT
ATOM      1  N   UNL     1       2.249  -3.470   6.551  0.00  0.00    -0.285 N 
ATOM      2  C   UNL     1       2.389  -4.920   6.724  0.00  0.00    +0.141 C 
ATOM      3  C   UNL     1       3.146  -5.122   8.009  0.00  0.00    +0.035 A 
ATOM      4  C   UNL     1       3.688  -5.996   8.896  0.00  0.00    +0.075 A 
ATOM      5  N   UNL     1       4.250  -5.247   9.890  0.00  0.00    -0.276 N 
ATOM      6  H   UNL     1       4.713  -5.605  10.664  0.00  0.00    +0.189 HD
ATOM      7  N   UNL     1       4.075  -3.996   9.649  0.00  0.00    -0.168 NA
ATOM      8  C   UNL     1       3.411  -3.832   8.522  0.00  0.00    +0.153 A 
ATOM      9  C   UNL     1       2.843  -2.847   7.584  0.00  0.00    +0.268 C 
ATOM     10  O   UNL     1       2.900  -1.641   7.726  0.00  0.00    -0.268 OA
ENDROOT
BRANCH   4  11
ATOM     11  C   UNL     1       3.674  -7.472   8.804  0.00  0.00    +0.044 A 
ATOM     12  C   UNL     1       2.977  -8.226   9.748  0.00  0.00    +0.052 A 
ATOM     13  C   UNL     1       2.966  -9.605   9.656  0.00  0.00    +0.124 A 
ATOM     14  C   UNL     1       3.647 -10.241   8.630  0.00  0.00    +0.042 A 
ATOM     15  C   UNL     1       4.340  -9.502   7.690  0.00  0.00    +0.049 A 
ATOM     16  C   UNL     1       4.354  -8.118   7.766  0.00  0.00    +0.126 A 
ATOM     17  F   UNL     1       2.292 -10.335  10.571  0.00  0.00    -0.205 F 
BRANCH  16  18
ATOM     18  O   UNL     1       5.032  -7.392   6.839  0.00  0.00    -0.506 OA
ATOM     19  H   UNL     1       5.954  -7.220   7.071  0.00  0.00    +0.292 HD
ENDBRANCH  16  18
ENDBRANCH   4  11
BRANCH   2  20
ATOM     20  C   UNL     1       1.030  -5.564   6.816  0.00  0.00    -0.022 A 
ATOM     21  C   UNL     1       0.018  -4.943   7.523  0.00  0.00    +0.006 A 
ATOM     22  C   UNL     1      -1.230  -5.533   7.608  0.00  0.00    +0.000 A 
ATOM     23  C   UNL     1      -1.464  -6.745   6.985  0.00  0.00    +0.000 A 
ATOM     24  C   UNL     1      -0.452  -7.366   6.277  0.00  0.00    +0.000 A 
ATOM     25  C   UNL     1       0.794  -6.773   6.189  0.00  0.00    +0.006 A 
ENDBRANCH   2  20
BRANCH   1  26
ATOM     26  C   UNL     1       1.577  -2.808   5.431  0.00  0.00    +0.114 C 
BRANCH  26  27
ATOM     27  C   UNL     1       2.587  -2.550   4.310  0.00  0.00    +0.054 C 
BRANCH  27  31
ATOM     28  C   UNL     1       0.626  -0.618   1.042  0.00  0.00    +0.120 A 
ATOM     29  C   UNL     1       1.202   0.138   2.051  0.00  0.00    +0.046 A 
ATOM     30  C   UNL     1       1.835  -0.488   3.107  0.00  0.00    +0.007 A 
ATOM     31  C   UNL     1       1.895  -1.869   3.158  0.00  0.00    -0.046 A 
ATOM     32  C   UNL     1       1.322  -2.625   2.152  0.00  0.00    +0.007 A 
ATOM     33  C   UNL     1       0.682  -2.003   1.098  0.00  0.00    +0.046 A 
BRANCH  28  35
ATOM     34  C   UNL     1      -0.017   1.425   0.010  0.00  0.00    +0.277 C 
ATOM     35  O   UNL     1       0.002  -0.004   0.002  0.00  0.00    -0.495 OA
ENDBRANCH  28  35
ENDBRANCH  27  31
ENDBRANCH  26  27
ENDBRANCH   1  26
TORSDOF 7
