REMARK  Name = ZINC00706394
REMARK  8 active torsions:
REMARK  status: ('A' for Active; 'I' for Inactive)
REMARK    1  A    between atoms: C_1  and  C_2
REMARK    2  A    between atoms: C_3  and  C_20
REMARK    3  A    between atoms: C_4  and  C_10
REMARK    4  A    between atoms: C_12  and  O_18
REMARK    5  A    between atoms: C_13  and  O_17
REMARK    6  A    between atoms: O_18  and  C_19
REMARK    7  A    between atoms: C_20  and  O_22
REMARK    8  A    between atoms: O_22  and  C_23
REMARK                            x       y       z     vdW  Elec       q    Type
REMARK                         _______ _______ _______ _____ _____    ______ ____
ROOT
ATOM      1  C   UNL     1       2.826  -1.000  -2.426  0.00  0.00    +0.061 C 
ATOM      2  C   UNL     1       2.582  -0.582  -0.999  0.00  0.00    +0.021 C 
ATOM      3  C   UNL     1       2.459   0.729  -0.702  0.00  0.00    +0.078 C 
ATOM      4  C   UNL     1       2.214   1.105   0.746  0.00  0.00    +0.144 C 
ATOM      5  N   UNL     1       2.128   0.001   1.716  0.00  0.00    -0.288 N 
ATOM      6  C   UNL     1       2.272  -1.262   1.266  0.00  0.00    +0.304 C 
ATOM      7  O   UNL     1       2.203  -2.180   2.059  0.00  0.00    -0.252 OA
ATOM      8  N   UNL     1       2.488  -1.537  -0.027  0.00  0.00    -0.273 N 
ATOM      9  H   UNL     1       1.972   0.177   2.657  0.00  0.00    +0.151 HD
ATOM     10  H   UNL     1       2.582  -2.466  -0.287  0.00  0.00    +0.156 HD
ENDROOT
BRANCH   4  11
ATOM     11  C   UNL     1       0.924   1.882   0.811  0.00  0.00    -0.018 A 
ATOM     12  C   UNL     1      -0.286   1.215   0.770  0.00  0.00    +0.055 A 
ATOM     13  C   UNL     1      -1.473   1.927   0.831  0.00  0.00    +0.163 A 
ATOM     14  C   UNL     1      -1.444   3.315   0.933  0.00  0.00    +0.173 A 
ATOM     15  C   UNL     1      -0.227   3.978   0.979  0.00  0.00    +0.063 A 
ATOM     16  C   UNL     1       0.954   3.260   0.913  0.00  0.00    +0.025 A 
ATOM     17 BR   UNL     1      -0.182   5.862   1.125  0.00  0.00    -0.046 Br
BRANCH  14  18
ATOM     18  O   UNL     1      -2.606   4.019   0.993  0.00  0.00    -0.503 OA
ATOM     19  H   UNL     1      -2.936   4.157   1.891  0.00  0.00    +0.292 HD
ENDBRANCH  14  18
BRANCH  13  20
ATOM     20  O   UNL     1      -2.664   1.272   0.791  0.00  0.00    -0.491 OA
ATOM     21  C   UNL     1      -2.619  -0.156   0.802  0.00  0.00    +0.277 C 
ENDBRANCH  13  20
ENDBRANCH   4  11
BRANCH   3  22
ATOM     22  C   UNL     1       2.558   1.719  -1.708  0.00  0.00    +0.339 C 
ATOM     23  O   UNL     1       2.807   1.399  -2.854  0.00  0.00    -0.245 OA
BRANCH  22  24
ATOM     24  O   UNL     1       2.374   3.019  -1.395  0.00  0.00    -0.458 OA
BRANCH  24  25
ATOM     25  C   UNL     1       2.507   3.966  -2.457  0.00  0.00    +0.177 C 
ATOM     26  C   UNL     1       3.954   4.460  -2.521  0.00  0.00    +0.044 C 
ATOM     27  C   UNL     1       4.198   5.148  -3.866  0.00  0.00    +0.004 C 
ATOM     28  C   UNL     1       3.579   4.312  -4.987  0.00  0.00    +0.000 C 
ATOM     29  C   UNL     1       2.407   5.076  -5.606  0.00  0.00    +0.000 C 
ATOM     30  C   UNL     1       1.200   5.004  -4.668  0.00  0.00    +0.000 C 
ATOM     31  C   UNL     1       1.411   5.959  -3.492  0.00  0.00    +0.004 C 
ATOM     32  C   UNL     1       1.574   5.152  -2.202  0.00  0.00    +0.044 C 
ENDBRANCH  24  25
ENDBRANCH  22  24
ENDBRANCH   3  22
TORSDOF 6
