REMARK  Name = ZINC64197247
REMARK  6 active torsions:
REMARK  status: ('A' for Active; 'I' for Inactive)
REMARK    1  A    between atoms: C_1  and  C_2
REMARK    2  A    between atoms: C_2  and  N_3
REMARK    3  A    between atoms: C_10  and  O_25
REMARK    4  A    between atoms: C_12  and  C_15
REMARK    5  A    between atoms: C_15  and  N_17
REMARK    6  A    between atoms: C_21  and  C_24
REMARK                            x       y       z     vdW  Elec       q    Type
REMARK                         _______ _______ _______ _____ _____    ______ ____
ROOT
ATOM      1  N   UNL     1      -1.372  -0.511   0.012  0.00  0.00    -0.267 N 
ATOM      2  C   UNL     1      -2.019  -0.754   1.227  0.00  0.00    +0.042 A 
ATOM      3  C   UNL     1      -1.275  -0.875   2.394  0.00  0.00    +0.024 A 
ATOM      4  C   UNL     1      -1.911  -1.120   3.595  0.00  0.00    +0.002 A 
ATOM      5  C   UNL     1      -3.288  -1.244   3.634  0.00  0.00    +0.000 A 
ATOM      6  C   UNL     1      -4.030  -1.123   2.475  0.00  0.00    +0.008 A 
ATOM      7  C   UNL     1      -3.401  -0.876   1.268  0.00  0.00    +0.007 A 
ATOM      8  C   UNL     1      -4.223  -0.736   0.017  0.00  0.00    +0.187 C 
ATOM      9  C   UNL     1      -3.372  -0.865  -1.211  0.00  0.00    +0.111 C 
ATOM     10  C   UNL     1      -2.028  -0.742  -1.170  0.00  0.00    +0.255 C 
ATOM     11  O   UNL     1      -1.317  -0.854  -2.313  0.00  0.00    -0.270 OA
ENDROOT
BRANCH   1  13
ATOM     12  C   UNL     1      -0.019   1.526   0.010  0.00  0.00    +0.025 C 
ATOM     13  C   UNL     1       0.002  -0.004   0.002  0.00  0.00    +0.110 C 
ENDBRANCH   1  13
BRANCH   9  14
ATOM     14  C   UNL     1      -3.998  -1.120  -2.453  0.00  0.00    +0.273 C 
ATOM     15  O   UNL     1      -3.323  -1.229  -3.466  0.00  0.00    -0.268 OA
BRANCH  14  16
ATOM     16  N   UNL     1      -5.333  -1.242  -2.519  0.00  0.00    -0.152 NA
ATOM     17  C   UNL     1      -5.921  -1.482  -3.686  0.00  0.00    +0.163 A 
ATOM     18  N   UNL     1      -5.342  -1.639  -4.910  0.00  0.00    -0.339 N 
ATOM     19  H   UNL     1      -4.379  -1.580  -5.012  0.00  0.00    +0.167 HD
ATOM     20  C   UNL     1      -6.141  -1.881  -5.985  0.00  0.00    +0.021 A 
ATOM     21  C   UNL     1      -7.458  -1.949  -5.768  0.00  0.00    +0.069 A 
ATOM     22  S   UNL     1      -7.560  -1.672  -4.010  0.00  0.00    -0.060 S 
ATOM     23  C   UNL     1      -5.564  -2.063  -7.365  0.00  0.00    +0.064 C 
ENDBRANCH  14  16
ENDBRANCH   9  14
BRANCH   8  24
ATOM     24  O   UNL     1      -4.856   0.546   0.014  0.00  0.00    -0.382 OA
ATOM     25  H   UNL     1      -5.406   0.711  -0.764  0.00  0.00    +0.211 HD
ENDBRANCH   8  24
TORSDOF 4
