REMARK  Name = ZINC39732854
REMARK  8 active torsions:
REMARK  status: ('A' for Active; 'I' for Inactive)
REMARK    1  A    between atoms: C_1  and  C_2
REMARK    2  A    between atoms: C_4  and  C_10
REMARK    3  A    between atoms: C_5  and  C_9
REMARK    4  A    between atoms: N_7  and  C_8
REMARK    5  A    between atoms: C_10  and  C_11
REMARK    6  A    between atoms: C_11  and  C_12
REMARK    7  A    between atoms: N_14  and  N_15
REMARK    8  A    between atoms: C_16  and  C_22
REMARK                            x       y       z     vdW  Elec       q    Type
REMARK                         _______ _______ _______ _____ _____    ______ ____
ROOT
ATOM      1  C   UNL     1      -3.795   0.691  -2.570  0.00  0.00    +0.230 C 
ATOM      2  O   UNL     1      -3.856  -0.286  -3.287  0.00  0.00    -0.274 OA
ATOM      3  N   UNL     1      -4.677   1.698  -2.727  0.00  0.00    -0.230 N 
ATOM      4  H   UNL     1      -4.628   2.479  -2.154  0.00  0.00    +0.173 HD
ENDROOT
BRANCH   3   5
ATOM      5  N   UNL     1      -5.664   1.617  -3.717  0.00  0.00    -0.201 N 
ATOM      6  C   UNL     1      -5.697   2.306  -5.021  0.00  0.00    +0.237 C 
ATOM      7  N   UNL     1      -6.957   1.841  -5.623  0.00  0.00    -0.290 N 
ATOM      8  N   UNL     1      -7.495   1.068  -4.826  0.00  0.00    -0.121 NA
ATOM      9  C   UNL     1      -6.800   0.884  -3.697  0.00  0.00    +0.193 C 
ATOM     10  S   UNL     1      -7.282  -0.134  -2.408  0.00  0.00    -0.014 S 
ATOM     11  H   UNL     1      -7.303   2.097  -6.492  0.00  0.00    +0.182 HD
BRANCH   6  12
ATOM     12  C   UNL     1      -5.716   3.801  -4.830  0.00  0.00    +0.031 A 
ATOM     13  C   UNL     1      -6.919   4.481  -4.817  0.00  0.00    +0.010 A 
ATOM     14  C   UNL     1      -6.937   5.852  -4.643  0.00  0.00    +0.001 A 
ATOM     15  C   UNL     1      -5.751   6.545  -4.481  0.00  0.00    +0.003 A 
ATOM     16  C   UNL     1      -4.547   5.867  -4.493  0.00  0.00    +0.039 A 
ATOM     17  C   UNL     1      -4.529   4.493  -4.663  0.00  0.00    +0.130 A 
ATOM     18  F   UNL     1      -3.352   3.828  -4.670  0.00  0.00    -0.205 F 
ENDBRANCH   6  12
ENDBRANCH   3   5
BRANCH   1  19
ATOM     19  C   UNL     1      -2.732   0.778  -1.505  0.00  0.00    +0.102 C 
BRANCH  19  20
ATOM     20  C   UNL     1      -1.870  -0.485  -1.540  0.00  0.00    +0.043 C 
BRANCH  20  23
ATOM     21  C   UNL     1       0.385   1.805  -0.488  0.00  0.00    +0.030 C 
ATOM     22  C   UNL     1       0.537   0.287  -0.614  0.00  0.00    +0.098 C 
ATOM     23  C   UNL     1      -0.808  -0.398  -0.474  0.00  0.00    -0.035 C 
ATOM     24  C   UNL     1      -0.887  -0.900   0.732  0.00  0.00    -0.002 C 
ATOM     25  N   UNL     1       0.267  -0.636   1.475  0.00  0.00    -0.354 NA
ATOM     26  N   UNL     1       1.321  -0.257   0.523  0.00  0.00    -0.242 NA
ATOM     27  C   UNL     1       2.204   0.769   1.093  0.00  0.00    +0.126 C 
ATOM     28  C   UNL     1      -2.075  -1.666   1.254  0.00  0.00    +0.060 C 
ATOM     29  H   UNL     1       0.096   0.122   2.118  0.00  0.00    +0.141 HD
ATOM     30  H   UNL     1       0.545  -1.463   1.982  0.00  0.00    +0.141 HD
ENDBRANCH  20  23
ENDBRANCH  19  20
ENDBRANCH   1  19
TORSDOF 5
