REMARK  Name = ZINC66831827
REMARK  11 active torsions:
REMARK  status: ('A' for Active; 'I' for Inactive)
REMARK    1  A    between atoms: C_1  and  C_2
REMARK    2  A    between atoms: C_2  and  O_3
REMARK    3  A    between atoms: O_3  and  C_4
REMARK    4  A    between atoms: C_4  and  C_6
REMARK    5  A    between atoms: C_13  and  C_15
REMARK    6  A    between atoms: C_15  and  N_16
REMARK    7  A    between atoms: N_16  and  C_17
REMARK    8  A    between atoms: N_16  and  C_18
REMARK    9  A    between atoms: C_18  and  C_19
REMARK   10  A    between atoms: N_24  and  C_25
REMARK   11  A    between atoms: C_26  and  C_28
REMARK                            x       y       z     vdW  Elec       q    Type
REMARK                         _______ _______ _______ _____ _____    ______ ____
ROOT
ATOM      1  C   UNL     1       3.940  -6.760  -5.229  0.00  0.00    +0.019 C 
ENDROOT
BRANCH   1   8
ATOM      2  C   UNL     1       3.812  -3.417  -1.844  0.00  0.00    +0.115 C 
ATOM      3  C   UNL     1       5.334  -3.275  -1.908  0.00  0.00    +0.018 C 
ATOM      4  C   UNL     1       5.846  -3.843  -3.233  0.00  0.00    +0.020 C 
ATOM      5  C   UNL     1       5.496  -5.332  -3.314  0.00  0.00    +0.108 C 
ATOM      6  N   UNL     1       4.050  -5.490  -3.109  0.00  0.00    -0.302 N 
ATOM      7  C   UNL     1       3.438  -4.901  -1.910  0.00  0.00    +0.122 C 
ATOM      8  C   UNL     1       3.298  -6.162  -4.004  0.00  0.00    +0.199 C 
ATOM      9  O   UNL     1       2.106  -6.285  -3.822  0.00  0.00    -0.278 OA
BRANCH   2  10
ATOM     10  C   UNL     1       3.305  -2.828  -0.553  0.00  0.00    +0.312 C 
ATOM     11  O   UNL     1       2.705  -3.522   0.234  0.00  0.00    -0.250 OA
BRANCH  10  12
ATOM     12  O   UNL     1       3.520  -1.532  -0.277  0.00  0.00    -0.465 OA
BRANCH  12  14
ATOM     13  C   UNL     1       3.350   0.445   1.103  0.00  0.00    +0.048 C 
ATOM     14  C   UNL     1       3.011  -1.041   0.965  0.00  0.00    +0.229 C 
ENDBRANCH  12  14
ENDBRANCH  10  12
ENDBRANCH   2  10
ENDBRANCH   1   8
BRANCH   1  15
ATOM     15  N   UNL     1       2.917  -7.434  -6.038  0.00  0.00    +0.387 N 
ATOM     16  C   UNL     1       1.961  -6.441  -6.546  0.00  0.00    -0.095 C 
ATOM     17  H   UNL     1       2.429  -8.110  -5.469  0.00  0.00    -0.081 HD
BRANCH  15  18
ATOM     18  C   UNL     1       3.558  -8.119  -7.169  0.00  0.00    -0.022 C 
BRANCH  18  19
ATOM     19  C   UNL     1       2.526  -8.911  -7.929  0.00  0.00    +0.034 A 
ATOM     20  C   UNL     1       1.908  -8.402  -9.023  0.00  0.00    +0.070 A 
ATOM     21  S   UNL     1       0.837  -9.762  -9.462  0.00  0.00    -0.060 S 
ATOM     22  C   UNL     1       1.280 -10.816  -8.227  0.00  0.00    +0.167 A 
ATOM     23  N   UNL     1       2.186 -10.132  -7.561  0.00  0.00    -0.231 NA
ATOM     24  N   UNL     1       0.808 -12.098  -7.974  0.00  0.00    -0.254 N 
ATOM     25  C   UNL     1       1.327 -12.859  -6.835  0.00  0.00    +0.140 C 
ATOM     26  C   UNL     1      -0.128 -12.642  -8.777  0.00  0.00    +0.218 C 
ATOM     27  O   UNL     1      -0.489 -12.052  -9.774  0.00  0.00    -0.276 OA
ATOM     28  C   UNL     1      -0.727 -13.982  -8.437  0.00  0.00    +0.110 C 
ENDBRANCH  18  19
ENDBRANCH  15  18
ENDBRANCH   1  15
TORSDOF 7
