REMARK  Name = ZINC16960672
REMARK  8 active torsions:
REMARK  status: ('A' for Active; 'I' for Inactive)
REMARK    1  A    between atoms: C_1  and  O_2
REMARK    2  A    between atoms: O_2  and  C_3
REMARK    3  A    between atoms: C_7  and  N_9
REMARK    4  A    between atoms: C_10  and  C_23
REMARK    5  A    between atoms: C_13  and  S_14
REMARK    6  A    between atoms: S_14  and  C_15
REMARK    7  A    between atoms: C_15  and  C_16
REMARK    8  A    between atoms: C_23  and  C_24
REMARK                            x       y       z     vdW  Elec       q    Type
REMARK                         _______ _______ _______ _____ _____    ______ ____
ROOT
ATOM      1  N   UNL     1       1.245  -5.499  -2.405  0.00  0.00    -0.274 N 
ATOM      2  C   UNL     1       1.272  -6.684  -1.719  0.00  0.00    +0.144 A 
ATOM      3  N   UNL     1       1.280  -6.397  -0.448  0.00  0.00    -0.133 NA
ATOM      4  N   UNL     1       1.264  -5.122  -0.283  0.00  0.00    -0.122 NA
ATOM      5  C   UNL     1       1.246  -4.520  -1.449  0.00  0.00    +0.196 A 
ENDROOT
BRANCH   1  10
ATOM      6  C   UNL     1       0.098  -4.578  -5.782  0.00  0.00    +0.122 A 
ATOM      7  C   UNL     1       1.184  -4.984  -6.545  0.00  0.00    +0.046 A 
ATOM      8  C   UNL     1       2.284  -5.557  -5.936  0.00  0.00    +0.006 A 
ATOM      9  C   UNL     1       2.305  -5.729  -4.565  0.00  0.00    +0.026 A 
ATOM     10  C   UNL     1       1.222  -5.324  -3.796  0.00  0.00    +0.054 A 
ATOM     11  C   UNL     1       0.115  -4.753  -4.407  0.00  0.00    +0.072 A 
BRANCH   6  13
ATOM     12  C   UNL     1      -0.933  -3.870  -7.803  0.00  0.00    +0.277 C 
ATOM     13  O   UNL     1      -0.983  -4.015  -6.382  0.00  0.00    -0.495 OA
ENDBRANCH   6  13
ENDBRANCH   1  10
BRANCH   5  14
ATOM     14  S   UNL     1       1.220  -2.781  -1.730  0.00  0.00    -0.081 S 
BRANCH  14  15
ATOM     15  C   UNL     1       1.228  -2.186  -0.020  0.00  0.00    +0.112 C 
BRANCH  15  16
ATOM     16  C   UNL     1       1.208  -0.679  -0.013  0.00  0.00    -0.037 A 
ATOM     17  C   UNL     1       0.002  -0.004   0.002  0.00  0.00    +0.005 A 
ATOM     18  C   UNL     1      -0.017   1.378   0.010  0.00  0.00    +0.015 A 
ATOM     19  C   UNL     1       1.172   2.086   0.002  0.00  0.00    +0.018 A 
ATOM     20  C   UNL     1       2.379   1.410  -0.013  0.00  0.00    +0.015 A 
ATOM     21  C   UNL     1       2.396   0.028  -0.020  0.00  0.00    +0.005 A 
ATOM     22 BR   UNL     1       1.147   3.976   0.013  0.00  0.00    -0.050 Br
ENDBRANCH  15  16
ENDBRANCH  14  15
ENDBRANCH   5  14
BRANCH   2  23
ATOM     23  C   UNL     1       1.286  -8.065  -2.323  0.00  0.00    +0.130 C 
BRANCH  23  24
ATOM     24  C   UNL     1      -0.130  -8.545  -2.512  0.00  0.00    +0.033 A 
ATOM     25  C   UNL     1      -0.748  -8.383  -3.701  0.00  0.00    +0.091 A 
ATOM     26  C   UNL     1      -2.078  -8.842  -3.854  0.00  0.00    +0.254 A 
ATOM     27  O   UNL     1      -2.656  -8.707  -4.918  0.00  0.00    -0.268 OA
ATOM     28  N   UNL     1      -2.699  -9.430  -2.812  0.00  0.00    -0.275 N 
ATOM     29  H   UNL     1      -3.639  -9.757  -2.912  0.00  0.00    +0.173 HD
ATOM     30  C   UNL     1      -2.059  -9.579  -1.637  0.00  0.00    +0.327 A 
ATOM     31  O   UNL     1      -2.632 -10.111  -0.706  0.00  0.00    -0.247 OA
ATOM     32  N   UNL     1      -0.793  -9.152  -1.480  0.00  0.00    -0.311 N 
ATOM     33  H   UNL     1      -0.333  -9.280  -0.602  0.00  0.00    +0.170 HD
ENDBRANCH  23  24
ENDBRANCH   2  23
TORSDOF 7
