REMARK  Name = ZINC32913685
REMARK  8 active torsions:
REMARK  status: ('A' for Active; 'I' for Inactive)
REMARK    1  A    between atoms: C_1  and  C_2
REMARK    2  A    between atoms: C_2  and  C_3
REMARK    3  A    between atoms: C_3  and  S_4
REMARK    4  A    between atoms: S_4  and  N_7
REMARK    5  A    between atoms: C_11  and  C_14
REMARK    6  A    between atoms: N_19  and  S_22
REMARK    7  A    between atoms: S_22  and  C_25
REMARK    8  A    between atoms: C_28  and  C_30
REMARK                            x       y       z     vdW  Elec       q    Type
REMARK                         _______ _______ _______ _____ _____    ______ ____
ROOT
ATOM      1  C   UNL     1       1.250  -4.719  -5.604  0.00  0.00    +0.220 C 
ATOM      2  O   UNL     1       2.254  -4.429  -6.220  0.00  0.00    -0.275 OA
ATOM      3  N   UNL     1       1.121  -4.354  -4.314  0.00  0.00    -0.299 N 
ATOM      4  C   UNL     1       2.231  -3.699  -3.607  0.00  0.00    +0.125 C 
ATOM      5  C   UNL     1       2.551  -4.505  -2.342  0.00  0.00    +0.128 C 
ATOM      6  N   UNL     1       1.299  -4.755  -1.616  0.00  0.00    -0.173 NA
ATOM      7  C   UNL     1       0.191  -5.416  -2.320  0.00  0.00    +0.128 C 
ATOM      8  C   UNL     1      -0.131  -4.605  -3.587  0.00  0.00    +0.125 C 
ENDROOT
BRANCH   1  13
ATOM      9  N   UNL     1      -0.688  -7.729  -6.771  0.00  0.00    -0.180 NA
ATOM     10  C   UNL     1      -0.771  -7.507  -8.221  0.00  0.00    +0.109 C 
ATOM     11  C   UNL     1      -0.927  -6.005  -8.482  0.00  0.00    +0.018 C 
ATOM     12  C   UNL     1       0.213  -5.251  -7.794  0.00  0.00    +0.015 C 
ATOM     13  C   UNL     1       0.147  -5.488  -6.284  0.00  0.00    +0.091 C 
ATOM     14  C   UNL     1       0.315  -6.984  -5.998  0.00  0.00    +0.121 C 
BRANCH   9  15
ATOM     15  S   UNL     1      -1.706  -8.799  -6.022  0.00  0.00    +0.032 S 
ATOM     16  O   UNL     1      -1.798  -8.335  -4.682  0.00  0.00    -0.158 OA
ATOM     17  O   UNL     1      -2.858  -8.846  -6.853  0.00  0.00    -0.158 OA
BRANCH  15  18
ATOM     18  C   UNL     1      -0.833 -10.388  -6.074  0.00  0.00    +0.185 C 
BRANCH  18  20
ATOM     19  C   UNL     1      -0.953 -12.803  -5.447  0.00  0.00    +0.005 C 
ATOM     20  C   UNL     1      -1.690 -11.463  -5.403  0.00  0.00    +0.021 C 
ENDBRANCH  18  20
ENDBRANCH  15  18
ENDBRANCH   9  15
ENDBRANCH   1  13
BRANCH   6  21
ATOM     21  S   UNL     1       1.141  -4.308  -0.029  0.00  0.00    +0.067 S 
ATOM     22  O   UNL     1       2.455  -4.245   0.508  0.00  0.00    -0.152 OA
ATOM     23  O   UNL     1       0.130  -5.136   0.528  0.00  0.00    -0.152 OA
BRANCH  21  24
ATOM     24  C   UNL     1       0.511  -2.663  -0.012  0.00  0.00    +0.143 A 
ATOM     25  C   UNL     1      -0.778  -2.243   0.004  0.00  0.00    +0.036 A 
ATOM     26  C   UNL     1      -1.040  -0.885   0.021  0.00  0.00    +0.013 A 
ATOM     27  C   UNL     1      -0.002  -0.015   0.010  0.00  0.00    -0.011 A 
ATOM     28  S   UNL     1       1.403  -1.116  -0.012  0.00  0.00    -0.074 S 
ATOM     29  C   UNL     1      -0.026   1.492   0.021  0.00  0.00    +0.051 C 
ENDBRANCH  21  24
ENDBRANCH   6  21
TORSDOF 6
