REMARK  Name = ZINC17156896
REMARK  5 active torsions:
REMARK  status: ('A' for Active; 'I' for Inactive)
REMARK    1  A    between atoms: C_11  and  C_15
REMARK    2  A    between atoms: C_15  and  C_16
REMARK    3  A    between atoms: C_16  and  C_17
REMARK    4  A    between atoms: N_19  and  N_20
REMARK    5  A    between atoms: C_21  and  C_23
REMARK                            x       y       z     vdW  Elec       q    Type
REMARK                         _______ _______ _______ _____ _____    ______ ____
ROOT
ATOM      1  C   UNL     1      -2.439   9.223  -5.721  0.00  0.00    +0.229 C 
ATOM      2  O   UNL     1      -2.581   8.858  -6.869  0.00  0.00    -0.274 OA
ATOM      3  N   UNL     1      -2.552  10.530  -5.410  0.00  0.00    -0.234 N 
ATOM      4  H   UNL     1      -2.423  10.861  -4.369  0.00  0.00    +0.173 HD
ENDROOT
BRANCH   3   5
ATOM      5  N   UNL     1      -2.833  11.466  -6.413  0.00  0.00    -0.234 N 
ATOM      6  C   UNL     1      -2.946  12.773  -6.103  0.00  0.00    +0.235 C 
ATOM      7  O   UNL     1      -2.804  13.138  -4.955  0.00  0.00    -0.274 OA
ATOM      8  H   UNL     1      -2.962  11.135  -7.455  0.00  0.00    +0.173 HD
BRANCH   6   9
ATOM      9  C   UNL     1      -3.249  13.781  -7.182  0.00  0.00    +0.049 C 
ATOM     10  C   UNL     1      -2.142  13.746  -8.237  0.00  0.00    +0.019 C 
ATOM     11  C   UNL     1      -2.450  14.769  -9.333  0.00  0.00    -0.009 C 
ATOM     12  C   UNL     1      -2.524  16.168  -8.718  0.00  0.00    +0.007 C 
ATOM     13  C   UNL     1      -3.631  16.203  -7.662  0.00  0.00    -0.009 C 
ATOM     14  C   UNL     1      -3.323  15.180  -6.567  0.00  0.00    +0.019 C 
ATOM     15  C   UNL     1      -4.971  15.861  -8.317  0.00  0.00    +0.007 C 
ATOM     16  C   UNL     1      -4.897  14.462  -8.932  0.00  0.00    -0.009 C 
ATOM     17  C   UNL     1      -3.790  14.428  -9.988  0.00  0.00    +0.007 C 
ATOM     18  C   UNL     1      -4.589  13.439  -7.836  0.00  0.00    +0.019 C 
ENDBRANCH   6   9
ENDBRANCH   3   5
BRANCH   1  19
ATOM     19  C   UNL     1      -2.136   8.216  -4.642  0.00  0.00    +0.105 C 
BRANCH  19  20
ATOM     20  C   UNL     1      -2.062   6.816  -5.257  0.00  0.00    +0.083 C 
BRANCH  20  31
ATOM     21  C   UNL     1      -0.013   1.086   0.008  0.00  0.00    +0.005 C 
ATOM     22  C   UNL     1      -0.726   1.578   1.270  0.00  0.00    +0.005 C 
ATOM     23  C   UNL     1      -0.510   3.093   1.397  0.00  0.00    +0.043 C 
ATOM     24  C   UNL     1      -0.803   3.725   0.071  0.00  0.00    -0.004 A 
ATOM     25  C   UNL     1      -0.921   3.104  -1.126  0.00  0.00    -0.023 A 
ATOM     26  C   UNL     1      -1.213   3.947  -2.271  0.00  0.00    +0.075 A 
ATOM     27  C   UNL     1      -1.382   3.522  -3.632  0.00  0.00    +0.260 A 
ATOM     28  O   UNL     1      -1.288   2.352  -3.962  0.00  0.00    -0.267 OA
ATOM     29  N   UNL     1      -1.651   4.504  -4.524  0.00  0.00    -0.310 N 
ATOM     30  H   UNL     1      -1.795   4.257  -5.587  0.00  0.00    +0.170 HD
ATOM     31  C   UNL     1      -1.759   5.809  -4.178  0.00  0.00    +0.111 A 
ATOM     32  N   UNL     1      -1.610   6.237  -2.944  0.00  0.00    -0.227 NA
ATOM     33  C   UNL     1      -1.343   5.329  -2.010  0.00  0.00    +0.116 A 
ATOM     34  S   UNL     1      -1.074   5.446  -0.270  0.00  0.00    -0.073 S 
ATOM     35  C   UNL     1      -0.749   1.591  -1.233  0.00  0.00    +0.037 C 
ENDBRANCH  20  31
ENDBRANCH  19  20
ENDBRANCH   1  19
TORSDOF 5
