REMARK  Name = ZINC07274908
REMARK  10 active torsions:
REMARK  status: ('A' for Active; 'I' for Inactive)
REMARK    1  A    between atoms: C_1  and  C_2
REMARK    2  A    between atoms: C_2  and  N_3
REMARK    3  A    between atoms: C_7  and  S_25
REMARK    4  A    between atoms: C_11  and  C_12
REMARK    5  A    between atoms: C_12  and  N_60
REMARK    6  A    between atoms: C_13  and  N_60
REMARK    7  A    between atoms: C_14  and  N_60
REMARK    8  A    between atoms: S_25  and  N_28
REMARK    9  A    between atoms: N_28  and  C_29
REMARK   10  A    between atoms: N_28  and  C_30
REMARK                            x       y       z     vdW  Elec       q    Type
REMARK                         _______ _______ _______ _____ _____    ______ ____
ROOT
ATOM      1  N   UNL     1      -0.884  -1.099  -0.213  0.00  0.00    -0.329 N 
ATOM      2  C   UNL     1       0.075  -0.107  -0.206  0.00  0.00    +0.069 A 
ATOM      3  C   UNL     1       0.036   1.276  -0.320  0.00  0.00    +0.030 A 
ATOM      4  C   UNL     1       1.210   1.998  -0.273  0.00  0.00    +0.030 A 
ATOM      5  C   UNL     1       2.428   1.352  -0.113  0.00  0.00    +0.108 A 
ATOM      6  C   UNL     1       2.485  -0.008   0.001  0.00  0.00    +0.058 A 
ATOM      7  C   UNL     1       1.308  -0.761  -0.044  0.00  0.00    +0.091 A 
ATOM      8  N   UNL     1       1.044  -2.090   0.037  0.00  0.00    -0.234 NA
ATOM      9  C   UNL     1      -0.239  -2.287  -0.061  0.00  0.00    +0.094 A 
ENDROOT
BRANCH   5  10
ATOM     10  S   UNL     1       3.915   2.296  -0.056  0.00  0.00    +0.060 S 
ATOM     11  O   UNL     1       3.550   3.604   0.363  0.00  0.00    -0.153 OA
ATOM     12  O   UNL     1       4.868   1.509   0.646  0.00  0.00    -0.153 OA
BRANCH  10  13
ATOM     13  N   UNL     1       4.468   2.433  -1.611  0.00  0.00    -0.183 NA
ATOM     14  C   UNL     1       4.041   3.560  -2.443  0.00  0.00    +0.131 C 
ATOM     15  C   UNL     1       5.383   1.427  -2.154  0.00  0.00    +0.131 C 
ENDBRANCH  10  13
ENDBRANCH   5  10
BRANCH   1  17
ATOM     16  C   UNL     1      -2.706  -0.956  -1.839  0.00  0.00    +0.027 C 
ATOM     17  C   UNL     1      -2.330  -0.909  -0.356  0.00  0.00    +0.120 C 
ENDBRANCH   1  17
BRANCH   9  18
ATOM     18  C   UNL     1      -0.911  -3.635  -0.014  0.00  0.00    -0.003 C 
BRANCH  18  20
ATOM     19  C   UNL     1      -0.045  -4.285   2.152  0.00  0.00    -0.095 C 
ATOM     20  N   UNL     1      -1.264  -3.941   1.388  0.00  0.00    +0.387 N 
ATOM     21  H   UNL     1      -1.700  -3.113   1.811  0.00  0.00    -0.081 HD
BRANCH  20  22
ATOM     22  C   UNL     1      -2.222  -5.066   1.434  0.00  0.00    -0.037 C 
ATOM     23  C   UNL     1      -1.564  -6.345   0.921  0.00  0.00    -0.010 C 
ATOM     24  C   UNL     1      -2.513  -7.519   1.191  0.00  0.00    +0.003 C 
ATOM     25  C   UNL     1      -2.558  -7.764   2.698  0.00  0.00    +0.035 C 
ATOM     26  C   UNL     1      -2.847  -6.482   3.435  0.00  0.00    -0.046 A 
ATOM     27  C   UNL     1      -2.688  -5.243   2.856  0.00  0.00    -0.058 A 
ATOM     28  C   UNL     1      -2.964  -4.099   3.593  0.00  0.00    +0.002 A 
ATOM     29  C   UNL     1      -3.398  -4.194   4.899  0.00  0.00    +0.000 A 
ATOM     30  C   UNL     1      -3.562  -5.438   5.479  0.00  0.00    +0.000 A 
ATOM     31  C   UNL     1      -3.287  -6.576   4.748  0.00  0.00    +0.004 A 
ENDBRANCH  20  22
ENDBRANCH  18  20
ENDBRANCH   9  18
TORSDOF 6
