REMARK  Name = ZINC39605354
REMARK  8 active torsions:
REMARK  status: ('A' for Active; 'I' for Inactive)
REMARK    1  A    between atoms: C_3  and  O_27
REMARK    2  A    between atoms: C_6  and  C_7
REMARK    3  A    between atoms: C_11  and  C_20
REMARK    4  A    between atoms: N_22  and  C_23
REMARK    5  A    between atoms: C_23  and  C_24
REMARK    6  A    between atoms: C_24  and  C_25
REMARK    7  A    between atoms: C_25  and  O_26
REMARK    8  A    between atoms: O_27  and  C_28
REMARK                            x       y       z     vdW  Elec       q    Type
REMARK                         _______ _______ _______ _____ _____    ______ ____
ROOT
ATOM      1  C   UNL     1      -1.263  -0.761   0.011  0.00  0.00    +0.247 C 
ATOM      2  O   UNL     1      -2.320  -0.174   0.133  0.00  0.00    -0.270 OA
ATOM      3  N   UNL     1      -1.246  -2.104  -0.098  0.00  0.00    -0.296 N 
ATOM      4  C   UNL     1      -0.065  -2.998  -0.125  0.00  0.00    +0.121 C 
ATOM      5  C   UNL     1      -0.488  -4.229   0.708  0.00  0.00    +0.100 C 
ATOM      6  C   UNL     1      -2.025  -4.239   0.641  0.00  0.00    -0.004 C 
ATOM      7  C   UNL     1      -2.406  -3.021  -0.213  0.00  0.00    +0.115 C 
ATOM      8  C   UNL     1      -2.615  -4.100   2.041  0.00  0.00    -0.010 C 
ATOM      9  C   UNL     1      -4.143  -4.169   1.954  0.00  0.00    -0.082 C 
ATOM     10  N   UNL     1      -4.543  -5.449   1.357  0.00  0.00    +0.379 N 
ATOM     11  C   UNL     1      -4.048  -5.535  -0.022  0.00  0.00    -0.082 C 
ATOM     12  C   UNL     1      -2.517  -5.523  -0.019  0.00  0.00    -0.010 C 
ATOM     13  H   UNL     1      -4.156  -6.207   1.899  0.00  0.00    -0.086 HD
ATOM     14  H   UNL     1      -5.549  -5.519   1.357  0.00  0.00    -0.086 HD
ENDROOT
BRANCH   1  20
ATOM     15  C   UNL     1       0.080   1.256   0.586  0.00  0.00    +0.016 A 
ATOM     16  C   UNL     1       1.262   1.960   0.558  0.00  0.00    +0.047 A 
ATOM     17  C   UNL     1       2.380   1.421  -0.068  0.00  0.00    +0.130 A 
ATOM     18  C   UNL     1       2.308   0.169  -0.668  0.00  0.00    +0.047 A 
ATOM     19  C   UNL     1       1.129  -0.541  -0.645  0.00  0.00    +0.016 A 
ATOM     20  C   UNL     1       0.003  -0.002  -0.017  0.00  0.00    +0.037 A 
BRANCH  17  21
ATOM     21  O   UNL     1       3.544   2.118  -0.093  0.00  0.00    -0.406 OA
BRANCH  21  22
ATOM     22  C   UNL     1       4.653   1.505  -0.753  0.00  0.00    +0.575 C 
ATOM     23  F   UNL     1       4.327   1.270  -2.093  0.00  0.00    -0.133 F 
ATOM     24  F   UNL     1       5.763   2.354  -0.686  0.00  0.00    -0.133 F 
ATOM     25  F   UNL     1       4.956   0.291  -0.127  0.00  0.00    -0.133 F 
ENDBRANCH  21  22
ENDBRANCH  17  21
ENDBRANCH   1  20
BRANCH   5  26
ATOM     26  C   UNL     1       0.074  -5.490   0.104  0.00  0.00    +0.218 C 
ATOM     27  O   UNL     1       0.344  -5.529  -1.078  0.00  0.00    -0.275 OA
ATOM     28  N   UNL     1       0.276  -6.575   0.877  0.00  0.00    -0.315 N 
ATOM     29  H   UNL     1       0.060  -6.545   1.822  0.00  0.00    +0.149 HD
BRANCH  28  30
ATOM     30  C   UNL     1       0.822  -7.801   0.290  0.00  0.00    +0.106 C 
BRANCH  30  31
ATOM     31  C   UNL     1       0.952  -8.873   1.375  0.00  0.00    +0.046 C 
BRANCH  31  32
ATOM     32  C   UNL     1       1.522 -10.153   0.761  0.00  0.00    +0.157 C 
BRANCH  32  33
ATOM     33  O   UNL     1       1.643 -11.153   1.775  0.00  0.00    -0.395 OA
ATOM     34  H   UNL     1       2.000 -11.994   1.456  0.00  0.00    +0.209 HD
ENDBRANCH  32  33
ENDBRANCH  31  32
ENDBRANCH  30  31
ENDBRANCH  28  30
ENDBRANCH   5  26
TORSDOF 8
