REMARK  Name = ZINC16516544
REMARK  12 active torsions:
REMARK  status: ('A' for Active; 'I' for Inactive)
REMARK    1  A    between atoms: C_1  and  C_2
REMARK    2  A    between atoms: C_5  and  C_8
REMARK    3  A    between atoms: C_8  and  C_9
REMARK    4  A    between atoms: N_14  and  C_15
REMARK    5  A    between atoms: N_14  and  C_32
REMARK    6  A    between atoms: C_15  and  C_16
REMARK    7  A    between atoms: C_16  and  C_17
REMARK    8  A    between atoms: N_19  and  C_20
REMARK    9  A    between atoms: C_25  and  C_26
REMARK   10  A    between atoms: C_25  and  N_72
REMARK   11  A    between atoms: C_32  and  C_33
REMARK   12  A    between atoms: C_32  and  C_34
REMARK                            x       y       z     vdW  Elec       q    Type
REMARK                         _______ _______ _______ _____ _____    ______ ____
ROOT
ATOM      1  C   UNL     1      -5.057  -0.322  -2.173  0.00  0.00    +0.114 C 
ENDROOT
BRANCH   1   2
ATOM      2  C   UNL     1      -5.622  -1.659  -1.768  0.00  0.00    +0.215 C 
ATOM      3  O   UNL     1      -5.148  -2.680  -2.221  0.00  0.00    -0.276 OA
ATOM      4  N   UNL     1      -6.653  -1.721  -0.903  0.00  0.00    -0.313 N 
ATOM      5  H   UNL     1      -7.032  -0.905  -0.541  0.00  0.00    +0.149 HD
BRANCH   4   6
ATOM      6  C   UNL     1      -7.202  -3.022  -0.510  0.00  0.00    +0.069 C 
ATOM      7  C   UNL     1      -8.241  -3.472  -1.541  0.00  0.00    +0.003 C 
ATOM      8  C   UNL     1      -8.854  -4.800  -1.093  0.00  0.00    -0.077 C 
ATOM      9  C   UNL     1      -8.498  -4.245   1.238  0.00  0.00    -0.077 C 
ATOM     10  C   UNL     1      -7.874  -2.900   0.861  0.00  0.00    +0.003 C 
ATOM     11  N   UNL     1      -9.506  -4.610   0.220  0.00  0.00    +0.382 N 
ATOM     12  H   UNL     1     -10.192  -3.850   0.144  0.00  0.00    -0.081 HD
BRANCH  11  13
ATOM     13  C   UNL     1     -10.204  -5.848   0.622  0.00  0.00    -0.043 C 
BRANCH  13  14
ATOM     14  C   UNL     1     -11.364  -6.076  -0.312  0.00  0.00    -0.064 A 
ATOM     15  C   UNL     1     -12.602  -5.534  -0.021  0.00  0.00    +0.002 A 
ATOM     16  C   UNL     1     -13.665  -5.739  -0.881  0.00  0.00    +0.000 A 
ATOM     17  C   UNL     1     -13.494  -6.494  -2.026  0.00  0.00    +0.000 A 
ATOM     18  C   UNL     1     -12.257  -7.041  -2.314  0.00  0.00    +0.000 A 
ATOM     19  C   UNL     1     -11.192  -6.832  -1.457  0.00  0.00    +0.002 A 
ENDBRANCH  13  14
ENDBRANCH  11  13
ENDBRANCH   4   6
ENDBRANCH   1   2
BRANCH   1  20
ATOM     20  C   UNL     1      -3.903  -0.532  -3.156  0.00  0.00    +0.116 C 
BRANCH  20  26
ATOM     21  C   UNL     1      -0.742   1.585  -1.213  0.00  0.00    +0.145 A 
ATOM     22  N   UNL     1      -1.699   0.865  -1.748  0.00  0.00    -0.208 NA
ATOM     23  C   UNL     1      -2.325   1.334  -2.819  0.00  0.00    +0.181 A 
ATOM     24  S   UNL     1      -1.503   2.842  -3.066  0.00  0.00    +0.049 S 
ATOM     25  N   UNL     1      -0.417   2.738  -1.747  0.00  0.00    -0.192 NA
ATOM     26  N   UNL     1      -3.354   0.768  -3.549  0.00  0.00    -0.305 N 
BRANCH  26  27
ATOM     27  C   UNL     1      -3.897   1.470  -4.716  0.00  0.00    +0.069 C 
ATOM     28  C   UNL     1      -3.717   0.601  -5.962  0.00  0.00    +0.028 C 
ATOM     29  C   UNL     1      -5.385   1.748  -4.497  0.00  0.00    +0.028 C 
ENDBRANCH  26  27
BRANCH  21  30
ATOM     30  C   UNL     1      -0.013   1.086   0.008  0.00  0.00    +0.112 C 
BRANCH  30  35
ATOM     31  C   UNL     1      -2.718   2.950   4.762  0.00  0.00    +0.044 C 
ATOM     32  C   UNL     1      -2.012   2.463   3.523  0.00  0.00    -0.050 A 
ATOM     33  C   UNL     1      -2.366   1.254   2.955  0.00  0.00    +0.003 A 
ATOM     34  C   UNL     1      -1.719   0.808   1.818  0.00  0.00    +0.004 A 
ATOM     35  C   UNL     1      -0.718   1.572   1.248  0.00  0.00    -0.040 A 
ATOM     36  C   UNL     1      -0.360   2.779   1.819  0.00  0.00    +0.004 A 
ATOM     37  C   UNL     1      -1.010   3.227   2.953  0.00  0.00    +0.003 A 
ENDBRANCH  30  35
ENDBRANCH  21  30
ENDBRANCH  20  26
ENDBRANCH   1  20
TORSDOF 9
