REMARK  Name = ZINC63187698
REMARK  10 active torsions:
REMARK  status: ('A' for Active; 'I' for Inactive)
REMARK    1  A    between atoms: C_1  and  C_2
REMARK    2  A    between atoms: C_4  and  C_37
REMARK    3  A    between atoms: C_6  and  N_8
REMARK    4  A    between atoms: C_9  and  C_36
REMARK    5  A    between atoms: C_12  and  C_15
REMARK    6  A    between atoms: C_13  and  C_14
REMARK    7  A    between atoms: C_15  and  C_17
REMARK    8  A    between atoms: C_17  and  N_18
REMARK    9  A    between atoms: C_21  and  C_26
REMARK   10  A    between atoms: C_26  and  C_27
REMARK                            x       y       z     vdW  Elec       q    Type
REMARK                         _______ _______ _______ _____ _____    ______ ____
ROOT
ATOM      1  N   UNL     1      -0.043  -7.729   5.806  0.00  0.00    -0.217 N 
ATOM      2  C   UNL     1      -1.190  -8.423   5.941  0.00  0.00    +0.244 C 
ATOM      3  O   UNL     1      -2.318  -7.978   5.951  0.00  0.00    -0.273 OA
ATOM      4  C   UNL     1      -0.777  -9.876   6.075  0.00  0.00    +0.165 C 
ATOM      5  N   UNL     1       0.693  -9.827   5.993  0.00  0.00    -0.287 N 
ATOM      6  C   UNL     1       1.026  -8.534   5.832  0.00  0.00    +0.310 C 
ATOM      7  O   UNL     1       2.171  -8.140   5.725  0.00  0.00    -0.252 OA
ATOM      8  H   UNL     1       1.301 -10.581   6.043  0.00  0.00    +0.151 HD
ENDROOT
BRANCH   1   9
ATOM      9  C   UNL     1       0.026  -6.275   5.646  0.00  0.00    +0.197 C 
BRANCH   9  10
ATOM     10  C   UNL     1      -0.031  -5.928   4.181  0.00  0.00    +0.178 C 
ATOM     11  O   UNL     1      -0.120  -6.811   3.350  0.00  0.00    -0.291 OA
BRANCH  10  15
ATOM     12  N   UNL     1       0.044  -2.796   2.391  0.00  0.00    -0.300 N 
ATOM     13  C   UNL     1       0.143  -2.188   3.725  0.00  0.00    +0.080 C 
ATOM     14  C   UNL     1       0.129  -3.388   4.693  0.00  0.00    +0.062 C 
ATOM     15  C   UNL     1       0.019  -4.587   3.776  0.00  0.00    +0.015 C 
ATOM     16  C   UNL     1      -0.028  -4.144   2.502  0.00  0.00    +0.015 C 
ATOM     17  C   UNL     1      -0.144  -5.064   1.314  0.00  0.00    +0.061 C 
ATOM     18  C   UNL     1       1.450  -1.405   3.859  0.00  0.00    +0.029 C 
BRANCH  12  24
ATOM     19  C   UNL     1      -2.213   0.378  -0.607  0.00  0.00    +0.044 C 
ATOM     20  C   UNL     1      -1.062  -0.542  -0.293  0.00  0.00    -0.048 A 
ATOM     21  C   UNL     1      -0.027  -0.687  -1.199  0.00  0.00    +0.006 A 
ATOM     22  C   UNL     1       1.032  -1.531  -0.915  0.00  0.00    -0.048 A 
ATOM     23  C   UNL     1       1.058  -2.232   0.275  0.00  0.00    +0.026 A 
ATOM     24  C   UNL     1       0.020  -2.088   1.187  0.00  0.00    +0.034 A 
ATOM     25  C   UNL     1      -1.039  -1.236   0.901  0.00  0.00    +0.026 A 
ATOM     26  C   UNL     1       2.157  -1.685  -1.905  0.00  0.00    +0.044 C 
ENDBRANCH  12  24
ENDBRANCH  10  15
ENDBRANCH   9  10
ENDBRANCH   1   9
BRANCH   4  27
ATOM     27  C   UNL     1      -1.357 -10.708   4.929  0.00  0.00    +0.065 C 
BRANCH  27  28
ATOM     28  C   UNL     1      -1.035 -12.163   5.153  0.00  0.00    -0.039 C 
ATOM     29  C   UNL     1      -1.827 -13.090   5.739  0.00  0.00    -0.001 A 
ATOM     30  C   UNL     1      -3.172 -13.023   6.322  0.00  0.00    +0.010 A 
ATOM     31  C   UNL     1      -3.716 -14.145   6.847  0.00  0.00    +0.001 A 
ATOM     32  C   UNL     1      -3.028 -15.366   6.849  0.00  0.00    +0.002 A 
ATOM     33  C   UNL     1      -1.789 -15.506   6.332  0.00  0.00    +0.026 A 
ATOM     34  C   UNL     1      -1.122 -14.392   5.753  0.00  0.00    +0.043 A 
ATOM     35  N   UNL     1       0.060 -14.274   5.197  0.00  0.00    -0.380 N 
ATOM     36  C   UNL     1       0.236 -12.884   4.762  0.00  0.00    +0.144 C 
ATOM     37  H   UNL     1       0.708 -14.988   5.088  0.00  0.00    +0.160 HD
ENDBRANCH  27  28
ENDBRANCH   4  27
TORSDOF 6
