REMARK  Name = ZINC45443368
REMARK  13 active torsions:
REMARK  status: ('A' for Active; 'I' for Inactive)
REMARK    1  A    between atoms: C_1  and  C_2
REMARK    2  A    between atoms: C_2  and  C_3
REMARK    3  A    between atoms: C_3  and  C_33
REMARK    4  A    between atoms: N_6  and  N_10
REMARK    5  A    between atoms: C_11  and  C_13
REMARK    6  A    between atoms: C_13  and  S_14
REMARK    7  A    between atoms: S_14  and  C_15
REMARK    8  A    between atoms: C_18  and  C_27
REMARK    9  A    between atoms: N_19  and  C_20
REMARK   10  A    between atoms: C_27  and  C_29
REMARK   11  A    between atoms: C_27  and  N_30
REMARK   12  A    between atoms: N_30  and  C_31
REMARK   13  A    between atoms: N_30  and  C_32
REMARK                            x       y       z     vdW  Elec       q    Type
REMARK                         _______ _______ _______ _____ _____    ______ ____
ROOT
ATOM      1  C   UNL     1      -5.697  -7.621  -2.519  0.00  0.00    +0.197 A 
ATOM      2  N   UNL     1      -4.734  -8.323  -3.070  0.00  0.00    -0.122 NA
ATOM      3  N   UNL     1      -5.184  -9.470  -3.436  0.00  0.00    -0.135 NA
ATOM      4  C   UNL     1      -6.450  -9.570  -3.144  0.00  0.00    +0.125 A 
ATOM      5  N   UNL     1      -6.823  -8.397  -2.543  0.00  0.00    -0.275 N 
ENDROOT
BRANCH   5   6
ATOM      6  C   UNL     1      -8.096  -8.061  -2.057  0.00  0.00    +0.050 A 
ATOM      7  C   UNL     1      -8.636  -8.756  -0.984  0.00  0.00    +0.028 A 
ATOM      8  C   UNL     1      -9.888  -8.423  -0.507  0.00  0.00    +0.022 A 
ATOM      9  C   UNL     1     -10.605  -7.397  -1.099  0.00  0.00    +0.041 A 
ATOM     10  C   UNL     1     -10.068  -6.703  -2.168  0.00  0.00    +0.022 A 
ATOM     11  C   UNL     1      -8.814  -7.029  -2.645  0.00  0.00    +0.028 A 
ATOM     12 CL   UNL     1     -12.180  -6.981  -0.497  0.00  0.00    -0.084 Cl
ENDBRANCH   5   6
BRANCH   4  13
ATOM     13  C   UNL     1      -7.338 -10.758  -3.412  0.00  0.00    -0.003 C 
ATOM     14  C   UNL     1      -7.021 -11.868  -2.408  0.00  0.00    -0.005 C 
BRANCH  13  15
ATOM     15  N   UNL     1      -7.100 -11.249  -4.776  0.00  0.00    +0.382 N 
ATOM     16  C   UNL     1      -7.965 -12.407  -5.038  0.00  0.00    -0.096 C 
ATOM     17  C   UNL     1      -7.404 -10.183  -5.740  0.00  0.00    -0.096 C 
ATOM     18  H   UNL     1      -6.133 -11.523  -4.872  0.00  0.00    -0.082 HD
ENDBRANCH  13  15
ENDBRANCH   4  13
BRANCH   1  19
ATOM     19  S   UNL     1      -5.563  -5.990  -1.865  0.00  0.00    -0.076 S 
BRANCH  19  20
ATOM     20  C   UNL     1      -3.826  -5.546  -2.147  0.00  0.00    +0.174 C 
BRANCH  20  22
ATOM     21  N   UNL     1      -2.344  -3.611  -1.728  0.00  0.00    -0.223 N 
ATOM     22  C   UNL     1      -3.573  -4.155  -1.626  0.00  0.00    +0.240 C 
ATOM     23  O   UNL     1      -4.475  -3.525  -1.116  0.00  0.00    -0.273 OA
ATOM     24  H   UNL     1      -1.623  -4.115  -2.136  0.00  0.00    +0.174 HD
BRANCH  21  28
ATOM     25  C   UNL     1      -1.433  -0.534   0.013  0.00  0.00    +0.111 C 
ATOM     26  C   UNL     1      -1.445  -2.045  -0.103  0.00  0.00    +0.263 C 
ATOM     27  O   UNL     1      -0.960  -2.843   0.670  0.00  0.00    -0.271 OA
ATOM     28  N   UNL     1      -2.108  -2.317  -1.245  0.00  0.00    -0.137 N 
ATOM     29  C   UNL     1      -2.513  -1.200  -1.859  0.00  0.00    +0.326 C 
ATOM     30  O   UNL     1      -3.131  -1.190  -2.906  0.00  0.00    -0.251 OA
ATOM     31  N   UNL     1      -2.159  -0.088  -1.189  0.00  0.00    -0.284 N 
ATOM     32  C   UNL     1      -2.162  -0.082   1.280  0.00  0.00    +0.041 C 
ATOM     33  H   UNL     1      -2.346   0.828  -1.447  0.00  0.00    +0.151 HD
BRANCH  25  35
ATOM     34  C   UNL     1      -0.019   1.526   0.010  0.00  0.00    +0.006 C 
ATOM     35  C   UNL     1       0.002  -0.004   0.002  0.00  0.00    +0.032 C 
ENDBRANCH  25  35
ENDBRANCH  21  28
ENDBRANCH  20  22
ENDBRANCH  19  20
ENDBRANCH   1  19
TORSDOF 8
