REMARK  Name = ZINC08767221
REMARK  7 active torsions:
REMARK  status: ('A' for Active; 'I' for Inactive)
REMARK    1  A    between atoms: C_1  and  C_2
REMARK    2  A    between atoms: C_2  and  C_3
REMARK    3  A    between atoms: C_2  and  C_4
REMARK    4  A    between atoms: C_2  and  C_5
REMARK    5  A    between atoms: C_5  and  C_7
REMARK    6  A    between atoms: N_25  and  C_28
REMARK    7  A    between atoms: C_33  and  C_34
REMARK                            x       y       z     vdW  Elec       q    Type
REMARK                         _______ _______ _______ _____ _____    ______ ____
ROOT
ATOM      1  C   UNL     1      -1.316   1.985  -0.005  0.00  0.00    +0.136 C 
ATOM      2  C   UNL     1      -1.773   2.219  -1.423  0.00  0.00    +0.116 C 
ATOM      3  C   UNL     1      -2.325   0.766  -1.734  0.00  0.00    +0.113 C 
ATOM      4  C   UNL     1      -3.213   0.585  -0.552  0.00  0.00    +0.100 C 
ATOM      5  C   UNL     1      -2.694   0.940   1.901  0.00  0.00    +0.054 C 
ATOM      6  C   UNL     1      -3.205  -0.264   2.216  0.00  0.00    +0.022 C 
ATOM      7  C   UNL     1      -3.464  -1.246   1.145  0.00  0.00    -0.019 A 
ATOM      8  C   UNL     1      -3.456  -0.859  -0.198  0.00  0.00    -0.021 A 
ATOM      9  C   UNL     1      -3.678  -1.792  -1.187  0.00  0.00    +0.006 A 
ATOM     10  C   UNL     1      -3.922  -3.113  -0.853  0.00  0.00    +0.000 A 
ATOM     11  C   UNL     1      -3.946  -3.503   0.474  0.00  0.00    +0.001 A 
ATOM     12  C   UNL     1      -3.718  -2.580   1.474  0.00  0.00    +0.008 A 
ATOM     13  C   UNL     1      -2.626   0.946  -3.158  0.00  0.00    +0.232 C 
ATOM     14  O   UNL     1      -3.555   0.478  -3.781  0.00  0.00    -0.274 OA
ATOM     15  N   UNL     1      -1.628   1.760  -3.631  0.00  0.00    -0.209 N 
ATOM     16  C   UNL     1      -0.931   2.377  -2.625  0.00  0.00    +0.232 C 
ATOM     17  O   UNL     1       0.143   2.932  -2.705  0.00  0.00    -0.274 OA
ATOM     18  N   UNL     1      -2.647   1.450   0.463  0.00  0.00    -0.384 NA
ATOM     19  H   UNL     1      -3.269   2.267   0.473  0.00  0.00    +0.127 HD
ENDROOT
BRANCH  15  20
ATOM     20  C   UNL     1      -1.352   1.941  -4.994  0.00  0.00    +0.056 A 
ATOM     21  C   UNL     1      -1.987   2.950  -5.704  0.00  0.00    +0.024 A 
ATOM     22  C   UNL     1      -1.709   3.130  -7.045  0.00  0.00    +0.002 A 
ATOM     23  C   UNL     1      -0.807   2.298  -7.683  0.00  0.00    +0.001 A 
ATOM     24  C   UNL     1      -0.177   1.288  -6.979  0.00  0.00    +0.014 A 
ATOM     25  C   UNL     1      -0.447   1.108  -5.637  0.00  0.00    +0.077 A 
BRANCH  25  26
ATOM     26  C   UNL     1       0.240   0.006  -4.871  0.00  0.00    +0.419 C 
ATOM     27  F   UNL     1       1.098  -0.692  -5.727  0.00  0.00    -0.166 F 
ATOM     28  F   UNL     1       0.979   0.560  -3.820  0.00  0.00    -0.166 F 
ATOM     29  F   UNL     1      -0.720  -0.872  -4.355  0.00  0.00    -0.166 F 
ENDBRANCH  25  26
ENDBRANCH  15  20
BRANCH   1  30
ATOM     30  C   UNL     1      -0.024   1.210   0.018  0.00  0.00    +0.158 C 
ATOM     31  O   UNL     1       0.099   0.220  -0.663  0.00  0.00    -0.295 OA
BRANCH  30  33
ATOM     32  C   UNL     1       2.284   0.689   0.763  0.00  0.00    +0.018 C 
ATOM     33  C   UNL     1       1.118   1.673   0.885  0.00  0.00    +0.022 C 
ATOM     34  C   UNL     1       1.573   3.062   0.431  0.00  0.00    +0.018 C 
ATOM     35  C   UNL     1       0.657   1.739   2.343  0.00  0.00    +0.018 C 
ENDBRANCH  30  33
ENDBRANCH   1  30
TORSDOF 4
