REMARK  Name = ZINC40326015
REMARK  5 active torsions:
REMARK  status: ('A' for Active; 'I' for Inactive)
REMARK    1  A    between atoms: C_1  and  C_2
REMARK    2  A    between atoms: C_2  and  C_3
REMARK    3  A    between atoms: C_13  and  C_15
REMARK    4  A    between atoms: C_18  and  N_22
REMARK    5  A    between atoms: C_20  and  N_21
REMARK                            x       y       z     vdW  Elec       q    Type
REMARK                         _______ _______ _______ _____ _____    ______ ____
ROOT
ATOM      1  C   UNL     1       0.732  -0.511  -1.269  0.00  0.00    +0.107 C 
ATOM      2  C   UNL     1       0.852  -2.034  -1.246  0.00  0.00    -0.017 A 
ATOM      3  C   UNL     1       1.742  -2.717  -0.419  0.00  0.00    +0.013 A 
ATOM      4  C   UNL     1       1.791  -4.069  -0.448  0.00  0.00    +0.046 A 
ATOM      5  S   UNL     1       0.553  -4.455  -1.677  0.00  0.00    -0.101 S 
ATOM      6  C   UNL     1       0.067  -2.793  -2.058  0.00  0.00    -0.004 A 
ATOM      7  C   UNL     1      -0.957  -2.328  -3.042  0.00  0.00    +0.062 C 
ATOM      8  C   UNL     1      -1.304  -0.863  -2.735  0.00  0.00    +0.114 C 
ATOM      9  N   UNL     1      -0.054  -0.140  -2.453  0.00  0.00    -0.290 N 
ATOM     10  C   UNL     1       0.364   0.849  -3.268  0.00  0.00    +0.249 C 
ATOM     11  O   UNL     1       1.344   1.506  -2.974  0.00  0.00    -0.270 OA
ENDROOT
BRANCH  10  12
ATOM     12  C   UNL     1      -0.364   1.131  -4.515  0.00  0.00    +0.058 A 
ATOM     13  C   UNL     1      -0.590   0.109  -5.444  0.00  0.00    +0.017 A 
ATOM     14  C   UNL     1      -1.266   0.371  -6.600  0.00  0.00    +0.023 A 
ATOM     15  C   UNL     1      -1.737   1.657  -6.866  0.00  0.00    +0.026 A 
ATOM     16  C   UNL     1      -1.522   2.683  -5.956  0.00  0.00    +0.046 A 
ATOM     17  C   UNL     1      -0.841   2.428  -4.776  0.00  0.00    +0.039 A 
BRANCH  17  18
ATOM     18  N   UNL     1      -0.627   3.448  -3.858  0.00  0.00    -0.357 N 
ATOM     19  H   UNL     1      -0.086   3.286  -3.070  0.00  0.00    +0.142 HD
ATOM     20  H   UNL     1      -1.019   4.323  -4.005  0.00  0.00    +0.142 HD
ENDBRANCH  17  18
BRANCH  15  21
ATOM     21  N   UNL     1      -2.423   1.912  -8.048  0.00  0.00    -0.358 N 
ATOM     22  H   UNL     1      -2.574   1.196  -8.685  0.00  0.00    +0.142 HD
ATOM     23  H   UNL     1      -2.751   2.805  -8.236  0.00  0.00    +0.142 HD
ENDBRANCH  15  21
ENDBRANCH  10  12
BRANCH   1  25
ATOM     24  C   UNL     1      -0.001   1.502   0.017  0.00  0.00    +0.006 C 
ATOM     25  C   UNL     1       0.022  -0.028  -0.003  0.00  0.00    +0.024 C 
ENDBRANCH   1  25
TORSDOF 4
