REMARK  Name = ZINC12489647
REMARK  9 active torsions:
REMARK  status: ('A' for Active; 'I' for Inactive)
REMARK    1  A    between atoms: C_4  and  C_7
REMARK    2  A    between atoms: C_7  and  C_9
REMARK    3  A    between atoms: C_7  and  N_19
REMARK    4  A    between atoms: N_11  and  C_12
REMARK    5  A    between atoms: C_12  and  C_13
REMARK    6  A    between atoms: N_19  and  C_20
REMARK    7  A    between atoms: C_27  and  C_29
REMARK    8  A    between atoms: C_29  and  N_30
REMARK    9  A    between atoms: C_31  and  C_33
REMARK                            x       y       z     vdW  Elec       q    Type
REMARK                         _______ _______ _______ _____ _____    ______ ____
ROOT
ATOM      1  N   UNL     1      -3.453   3.262  -0.928  0.00  0.00    -0.254 N 
ATOM      2  C   UNL     1      -4.582   3.857  -1.361  0.00  0.00    +0.238 C 
ATOM      3  O   UNL     1      -4.889   4.953  -0.942  0.00  0.00    -0.274 OA
ENDROOT
BRANCH   1   4
ATOM      4  C   UNL     1      -3.044   2.047  -1.488  0.00  0.00    +0.038 A 
ATOM      5  C   UNL     1      -3.764   0.887  -1.235  0.00  0.00    +0.025 A 
ATOM      6  C   UNL     1      -3.361  -0.311  -1.793  0.00  0.00    +0.022 A 
ATOM      7  C   UNL     1      -2.235  -0.357  -2.595  0.00  0.00    +0.041 A 
ATOM      8  C   UNL     1      -1.512   0.797  -2.845  0.00  0.00    +0.022 A 
ATOM      9  C   UNL     1      -1.914   1.997  -2.294  0.00  0.00    +0.025 A 
ATOM     10 CL   UNL     1      -1.726  -1.865  -3.289  0.00  0.00    -0.084 Cl
ENDBRANCH   1   4
BRANCH   1  11
ATOM     11  C   UNL     1      -2.655   3.888   0.129  0.00  0.00    +0.197 C 
BRANCH  11  15
ATOM     12  C   UNL     1       0.938   1.651   0.710  0.00  0.00    +0.000 A 
ATOM     13  C   UNL     1      -0.291   1.035   0.856  0.00  0.00    +0.000 A 
ATOM     14  C   UNL     1      -1.453   1.758   0.663  0.00  0.00    +0.006 A 
ATOM     15  C   UNL     1      -1.387   3.099   0.334  0.00  0.00    -0.018 A 
ATOM     16  C   UNL     1      -0.158   3.715   0.189  0.00  0.00    +0.006 A 
ATOM     17  C   UNL     1       1.004   2.991   0.377  0.00  0.00    +0.000 A 
ENDBRANCH  11  15
BRANCH  11  18
ATOM     18  C   UNL     1      -3.446   3.909   1.411  0.00  0.00    +0.239 C 
ATOM     19  O   UNL     1      -4.567   3.447   1.439  0.00  0.00    -0.273 OA
ATOM     20  N   UNL     1      -2.908   4.441   2.526  0.00  0.00    -0.311 N 
ATOM     21  H   UNL     1      -2.011   4.811   2.503  0.00  0.00    +0.149 HD
BRANCH  20  22
ATOM     22  C   UNL     1      -3.678   4.462   3.773  0.00  0.00    +0.135 C 
BRANCH  22  23
ATOM     23  C   UNL     1      -2.843   5.116   4.876  0.00  0.00    +0.135 C 
ATOM     24  C   UNL     1      -3.644   5.142   6.192  0.00  0.00    +0.035 C 
ATOM     25  C   UNL     1      -2.761   4.355   7.190  0.00  0.00    +0.031 C 
ATOM     26  C   UNL     1      -1.364   4.441   6.525  0.00  0.00    +0.160 C 
ATOM     27  O   UNL     1      -1.656   4.341   5.114  0.00  0.00    -0.375 OA
ENDBRANCH  22  23
ENDBRANCH  20  22
ENDBRANCH  11  18
ENDBRANCH   1  11
BRANCH   2  28
ATOM     28  C   UNL     1      -5.464   3.161  -2.366  0.00  0.00    +0.201 C 
BRANCH  28  29
ATOM     29  N   UNL     1      -6.550   4.058  -2.767  0.00  0.00    -0.302 N 
ATOM     30  C   UNL     1      -7.467   3.647  -3.665  0.00  0.00    +0.251 C 
ATOM     31  O   UNL     1      -7.393   2.529  -4.141  0.00  0.00    -0.270 OA
ATOM     32  H   UNL     1      -6.609   4.949  -2.388  0.00  0.00    +0.150 HD
BRANCH  30  33
ATOM     33  C   UNL     1      -8.554   4.544  -4.066  0.00  0.00    +0.074 A 
ATOM     34  C   UNL     1      -9.587   4.319  -4.963  0.00  0.00    +0.021 A 
ATOM     35  C   UNL     1     -10.481   5.342  -5.156  0.00  0.00    +0.008 A 
ATOM     36  C   UNL     1     -10.316   6.506  -4.474  0.00  0.00    +0.046 A 
ATOM     37  S   UNL     1      -8.897   6.209  -3.523  0.00  0.00    -0.092 S 
ENDBRANCH  30  33
ENDBRANCH  28  29
ENDBRANCH   2  28
TORSDOF 9
