REMARK  Name = ZINC09332219
REMARK  6 active torsions:
REMARK  status: ('A' for Active; 'I' for Inactive)
REMARK    1  A    between atoms: C_1  and  C_2
REMARK    2  A    between atoms: C_2  and  C_3
REMARK    3  A    between atoms: C_3  and  C_4
REMARK    4  A    between atoms: C_4  and  C_5
REMARK    5  A    between atoms: C_5  and  N_6
REMARK    6  A    between atoms: C_15  and  C_22
REMARK                            x       y       z     vdW  Elec       q    Type
REMARK                         _______ _______ _______ _____ _____    ______ ____
ROOT
ATOM      1  N   UNL     1       5.170   2.993  -0.984  0.00  0.00    -0.225 N 
ATOM      2  C   UNL     1       3.939   3.164  -0.480  0.00  0.00    +0.240 C 
ATOM      3  O   UNL     1       3.753   2.959   0.700  0.00  0.00    -0.274 OA
ATOM      4  C   UNL     1       2.784   3.603  -1.336  0.00  0.00    +0.146 C 
ATOM      5  C   UNL     1       2.179   4.887  -0.767  0.00  0.00    +0.071 C 
ATOM      6  C   UNL     1       1.545   4.560   0.560  0.00  0.00    +0.057 A 
ATOM      7  C   UNL     1       1.141   3.273   0.862  0.00  0.00    +0.109 A 
ATOM      8  N   UNL     1       0.595   3.033   2.063  0.00  0.00    -0.329 N 
ATOM      9  C   UNL     1       0.418   4.000   2.956  0.00  0.00    +0.122 A 
ATOM     10  C   UNL     1      -0.171   3.697   4.198  0.00  0.00    -0.009 A 
ATOM     11  C   UNL     1      -0.370   4.693   5.106  0.00  0.00    +0.008 A 
ATOM     12  C   UNL     1       0.019   6.003   4.793  0.00  0.00    +0.019 A 
ATOM     13  C   UNL     1       0.591   6.274   3.599  0.00  0.00    +0.096 A 
ATOM     14  N   UNL     1       0.796   5.286   2.684  0.00  0.00    -0.269 N 
ATOM     15  C   UNL     1       1.370   5.577   1.498  0.00  0.00    +0.263 A 
ATOM     16  O   UNL     1       1.732   6.717   1.250  0.00  0.00    -0.267 OA
ATOM     17  C   UNL     1      -0.578   2.283   4.521  0.00  0.00    +0.047 C 
ATOM     18  N   UNL     1       1.247   2.194   0.002  0.00  0.00    -0.312 N 
ATOM     19  C   UNL     1       1.718   2.500  -1.344  0.00  0.00    +0.099 C 
ATOM     20  C   UNL     1       2.382   1.248  -1.923  0.00  0.00    +0.024 C 
ATOM     21  C   UNL     1       1.422   0.103  -2.080  0.00  0.00    +0.002 C 
ATOM     22  C   UNL     1       1.089  -0.641  -0.826  0.00  0.00    +0.002 C 
ATOM     23  C   UNL     1       0.002  -0.004   0.002  0.00  0.00    +0.019 C 
ATOM     24  C   UNL     1      -0.018   1.484   0.010  0.00  0.00    +0.107 C 
ATOM     25  C   UNL     1       3.238   3.850  -2.749  0.00  0.00    +0.238 C 
ATOM     26  O   UNL     1       2.433   4.242  -3.565  0.00  0.00    -0.274 OA
ATOM     27  N   UNL     1       4.507   3.650  -3.131  0.00  0.00    -0.239 N 
ATOM     28  C   UNL     1       5.447   3.222  -2.276  0.00  0.00    +0.315 C 
ATOM     29  O   UNL     1       6.578   3.038  -2.681  0.00  0.00    -0.252 OA
ATOM     30  H   UNL     1       4.803   3.837  -4.174  0.00  0.00    +0.159 HD
ATOM     31  H   UNL     1       0.280   2.013   2.331  0.00  0.00    +0.168 HD
ENDROOT
BRANCH   1  32
ATOM     32  C   UNL     1       6.244   2.541  -0.095  0.00  0.00    +0.118 C 
BRANCH  32  33
ATOM     33  C   UNL     1       6.936   3.756   0.526  0.00  0.00    +0.019 C 
BRANCH  33  34
ATOM     34  C   UNL     1       8.058   3.285   1.454  0.00  0.00    +0.001 C 
BRANCH  34  36
ATOM     35  C   UNL     1       9.871   4.029   3.003  0.00  0.00    +0.004 C 
ATOM     36  C   UNL     1       8.750   4.500   2.075  0.00  0.00    -0.003 C 
ENDBRANCH  34  36
ENDBRANCH  33  34
ENDBRANCH  32  33
ENDBRANCH   1  32
TORSDOF 4
