REMARK  Name = ZINC30675604
REMARK  10 active torsions:
REMARK  status: ('A' for Active; 'I' for Inactive)
REMARK    1  A    between atoms: C_1  and  C_2
REMARK    2  A    between atoms: C_2  and  N_3
REMARK    3  A    between atoms: N_3  and  C_4
REMARK    4  A    between atoms: N_3  and  C_26
REMARK    5  A    between atoms: C_7  and  N_10
REMARK    6  A    between atoms: C_11  and  C_13
REMARK    7  A    between atoms: C_13  and  C_14
REMARK    8  A    between atoms: C_14  and  N_15
REMARK    9  A    between atoms: C_26  and  C_27
REMARK   10  A    between atoms: C_26  and  C_28
REMARK                            x       y       z     vdW  Elec       q    Type
REMARK                         _______ _______ _______ _____ _____    ______ ____
ROOT
ATOM      1  N   UNL     1      -3.929   0.951  -4.710  0.00  0.00    -0.285 N 
ATOM      2  C   UNL     1      -3.797   0.187  -5.812  0.00  0.00    +0.219 C 
ATOM      3  O   UNL     1      -3.198  -0.867  -5.752  0.00  0.00    -0.275 OA
ATOM      4  H   UNL     1      -4.471   1.754  -4.739  0.00  0.00    +0.155 HD
ENDROOT
BRANCH   1   8
ATOM      5  C   UNL     1      -2.004  -0.136  -1.179  0.00  0.00    +0.014 A 
ATOM      6  C   UNL     1      -1.415  -0.413  -2.399  0.00  0.00    +0.023 A 
ATOM      7  C   UNL     1      -2.051  -0.055  -3.571  0.00  0.00    +0.025 A 
ATOM      8  C   UNL     1      -3.282   0.586  -3.524  0.00  0.00    +0.033 A 
ATOM      9  C   UNL     1      -3.871   0.863  -2.297  0.00  0.00    +0.025 A 
ATOM     10  C   UNL     1      -3.232   0.497  -1.128  0.00  0.00    +0.023 A 
BRANCH   5  11
ATOM     11  N   UNL     1      -1.358  -0.500   0.006  0.00  0.00    -0.392 NA
ATOM     12  H   UNL     1      -1.925  -0.229   0.796  0.00  0.00    +0.127 HD
BRANCH  11  13
ATOM     13  C   UNL     1      -1.156  -1.955   0.026  0.00  0.00    +0.049 C 
ATOM     14  C   UNL     1      -0.449  -2.354   1.323  0.00  0.00    +0.026 C 
ATOM     15  C   UNL     1      -2.512  -2.659  -0.053  0.00  0.00    +0.026 C 
ENDBRANCH  11  13
BRANCH  11  17
ATOM     16  C   UNL     1      -0.272   1.687   0.187  0.00  0.00    +0.022 C 
ATOM     17  C   UNL     1      -0.056   0.176   0.082  0.00  0.00    +0.082 C 
ENDBRANCH  11  17
ENDBRANCH   5  11
ENDBRANCH   1   8
BRANCH   2  18
ATOM     18  C   UNL     1      -4.394   0.640  -7.120  0.00  0.00    +0.118 C 
BRANCH  18  19
ATOM     19  C   UNL     1      -4.103  -0.402  -8.202  0.00  0.00    +0.135 C 
BRANCH  19  20
ATOM     20  N   UNL     1      -4.683   0.040  -9.473  0.00  0.00    -0.298 N 
ATOM     21  C   UNL     1      -5.958  -0.310  -9.788  0.00  0.00    +0.202 A 
ATOM     22  N   UNL     1      -6.542   0.041 -10.893  0.00  0.00    -0.237 NA
ATOM     23  C   UNL     1      -5.906   0.795 -11.825  0.00  0.00    +0.078 A 
ATOM     24  C   UNL     1      -6.534   1.174 -13.014  0.00  0.00    +0.028 A 
ATOM     25  C   UNL     1      -5.851   1.940 -13.931  0.00  0.00    +0.002 A 
ATOM     26  C   UNL     1      -4.543   2.342 -13.690  0.00  0.00    +0.001 A 
ATOM     27  C   UNL     1      -3.903   1.982 -12.525  0.00  0.00    +0.015 A 
ATOM     28  C   UNL     1      -4.577   1.206 -11.583  0.00  0.00    +0.065 A 
ATOM     29  C   UNL     1      -3.946   0.796 -10.319  0.00  0.00    +0.262 A 
ATOM     30  O   UNL     1      -2.805   1.121 -10.047  0.00  0.00    -0.267 OA
ENDBRANCH  19  20
ENDBRANCH  18  19
ENDBRANCH   2  18
TORSDOF 7
