REMARK  Name = ZINC00033571
REMARK  6 active torsions:
REMARK  status: ('A' for Active; 'I' for Inactive)
REMARK    1  A    between atoms: C_1  and  C_2
REMARK    2  A    between atoms: C_2  and  O_3
REMARK    3  A    between atoms: O_3  and  C_4
REMARK    4  A    between atoms: C_4  and  C_6
REMARK    5  A    between atoms: C_6  and  C_7
REMARK    6  A    between atoms: C_13  and  C_17
REMARK                            x       y       z     vdW  Elec       q    Type
REMARK                         _______ _______ _______ _____ _____    ______ ____
ROOT
ATOM      1  C   UNL     1      -3.270   2.616   0.047  0.00  0.00    +0.164 A 
ATOM      2  N   UNL     1      -2.522   1.481   0.034  0.00  0.00    -0.145 NA
ATOM      3  N   UNL     1      -1.181   1.887   0.018  0.00  0.00    -0.158 N 
ATOM      4  C   UNL     1      -0.015   1.216   0.009  0.00  0.00    +0.290 A 
ATOM      5  O   UNL     1       0.002  -0.004   0.002  0.00  0.00    -0.264 OA
ATOM      6  C   UNL     1       1.187   1.951   0.001  0.00  0.00    +0.105 A 
ATOM      7  C   UNL     1       1.123   3.316   0.009  0.00  0.00    +0.061 A 
ATOM      8  N   UNL     1      -0.053   3.934   0.024  0.00  0.00    -0.215 NA
ATOM      9  C   UNL     1      -1.190   3.255   0.031  0.00  0.00    +0.256 A 
ATOM     10  N   UNL     1      -2.478   3.654   0.045  0.00  0.00    -0.193 NA
ATOM     11  C   UNL     1       2.395   4.125   0.001  0.00  0.00    +0.067 C 
ATOM     12 BR   UNL     1       2.857   1.065  -0.019  0.00  0.00    -0.043 Br
ENDROOT
BRANCH   1  13
ATOM     13  C   UNL     1      -4.776   2.668   0.062  0.00  0.00    +0.198 C 
BRANCH  13  14
ATOM     14  C   UNL     1      -5.229   4.106   0.075  0.00  0.00    +0.315 C 
ATOM     15  O   UNL     1      -4.412   4.996   0.072  0.00  0.00    -0.250 OA
BRANCH  14  16
ATOM     16  O   UNL     1      -6.539   4.396   0.089  0.00  0.00    -0.465 OA
BRANCH  16  18
ATOM     17  C   UNL     1      -8.427   5.935   0.116  0.00  0.00    +0.048 C 
ATOM     18  C   UNL     1      -6.902   5.802   0.101  0.00  0.00    +0.229 C 
ENDBRANCH  16  18
ENDBRANCH  14  16
ENDBRANCH  13  14
ENDBRANCH   1  13
TORSDOF 4
