REMARK  Name = ZINC40463628
REMARK  7 active torsions:
REMARK  status: ('A' for Active; 'I' for Inactive)
REMARK    1  A    between atoms: C_1  and  S_2
REMARK    2  A    between atoms: S_2  and  C_3
REMARK    3  A    between atoms: C_3  and  C_4
REMARK    4  A    between atoms: C_4  and  C_5
REMARK    5  A    between atoms: C_5  and  C_7
REMARK    6  A    between atoms: C_5  and  N_23
REMARK    7  A    between atoms: N_9  and  C_10
REMARK                            x       y       z     vdW  Elec       q    Type
REMARK                         _______ _______ _______ _____ _____    ______ ____
ROOT
ATOM      1  C   UNL     1      -3.479  -3.878  -0.109  0.00  0.00    +0.203 C 
ATOM      2  O   UNL     1      -3.686  -4.557   0.875  0.00  0.00    -0.277 OA
ATOM      3  N   UNL     1      -3.373  -4.460  -1.320  0.00  0.00    -0.286 N 
ATOM      4  H   UNL     1      -3.288  -3.912  -2.116  0.00  0.00    +0.155 HD
ENDROOT
BRANCH   3   5
ATOM      5  C   UNL     1      -3.385  -5.857  -1.429  0.00  0.00    +0.049 A 
ATOM      6  C   UNL     1      -2.993  -6.639  -0.353  0.00  0.00    +0.052 A 
ATOM      7  C   UNL     1      -3.006  -8.020  -0.464  0.00  0.00    +0.069 A 
ATOM      8  C   UNL     1      -3.413  -8.620  -1.657  0.00  0.00    +0.068 A 
ATOM      9  C   UNL     1      -3.804  -7.833  -2.730  0.00  0.00    +0.045 A 
ATOM     10  C   UNL     1      -3.796  -6.457  -2.615  0.00  0.00    +0.041 A 
ATOM     11 BR   UNL     1      -4.337  -5.385  -4.075  0.00  0.00    -0.048 Br
ATOM     12  N   UNL     1      -3.321  -9.998  -1.467  0.00  0.00    -0.306 N 
ATOM     13  H   UNL     1      -3.538 -10.678  -2.124  0.00  0.00    +0.170 HD
ATOM     14  C   UNL     1      -2.878 -10.225  -0.216  0.00  0.00    +0.325 A 
ATOM     15  O   UNL     1      -2.686 -11.323   0.272  0.00  0.00    -0.247 OA
ATOM     16  N   UNL     1      -2.679  -9.052   0.414  0.00  0.00    -0.306 N 
ATOM     17  H   UNL     1      -2.361  -8.943   1.324  0.00  0.00    +0.170 HD
ENDBRANCH   3   5
BRANCH   1  18
ATOM     18  C   UNL     1      -3.342  -2.383   0.023  0.00  0.00    +0.014 C 
BRANCH  18  19
ATOM     19  N   UNL     1      -3.951  -1.945   1.286  0.00  0.00    +0.386 N 
ATOM     20  H   UNL     1      -3.858  -0.944   1.374  0.00  0.00    -0.089 HD
ATOM     21  H   UNL     1      -4.928  -2.195   1.292  0.00  0.00    -0.089 HD
ATOM     22  H   UNL     1      -3.483  -2.395   2.059  0.00  0.00    -0.089 HD
ENDBRANCH  18  19
BRANCH  18  23
ATOM     23  C   UNL     1      -1.859  -2.005   0.013  0.00  0.00    +0.003 C 
BRANCH  23  24
ATOM     24  C   UNL     1      -1.722  -0.481   0.021  0.00  0.00    +0.068 C 
BRANCH  24  26
ATOM     25  C   UNL     1       0.025   1.782   0.021  0.00  0.00    +0.084 C 
ATOM     26  S   UNL     1       0.036  -0.032   0.010  0.00  0.00    -0.164 S 
ENDBRANCH  24  26
ENDBRANCH  23  24
ENDBRANCH  18  23
ENDBRANCH   1  18
TORSDOF 6
