REMARK  Name = ZINC13451803
REMARK  6 active torsions:
REMARK  status: ('A' for Active; 'I' for Inactive)
REMARK    1  A    between atoms: C_1  and  C_2
REMARK    2  A    between atoms: C_15  and  C_17
REMARK    3  A    between atoms: C_17  and  N_18
REMARK    4  A    between atoms: N_18  and  C_19
REMARK    5  A    between atoms: N_18  and  C_20
REMARK    6  A    between atoms: C_21  and  C_25
REMARK                            x       y       z     vdW  Elec       q    Type
REMARK                         _______ _______ _______ _____ _____    ______ ____
ROOT
ATOM      1  C   UNL     1       2.940   1.229   1.722  0.00  0.00    +0.029 C 
ATOM      2  C   UNL     1       2.422   1.123   0.286  0.00  0.00    +0.087 C 
ATOM      3  C   UNL     1       3.451   1.726  -0.678  0.00  0.00    +0.118 C 
ATOM      4  C   UNL     1       2.815   2.001  -2.015  0.00  0.00    +0.219 C 
ATOM      5  O   UNL     1       3.045   1.268  -2.953  0.00  0.00    -0.275 OA
ATOM      6  N   UNL     1       1.989   3.058  -2.176  0.00  0.00    -0.284 N 
ATOM      7  C   UNL     1       1.637   3.857  -1.082  0.00  0.00    +0.055 A 
ATOM      8  C   UNL     1       1.702   5.238  -1.161  0.00  0.00    +0.025 A 
ATOM      9  C   UNL     1       1.297   6.008  -0.086  0.00  0.00    +0.002 A 
ATOM     10  C   UNL     1       0.828   5.404   1.066  0.00  0.00    +0.002 A 
ATOM     11  C   UNL     1       0.771   4.026   1.157  0.00  0.00    +0.025 A 
ATOM     12  C   UNL     1       1.184   3.247   0.088  0.00  0.00    +0.058 A 
ATOM     13  N   UNL     1       1.156   1.848   0.171  0.00  0.00    -0.265 N 
ATOM     14  C   UNL     1      -0.016   1.183   0.149  0.00  0.00    +0.237 C 
ATOM     15  O   UNL     1      -0.028  -0.028   0.221  0.00  0.00    -0.274 OA
ATOM     16  H   UNL     1       1.638   3.265  -3.056  0.00  0.00    +0.155 HD
ENDROOT
BRANCH  14  17
ATOM     17  C   UNL     1      -1.312   1.943   0.030  0.00  0.00    +0.202 C 
BRANCH  17  18
ATOM     18  N   UNL     1      -2.436   0.997   0.023  0.00  0.00    -0.310 N 
ATOM     19  C   UNL     1      -2.553   0.308   1.315  0.00  0.00    +0.131 C 
BRANCH  18  20
ATOM     20  C   UNL     1      -3.618   1.634  -0.307  0.00  0.00    +0.113 A 
ATOM     21  C   UNL     1      -4.378   1.176  -1.398  0.00  0.00    +0.101 A 
ATOM     22  C   UNL     1      -5.573   1.835  -1.710  0.00  0.00    +0.020 A 
ATOM     23  C   UNL     1      -5.949   2.917  -0.934  0.00  0.00    +0.018 A 
ATOM     24  C   UNL     1      -5.145   3.312   0.120  0.00  0.00    +0.084 A 
ATOM     25  N   UNL     1      -3.980   2.700   0.463  0.00  0.00    -0.349 N 
ATOM     26  H   UNL     1      -3.408   3.022   1.253  0.00  0.00    +0.167 HD
BRANCH  21  27
ATOM     27  C   UNL     1      -3.928   0.021  -2.194  0.00  0.00    +0.390 C 
ATOM     28  O   UNL     1      -2.943  -0.604  -1.855  0.00  0.00    -0.240 OA
ATOM     29  O   UNL     1      -4.610  -0.342  -3.298  0.00  0.00    -0.240 OA
ENDBRANCH  21  27
ENDBRANCH  18  20
ENDBRANCH  17  18
ENDBRANCH  14  17
TORSDOF 4
