REMARK  Name = ZINC59408687
REMARK  10 active torsions:
REMARK  status: ('A' for Active; 'I' for Inactive)
REMARK    1  A    between atoms: C_1  and  C_2
REMARK    2  A    between atoms: C_5  and  C_32
REMARK    3  A    between atoms: N_8  and  C_10
REMARK    4  A    between atoms: C_10  and  C_11
REMARK    5  A    between atoms: C_14  and  C_17
REMARK    6  A    between atoms: C_17  and  N_18
REMARK    7  A    between atoms: C_19  and  C_21
REMARK    8  A    between atoms: C_21  and  O_22
REMARK    9  A    between atoms: O_22  and  C_23
REMARK   10  A    between atoms: C_27  and  N_29
REMARK                            x       y       z     vdW  Elec       q    Type
REMARK                         _______ _______ _______ _____ _____    ______ ____
ROOT
ATOM      1  C   UNL     1       2.971  -2.034   2.241  0.00  0.00    -0.064 A 
ATOM      2  C   UNL     1       3.870  -2.852   1.582  0.00  0.00    +0.002 A 
ATOM      3  C   UNL     1       5.189  -2.460   1.446  0.00  0.00    +0.005 A 
ATOM      4  C   UNL     1       5.609  -1.252   1.969  0.00  0.00    -0.030 A 
ATOM      5  C   UNL     1       4.710  -0.434   2.628  0.00  0.00    +0.005 A 
ATOM      6  C   UNL     1       3.390  -0.823   2.760  0.00  0.00    +0.002 A 
ENDROOT
BRANCH   1   7
ATOM      7  C   UNL     1       1.534  -2.461   2.390  0.00  0.00    -0.043 C 
BRANCH   7  13
ATOM      8  C   UNL     1      -0.019   1.526   0.010  0.00  0.00    +0.005 C 
ATOM      9  C   UNL     1       0.002  -0.004   0.002  0.00  0.00    -0.031 C 
ATOM     10  C   UNL     1      -1.434  -0.535   0.015  0.00  0.00    +0.003 C 
ATOM     11  C   UNL     1      -1.402  -2.064   0.086  0.00  0.00    -0.031 C 
ATOM     12  C   UNL     1      -0.613  -2.496   1.324  0.00  0.00    -0.075 C 
ATOM     13  N   UNL     1       0.758  -1.980   1.239  0.00  0.00    +0.383 N 
ATOM     14  C   UNL     1       0.740  -0.512   1.242  0.00  0.00    -0.075 C 
ATOM     15  C   UNL     1      -2.832  -2.602   0.177  0.00  0.00    +0.005 C 
ATOM     16  H   UNL     1       1.188  -2.307   0.386  0.00  0.00    -0.081 HD
ENDBRANCH   7  13
ENDBRANCH   1   7
BRANCH   4  17
ATOM     17  C   UNL     1       7.047  -0.825   1.821  0.00  0.00    +0.139 C 
BRANCH  17  18
ATOM     18  N   UNL     1       7.205  -0.064   0.580  0.00  0.00    -0.308 N 
ATOM     19  C   UNL     1       8.415   0.422   0.237  0.00  0.00    +0.251 C 
ATOM     20  O   UNL     1       9.372   0.229   0.956  0.00  0.00    -0.272 OA
ATOM     21  H   UNL     1       6.440   0.090   0.004  0.00  0.00    +0.149 HD
BRANCH  19  22
ATOM     22  C   UNL     1       8.578   1.205  -1.040  0.00  0.00    +0.324 C 
BRANCH  22  23
ATOM     23  O   UNL     1       9.941   1.609  -1.180  0.00  0.00    -0.483 OA
BRANCH  23  24
ATOM     24  C   UNL     1      10.261   2.330  -2.287  0.00  0.00    +0.123 A 
ATOM     25  C   UNL     1       9.280   2.647  -3.217  0.00  0.00    +0.046 A 
ATOM     26  C   UNL     1       9.607   3.381  -4.341  0.00  0.00    +0.006 A 
ATOM     27  C   UNL     1      10.910   3.799  -4.540  0.00  0.00    +0.033 A 
ATOM     28  C   UNL     1      11.889   3.484  -3.616  0.00  0.00    +0.130 A 
ATOM     29  C   UNL     1      11.566   2.755  -2.487  0.00  0.00    +0.078 A 
BRANCH  28  30
ATOM     30  N   UNL     1      13.283   3.932  -3.832  0.00  0.00    +0.057 N 
ATOM     31  O   UNL     1      13.565   4.574  -4.817  0.00  0.00    -0.126 OA
ATOM     32  O   UNL     1      14.139   3.657  -3.024  0.00  0.00    -0.126 OA
ENDBRANCH  28  30
ENDBRANCH  23  24
ENDBRANCH  22  23
ENDBRANCH  19  22
ENDBRANCH  17  18
ENDBRANCH   4  17
TORSDOF 8
