REMARK  Name = ZINC59890778
REMARK  10 active torsions:
REMARK  status: ('A' for Active; 'I' for Inactive)
REMARK    1  A    between atoms: C_1  and  C_2
REMARK    2  A    between atoms: C_7  and  C_9
REMARK    3  A    between atoms: C_7  and  N_29
REMARK    4  A    between atoms: C_9  and  N_10
REMARK    5  A    between atoms: C_11  and  C_13
REMARK    6  A    between atoms: C_16  and  S_19
REMARK    7  A    between atoms: S_19  and  N_22
REMARK    8  A    between atoms: N_22  and  C_23
REMARK    9  A    between atoms: N_29  and  C_30
REMARK   10  A    between atoms: N_29  and  C_31
REMARK                            x       y       z     vdW  Elec       q    Type
REMARK                         _______ _______ _______ _____ _____    ______ ____
ROOT
ATOM      1  C   UNL     1       1.466  -6.812  -3.798  0.00  0.00    +0.037 A 
ATOM      2  C   UNL     1       1.042  -6.871  -2.469  0.00  0.00    +0.015 A 
ATOM      3  C   UNL     1       1.454  -7.912  -1.663  0.00  0.00    +0.029 A 
ATOM      4  C   UNL     1       2.285  -8.896  -2.168  0.00  0.00    +0.109 A 
ATOM      5  C   UNL     1       2.709  -8.843  -3.484  0.00  0.00    +0.029 A 
ATOM      6  C   UNL     1       2.300  -7.811  -4.303  0.00  0.00    +0.015 A 
ENDROOT
BRANCH   1   8
ATOM      7  N   UNL     1       0.223  -4.737  -4.177  0.00  0.00    -0.313 N 
ATOM      8  C   UNL     1       1.028  -5.700  -4.668  0.00  0.00    +0.244 C 
ATOM      9  O   UNL     1       1.395  -5.654  -5.826  0.00  0.00    -0.270 OA
ATOM     10  H   UNL     1      -0.070  -4.774  -3.253  0.00  0.00    +0.149 HD
BRANCH   7  11
ATOM     11  C   UNL     1      -0.211  -3.635  -5.039  0.00  0.00    +0.092 C 
BRANCH  11  17
ATOM     12  C   UNL     1       1.963  -0.627  -2.813  0.00  0.00    +0.007 C 
ATOM     13  C   UNL     1       1.052  -1.268  -3.862  0.00  0.00    -0.015 C 
ATOM     14  C   UNL     1       0.495  -0.182  -4.785  0.00  0.00    +0.003 C 
ATOM     15  C   UNL     1      -0.415  -0.823  -5.835  0.00  0.00    -0.001 C 
ATOM     16  C   UNL     1      -1.571  -1.542  -5.136  0.00  0.00    -0.010 C 
ATOM     17  C   UNL     1      -1.014  -2.627  -4.214  0.00  0.00    -0.050 C 
ATOM     18  C   UNL     1      -0.103  -1.987  -3.164  0.00  0.00    -0.007 C 
BRANCH  17  19
ATOM     19  N   UNL     1      -2.124  -3.318  -3.543  0.00  0.00    +0.381 N 
ATOM     20  C   UNL     1      -2.946  -2.337  -2.822  0.00  0.00    -0.096 C 
ATOM     21  C   UNL     1      -2.949  -4.006  -4.545  0.00  0.00    -0.096 C 
ATOM     22  H   UNL     1      -1.755  -3.993  -2.890  0.00  0.00    -0.082 HD
ENDBRANCH  17  19
ENDBRANCH  11  17
ENDBRANCH   7  11
ENDBRANCH   1   8
BRANCH   4  23
ATOM     23  S   UNL     1       2.807 -10.222  -1.131  0.00  0.00    +0.072 S 
ATOM     24  O   UNL     1       3.972 -10.771  -1.730  0.00  0.00    -0.150 OA
ATOM     25  O   UNL     1       2.797  -9.724   0.200  0.00  0.00    -0.150 OA
BRANCH  23  26
ATOM     26  N   UNL     1       1.638 -11.392  -1.208  0.00  0.00    -0.216 N 
ATOM     27  H   UNL     1       1.846 -12.262  -1.584  0.00  0.00    +0.174 HD
BRANCH  26  28
ATOM     28  C   UNL     1       0.352 -11.127  -0.732  0.00  0.00    +0.048 A 
ATOM     29  C   UNL     1       0.111 -11.084   0.635  0.00  0.00    +0.024 A 
ATOM     30  C   UNL     1      -1.162 -10.821   1.103  0.00  0.00    +0.002 A 
ATOM     31  C   UNL     1      -2.196 -10.602   0.211  0.00  0.00    +0.000 A 
ATOM     32  C   UNL     1      -1.960 -10.644  -1.151  0.00  0.00    +0.002 A 
ATOM     33  C   UNL     1      -0.688 -10.901  -1.625  0.00  0.00    +0.024 A 
ENDBRANCH  26  28
ENDBRANCH  23  26
ENDBRANCH   4  23
TORSDOF 7
