REMARK  Name = ZINC22413284
REMARK  5 active torsions:
REMARK  status: ('A' for Active; 'I' for Inactive)
REMARK    1  A    between atoms: C_1  and  C_2
REMARK    2  A    between atoms: C_7  and  N_8
REMARK    3  A    between atoms: N_20  and  C_23
REMARK    4  A    between atoms: C_23  and  C_24
REMARK    5  A    between atoms: N_26  and  C_27
REMARK                            x       y       z     vdW  Elec       q    Type
REMARK                         _______ _______ _______ _____ _____    ______ ____
ROOT
ATOM      1  N   UNL     1       0.025  -0.013   2.418  0.00  0.00    -0.226 N 
ATOM      2  C   UNL     1      -1.147   0.293   3.008  0.00  0.00    +0.304 A 
ATOM      3  O   UNL     1      -2.200  -0.029   2.487  0.00  0.00    -0.263 OA
ATOM      4  C   UNL     1      -1.145   0.992   4.241  0.00  0.00    +0.217 A 
ATOM      5  C   UNL     1       0.071   1.338   4.798  0.00  0.00    +0.105 A 
ATOM      6  C   UNL     1      -0.240   2.038   6.046  0.00  0.00    +0.045 A 
ATOM      7  C   UNL     1       0.531   2.627   7.050  0.00  0.00    +0.014 A 
ATOM      8  C   UNL     1      -0.083   3.219   8.118  0.00  0.00    +0.001 A 
ATOM      9  C   UNL     1      -1.467   3.238   8.211  0.00  0.00    +0.004 A 
ATOM     10  C   UNL     1      -2.246   2.662   7.231  0.00  0.00    +0.047 A 
ATOM     11  C   UNL     1      -1.643   2.054   6.134  0.00  0.00    +0.138 A 
ATOM     12  O   UNL     1      -2.138   1.426   5.048  0.00  0.00    -0.448 OA
ATOM     13  N   UNL     1       1.241   0.999   4.150  0.00  0.00    -0.281 N 
ATOM     14  C   UNL     1       1.197   0.329   2.982  0.00  0.00    +0.338 A 
ATOM     15  O   UNL     1       2.236   0.033   2.425  0.00  0.00    -0.246 OA
ENDROOT
BRANCH   1  22
ATOM     16  C   UNL     1      -0.018   1.503   0.010  0.00  0.00    +0.046 C 
ATOM     17  C   UNL     1       0.002  -0.004   0.002  0.00  0.00    -0.026 A 
ATOM     18  C   UNL     1       0.006  -0.689  -1.198  0.00  0.00    +0.005 A 
ATOM     19  C   UNL     1       0.024  -2.071  -1.206  0.00  0.00    +0.000 A 
ATOM     20  C   UNL     1       0.039  -2.773  -0.014  0.00  0.00    +0.002 A 
ATOM     21  C   UNL     1       0.035  -2.094   1.188  0.00  0.00    +0.027 A 
ATOM     22  C   UNL     1       0.023  -0.705   1.200  0.00  0.00    +0.057 A 
ENDBRANCH   1  22
BRANCH  13  23
ATOM     23  C   UNL     1       2.533   1.363   4.736  0.00  0.00    +0.222 C 
BRANCH  23  24
ATOM     24  C   UNL     1       3.007   0.252   5.637  0.00  0.00    +0.233 C 
ATOM     25  O   UNL     1       2.331  -0.746   5.777  0.00  0.00    -0.274 OA
ATOM     26  N   UNL     1       4.181   0.366   6.289  0.00  0.00    -0.311 N 
ATOM     27  H   UNL     1       4.721   1.164   6.178  0.00  0.00    +0.149 HD
BRANCH  26  28
ATOM     28  C   UNL     1       4.641  -0.714   7.165  0.00  0.00    +0.073 C 
ATOM     29  C   UNL     1       4.022  -0.543   8.554  0.00  0.00    +0.022 C 
ATOM     30  C   UNL     1       4.502  -1.671   9.469  0.00  0.00    +0.002 C 
ATOM     31  C   UNL     1       6.027  -1.622   9.581  0.00  0.00    +0.000 C 
ATOM     32  C   UNL     1       6.647  -1.793   8.193  0.00  0.00    +0.002 C 
ATOM     33  C   UNL     1       6.166  -0.665   7.277  0.00  0.00    +0.022 C 
ENDBRANCH  26  28
ENDBRANCH  23  24
ENDBRANCH  13  23
TORSDOF 4
