REMARK  Name = ZINC13096680
REMARK  8 active torsions:
REMARK  status: ('A' for Active; 'I' for Inactive)
REMARK    1  A    between atoms: C_1  and  C_2
REMARK    2  A    between atoms: C_2  and  N_54
REMARK    3  A    between atoms: C_5  and  C_29
REMARK    4  A    between atoms: C_15  and  C_16
REMARK    5  A    between atoms: C_18  and  C_27
REMARK    6  A    between atoms: C_19  and  O_23
REMARK    7  A    between atoms: C_20  and  C_22
REMARK    8  A    between atoms: O_23  and  C_24
REMARK                            x       y       z     vdW  Elec       q    Type
REMARK                         _______ _______ _______ _____ _____    ______ ____
ROOT
ATOM      1  C   UNL     1       3.517   6.191  -0.488  0.00  0.00    -0.040 C 
ATOM      2  C   UNL     1       2.296   5.345  -0.257  0.00  0.00    -0.024 A 
ATOM      3  C   UNL     1       2.421   3.963  -0.214  0.00  0.00    +0.076 A 
ATOM      4  C   UNL     1       1.205   3.182   0.020  0.00  0.00    +0.015 A 
ATOM      5  C   UNL     1       1.234   1.785   0.078  0.00  0.00    +0.011 A 
ATOM      6  C   UNL     1       0.079   1.095   0.300  0.00  0.00    +0.001 A 
ATOM      7  C   UNL     1      -1.132   1.765   0.464  0.00  0.00    +0.002 A 
ATOM      8  C   UNL     1      -1.195   3.124   0.418  0.00  0.00    +0.028 A 
ATOM      9  C   UNL     1      -0.023   3.869   0.190  0.00  0.00    +0.072 A 
ATOM     10  N   UNL     1      -0.056   5.201   0.131  0.00  0.00    -0.247 NA
ATOM     11  C   UNL     1       1.026   5.927  -0.082  0.00  0.00    +0.068 A 
ATOM     12  C   UNL     1       0.911   7.402  -0.142  0.00  0.00    -0.038 C 
ATOM     13  C   UNL     1      -0.286   8.011  -0.211  0.00  0.00    +0.011 C 
ATOM     14  C   UNL     1       2.202   8.195  -0.123  0.00  0.00    -0.040 C 
ATOM     15  N   UNL     1       3.144   7.507  -1.039  0.00  0.00    +0.385 N 
ATOM     16  H   UNL     1       2.685   7.370  -1.947  0.00  0.00    -0.081 HD
ENDROOT
BRANCH  13  17
ATOM     17  C   UNL     1      -0.375   9.476  -0.100  0.00  0.00    -0.024 A 
ATOM     18  C   UNL     1       0.527  10.174   0.710  0.00  0.00    +0.015 A 
ATOM     19  C   UNL     1       0.443  11.545   0.807  0.00  0.00    -0.008 A 
ATOM     20  C   UNL     1      -0.542  12.235   0.111  0.00  0.00    +0.133 A 
ATOM     21  C   UNL     1      -1.444  11.545  -0.691  0.00  0.00    -0.008 A 
ATOM     22  C   UNL     1      -1.365  10.174  -0.799  0.00  0.00    +0.015 A 
ATOM     23  C   UNL     1      -2.509  12.299  -1.444  0.00  0.00    +0.047 C 
ATOM     24  C   UNL     1       1.418  12.299   1.675  0.00  0.00    +0.047 C 
BRANCH  20  25
ATOM     25  O   UNL     1      -0.623  13.586   0.213  0.00  0.00    -0.434 OA
BRANCH  25  26
ATOM     26  C   UNL     1      -1.450  14.109   1.255  0.00  0.00    +0.541 C 
ATOM     27  F   UNL     1      -2.765  13.666   1.073  0.00  0.00    -0.166 F 
ATOM     28  F   UNL     1      -0.976  13.666   2.494  0.00  0.00    -0.166 F 
ENDBRANCH  25  26
ENDBRANCH  20  25
ENDBRANCH  13  17
BRANCH   3  29
ATOM     29  C   UNL     1       3.732   3.306  -0.397  0.00  0.00    +0.387 C 
ATOM     30  O   UNL     1       4.101   2.988  -1.509  0.00  0.00    -0.241 OA
ATOM     31  O   UNL     1       4.516   3.059   0.670  0.00  0.00    -0.241 OA
ENDBRANCH   3  29
BRANCH  15  33
ATOM     32  C   UNL     1       3.967   9.597  -2.005  0.00  0.00    -0.017 C 
ATOM     33  C   UNL     1       4.353   8.334  -1.233  0.00  0.00    -0.081 C 
ENDBRANCH  15  33
TORSDOF 5
