REMARK  Name = ZINC16400998
REMARK  4 active torsions:
REMARK  status: ('A' for Active; 'I' for Inactive)
REMARK    1  A    between atoms: C_6  and  C_7
REMARK    2  A    between atoms: N_9  and  N_10
REMARK    3  A    between atoms: N_10  and  C_11
REMARK    4  A    between atoms: C_21  and  C_23
REMARK                            x       y       z     vdW  Elec       q    Type
REMARK                         _______ _______ _______ _____ _____    ______ ____
ROOT
ATOM      1  C   UNL     1       2.494   5.648   0.245  0.00  0.00    +0.132 C 
ATOM      2  C   UNL     1       1.385   6.154  -0.620  0.00  0.00    +0.046 C 
ATOM      3  C   UNL     1       1.842   6.534  -2.025  0.00  0.00    +0.004 C 
ATOM      4  C   UNL     1       2.991   7.541  -1.881  0.00  0.00    +0.001 C 
ATOM      5  C   UNL     1       4.190   6.806  -1.300  0.00  0.00    +0.013 C 
ATOM      6  C   UNL     1       3.894   6.172   0.025  0.00  0.00    +0.073 C 
ATOM      7  C   UNL     1       4.754   4.919   0.139  0.00  0.00    +0.110 C 
ATOM      8  N   UNL     1       4.002   3.899   0.249  0.00  0.00    -0.187 NA
ATOM      9  N   UNL     1       2.635   4.190   0.248  0.00  0.00    -0.167 N 
ATOM     10  C   UNL     1       1.629   3.292   0.254  0.00  0.00    +0.268 C 
ATOM     11  O   UNL     1       0.478   3.668   0.146  0.00  0.00    -0.268 OA
ENDROOT
BRANCH  10  12
ATOM     12  C   UNL     1       1.927   1.851   0.391  0.00  0.00    +0.039 A 
ATOM     13  C   UNL     1       0.886   0.931   0.533  0.00  0.00    +0.014 A 
ATOM     14  C   UNL     1       1.169  -0.412   0.660  0.00  0.00    +0.021 A 
ATOM     15  C   UNL     1       2.483  -0.850   0.647  0.00  0.00    +0.041 A 
ATOM     16  C   UNL     1       3.520   0.058   0.506  0.00  0.00    +0.021 A 
ATOM     17  C   UNL     1       3.249   1.404   0.379  0.00  0.00    +0.014 A 
ATOM     18 CL   UNL     1       2.832  -2.543   0.808  0.00  0.00    -0.084 Cl
ENDBRANCH  10  12
BRANCH   1  19
ATOM     19  N   UNL     1       2.139   6.013   1.624  0.00  0.00    -0.215 NA
ATOM     20  H   UNL     1       2.830   5.674   2.276  0.00  0.00    +0.147 HD
BRANCH  19  23
ATOM     21  C   UNL     1       0.446   5.653   3.214  0.00  0.00    +0.258 C 
ATOM     22  O   UNL     1       1.151   6.151   4.070  0.00  0.00    -0.269 OA
ATOM     23  N   UNL     1       0.893   5.554   1.946  0.00  0.00    -0.245 N 
ATOM     24  H   UNL     1       0.331   5.156   1.263  0.00  0.00    +0.169 HD
BRANCH  21  30
ATOM     25  C   UNL     1      -1.715   4.589   2.581  0.00  0.00    +0.014 A 
ATOM     26  C   UNL     1      -2.969   4.122   2.914  0.00  0.00    +0.021 A 
ATOM     27  C   UNL     1      -3.426   4.225   4.218  0.00  0.00    +0.041 A 
ATOM     28  C   UNL     1      -2.625   4.792   5.195  0.00  0.00    +0.021 A 
ATOM     29  C   UNL     1      -1.367   5.258   4.875  0.00  0.00    +0.014 A 
ATOM     30  C   UNL     1      -0.901   5.156   3.563  0.00  0.00    +0.038 A 
ATOM     31 CL   UNL     1      -5.009   3.642   4.628  0.00  0.00    -0.084 Cl
ENDBRANCH  21  30
ENDBRANCH  19  23
ENDBRANCH   1  19
TORSDOF 4
