REMARK  Name = ZINC51362773
REMARK  3 active torsions:
REMARK  status: ('A' for Active; 'I' for Inactive)
REMARK    1  A    between atoms: C_1  and  N_2
REMARK    2  A    between atoms: C_6  and  C_12
REMARK    3  A    between atoms: C_12  and  C_14
REMARK                            x       y       z     vdW  Elec       q    Type
REMARK                         _______ _______ _______ _____ _____    ______ ____
ROOT
ATOM      1  C   UNL     1       0.525   1.040  -0.312  0.00  0.00    +0.156 C 
ATOM      2  N   UNL     1       0.391  -0.419  -0.343  0.00  0.00    -0.277 N 
ATOM      3  C   UNL     1      -0.798  -1.141  -0.237  0.00  0.00    +0.090 A 
ATOM      4  C   UNL     1      -2.125  -0.771  -0.082  0.00  0.00    +0.030 A 
ATOM      5  C   UNL     1      -3.104  -1.743  -0.006  0.00  0.00    +0.007 A 
ATOM      6  C   UNL     1      -2.763  -3.082  -0.085  0.00  0.00    -0.026 A 
ATOM      7  C   UNL     1      -1.443  -3.457  -0.239  0.00  0.00    +0.053 A 
ATOM      8  C   UNL     1      -0.453  -2.490  -0.317  0.00  0.00    +0.157 A 
ATOM      9  O   UNL     1       0.893  -2.553  -0.464  0.00  0.00    -0.407 OA
ATOM     10  C   UNL     1       1.393  -1.308  -0.485  0.00  0.00    +0.421 A 
ATOM     11  O   UNL     1       2.570  -1.026  -0.610  0.00  0.00    -0.223 OA
ENDROOT
BRANCH   6  12
ATOM     12  C   UNL     1      -3.837  -4.135  -0.000  0.00  0.00    +0.116 C 
ATOM     13 CL   UNL     1      -4.840  -3.854   1.471  0.00  0.00    -0.116 Cl
BRANCH  12  14
ATOM     14  C   UNL     1      -4.724  -4.060  -1.244  0.00  0.00    +0.039 C 
ATOM     15  C   UNL     1      -5.856  -5.122  -1.181  0.00  0.00    +0.035 C 
ATOM     16  C   UNL     1      -6.951  -4.435  -2.036  0.00  0.00    +0.160 C 
ATOM     17  O   UNL     1      -6.842  -3.036  -1.731  0.00  0.00    -0.379 OA
ATOM     18  C   UNL     1      -5.514  -2.734  -1.276  0.00  0.00    +0.165 C 
ENDBRANCH  12  14
ENDBRANCH   6  12
TORSDOF 2
