REMARK  Name = ZINC22938426
REMARK  8 active torsions:
REMARK  status: ('A' for Active; 'I' for Inactive)
REMARK    1  A    between atoms: C_1  and  C_2
REMARK    2  A    between atoms: C_5  and  C_7
REMARK    3  A    between atoms: C_7  and  C_9
REMARK    4  A    between atoms: C_7  and  N_24
REMARK    5  A    between atoms: C_9  and  N_10
REMARK    6  A    between atoms: C_11  and  C_13
REMARK    7  A    between atoms: C_14  and  C_23
REMARK    8  A    between atoms: N_27  and  C_30
REMARK                            x       y       z     vdW  Elec       q    Type
REMARK                         _______ _______ _______ _____ _____    ______ ____
ROOT
ATOM      1  C   UNL     1       2.138  -3.304  -1.481  0.00  0.00    +0.131 C 
ENDROOT
BRANCH   1   2
ATOM      2  N   UNL     1       2.735  -2.021  -1.858  0.00  0.00    -0.307 N 
ATOM      3  C   UNL     1       3.117  -1.803  -3.132  0.00  0.00    +0.280 C 
ATOM      4  O   UNL     1       2.966  -2.673  -3.969  0.00  0.00    -0.267 OA
ATOM      5  H   UNL     1       2.856  -1.327  -1.191  0.00  0.00    +0.149 HD
BRANCH   3   6
ATOM      6  C   UNL     1       3.716  -0.516  -3.510  0.00  0.00    +0.193 A 
ATOM      7  C   UNL     1       4.133  -0.184  -4.760  0.00  0.00    +0.008 A 
ATOM      8  C   UNL     1       4.654   1.178  -4.665  0.00  0.00    +0.024 A 
ATOM      9  C   UNL     1       5.218   2.071  -5.580  0.00  0.00    +0.013 A 
ATOM     10  C   UNL     1       5.616   3.309  -5.162  0.00  0.00    +0.016 A 
ATOM     11  C   UNL     1       5.465   3.685  -3.833  0.00  0.00    +0.021 A 
ATOM     12  C   UNL     1       4.911   2.818  -2.914  0.00  0.00    +0.062 A 
ATOM     13  C   UNL     1       4.498   1.554  -3.317  0.00  0.00    +0.137 A 
ATOM     14  O   UNL     1       3.931   0.517  -2.669  0.00  0.00    -0.450 OA
ATOM     15 BR   UNL     1       6.026   5.403  -3.277  0.00  0.00    -0.050 Br
ATOM     16  C   UNL     1       4.070  -1.047  -5.994  0.00  0.00    +0.048 C 
ENDBRANCH   3   6
ENDBRANCH   1   2
BRANCH   1  17
ATOM     17  C   UNL     1       1.680  -3.245  -0.022  0.00  0.00    +0.140 C 
BRANCH  17  18
ATOM     18  N   UNL     1       2.806  -2.836   0.828  0.00  0.00    -0.295 NA
ATOM     19  C   UNL     1       3.931  -3.774   0.700  0.00  0.00    +0.066 C 
ATOM     20  C   UNL     1       5.102  -3.281   1.553  0.00  0.00    -0.064 C 
ATOM     21  N   UNL     1       4.679  -3.185   2.957  0.00  0.00    +0.379 N 
ATOM     22  C   UNL     1       3.572  -2.226   3.071  0.00  0.00    -0.064 C 
ATOM     23  C   UNL     1       2.388  -2.710   2.231  0.00  0.00    +0.066 C 
ATOM     24  C   UNL     1       5.808  -2.729   3.778  0.00  0.00    -0.096 C 
ATOM     25  H   UNL     1       4.373  -4.091   3.279  0.00  0.00    -0.082 HD
ENDBRANCH  17  18
BRANCH  17  30
ATOM     26  C   UNL     1      -0.775   1.139   0.418  0.00  0.00    +0.086 C 
ATOM     27  C   UNL     1      -0.507  -0.340   0.305  0.00  0.00    +0.102 A 
ATOM     28  C   UNL     1      -1.440  -1.310   0.299  0.00  0.00    +0.045 A 
ATOM     29  C   UNL     1      -0.751  -2.538   0.176  0.00  0.00    +0.046 A 
ATOM     30  C   UNL     1       0.560  -2.246   0.113  0.00  0.00    +0.124 A 
ATOM     31  O   UNL     1       0.702  -0.912   0.185  0.00  0.00    -0.463 OA
ENDBRANCH  17  30
ENDBRANCH   1  17
TORSDOF 5
