REMARK  Name = ZINC05445665
REMARK  5 active torsions:
REMARK  status: ('A' for Active; 'I' for Inactive)
REMARK    1  A    between atoms: C_4  and  C_7
REMARK    2  A    between atoms: C_7  and  C_9
REMARK    3  A    between atoms: C_11  and  C_23
REMARK    4  A    between atoms: C_17  and  C_18
REMARK    5  A    between atoms: C_17  and  O_22
REMARK                            x       y       z     vdW  Elec       q    Type
REMARK                         _______ _______ _______ _____ _____    ______ ____
ROOT
ATOM      1  C   UNL     1       1.529   3.824  -1.414  0.00  0.00    +0.147 C 
ATOM      2  C   UNL     1       1.647   3.256   0.004  0.00  0.00    +0.156 C 
ATOM      3  N   UNL     1       0.764   4.007   0.898  0.00  0.00    -0.289 N 
ATOM      4  C   UNL     1       0.464   5.293   0.663  0.00  0.00    +0.302 C 
ATOM      5  O   UNL     1      -0.266   5.873   1.443  0.00  0.00    -0.253 OA
ATOM      6  N   UNL     1       0.938   5.964  -0.397  0.00  0.00    -0.264 N 
ATOM      7  C   UNL     1       1.831   5.325  -1.365  0.00  0.00    +0.243 C 
ATOM      8  H   UNL     1       0.388   3.565   1.675  0.00  0.00    +0.151 HD
ATOM      9  H   UNL     1       0.684   6.891  -0.525  0.00  0.00    +0.153 HD
ENDROOT
BRANCH   2  10
ATOM     10  C   UNL     1       1.244   1.804  -0.000  0.00  0.00    +0.126 A 
ATOM     11  C   UNL     1       2.084   0.754  -0.014  0.00  0.00    +0.046 A 
ATOM     12  C   UNL     1       1.284  -0.412  -0.012  0.00  0.00    +0.041 A 
ATOM     13  C   UNL     1       0.002  -0.004   0.002  0.00  0.00    +0.195 A 
ATOM     14  O   UNL     1      -0.016   1.339   0.009  0.00  0.00    -0.466 OA
ENDBRANCH   2  10
BRANCH   7  15
ATOM     15  C   UNL     1       1.607   5.938  -2.749  0.00  0.00    +0.436 C 
ATOM     16  F   UNL     1       0.277   5.744  -3.135  0.00  0.00    -0.166 F 
ATOM     17  F   UNL     1       1.884   7.309  -2.703  0.00  0.00    -0.166 F 
ATOM     18  F   UNL     1       2.456   5.322  -3.675  0.00  0.00    -0.166 F 
ENDBRANCH   7  15
BRANCH   1  19
ATOM     19  C   UNL     1       0.130   3.607  -1.931  0.00  0.00    +0.173 C 
ATOM     20  O   UNL     1      -0.700   4.484  -1.823  0.00  0.00    -0.292 OA
BRANCH  19  24
ATOM     21  C   UNL     1      -0.905  -0.076  -3.765  0.00  0.00    +0.000 A 
ATOM     22  C   UNL     1      -1.855   0.923  -3.643  0.00  0.00    +0.001 A 
ATOM     23  C   UNL     1      -1.526   2.123  -3.048  0.00  0.00    +0.011 A 
ATOM     24  C   UNL     1      -0.229   2.329  -2.567  0.00  0.00    +0.018 A 
ATOM     25  C   UNL     1       0.727   1.316  -2.699  0.00  0.00    +0.011 A 
ATOM     26  C   UNL     1       0.381   0.120  -3.291  0.00  0.00    +0.001 A 
ENDBRANCH  19  24
ENDBRANCH   1  19
BRANCH   7  27
ATOM     27  O   UNL     1       3.189   5.526  -0.967  0.00  0.00    -0.364 OA
ATOM     28  H   UNL     1       3.450   6.456  -0.914  0.00  0.00    +0.212 HD
ENDBRANCH   7  27
TORSDOF 5
