REMARK  Name = ZINC24751679
REMARK  12 active torsions:
REMARK  status: ('A' for Active; 'I' for Inactive)
REMARK    1  A    between atoms: C_1  and  C_2
REMARK    2  A    between atoms: C_2  and  C_3
REMARK    3  A    between atoms: N_5  and  C_6
REMARK    4  A    between atoms: C_6  and  C_8
REMARK    5  A    between atoms: C_6  and  C_9
REMARK    6  A    between atoms: N_14  and  S_17
REMARK    7  A    between atoms: S_17  and  C_20
REMARK    8  A    between atoms: C_21  and  C_30
REMARK    9  A    between atoms: C_22  and  C_29
REMARK   10  A    between atoms: C_23  and  C_28
REMARK   11  A    between atoms: C_24  and  C_27
REMARK   12  A    between atoms: C_25  and  C_26
REMARK                            x       y       z     vdW  Elec       q    Type
REMARK                         _______ _______ _______ _____ _____    ______ ____
ROOT
ATOM      1  C   UNL     1      -1.055  -0.682   5.734  0.00  0.00    +0.236 C 
ATOM      2  O   UNL     1      -2.164  -1.017   6.092  0.00  0.00    -0.274 OA
ATOM      3  N   UNL     1      -0.846  -0.300   4.458  0.00  0.00    -0.297 N 
ATOM      4  C   UNL     1      -1.970  -0.185   3.518  0.00  0.00    +0.125 C 
ATOM      5  C   UNL     1      -1.672  -1.054   2.290  0.00  0.00    +0.128 C 
ATOM      6  N   UNL     1      -0.316  -0.745   1.814  0.00  0.00    -0.174 NA
ATOM      7  C   UNL     1       0.808  -0.866   2.752  0.00  0.00    +0.128 C 
ATOM      8  C   UNL     1       0.510   0.009   3.982  0.00  0.00    +0.125 C 
ENDROOT
BRANCH   6   9
ATOM      9  S   UNL     1      -0.059  -0.277   0.246  0.00  0.00    +0.061 S 
ATOM     10  O   UNL     1      -1.164  -0.758  -0.507  0.00  0.00    -0.153 OA
ATOM     11  O   UNL     1       1.283  -0.623  -0.066  0.00  0.00    -0.153 OA
BRANCH   9  12
ATOM     12  C   UNL     1      -0.149   1.482   0.206  0.00  0.00    +0.112 A 
ATOM     13  C   UNL     1       1.011   2.233   0.210  0.00  0.00    -0.021 A 
ATOM     14  C   UNL     1       0.940   3.614   0.174  0.00  0.00    -0.043 A 
ATOM     15  C   UNL     1      -0.290   4.242   0.145  0.00  0.00    -0.044 A 
ATOM     16  C   UNL     1      -1.451   3.491   0.146  0.00  0.00    -0.043 A 
ATOM     17  C   UNL     1      -1.380   2.111   0.177  0.00  0.00    -0.021 A 
ATOM     18  C   UNL     1      -2.645   1.291   0.179  0.00  0.00    +0.046 C 
ATOM     19  C   UNL     1      -2.792   4.176   0.113  0.00  0.00    +0.044 C 
ATOM     20  C   UNL     1      -0.367   5.747   0.111  0.00  0.00    +0.044 C 
ATOM     21  C   UNL     1       2.205   4.433   0.173  0.00  0.00    +0.044 C 
ATOM     22  C   UNL     1       2.353   1.548   0.248  0.00  0.00    +0.046 C 
ENDBRANCH   9  12
ENDBRANCH   6   9
BRANCH   1  23
ATOM     23  C   UNL     1       0.089  -0.691   6.714  0.00  0.00    +0.156 C 
ATOM     24  C   UNL     1       0.389   0.741   7.162  0.00  0.00    +0.038 C 
BRANCH  23  27
ATOM     25  C   UNL     1       0.690  -2.075   8.628  0.00  0.00    +0.213 C 
ATOM     26  O   UNL     1       1.857  -1.920   8.336  0.00  0.00    -0.276 OA
ATOM     27  N   UNL     1      -0.273  -1.502   7.880  0.00  0.00    -0.304 N 
ATOM     28  H   UNL     1      -1.331  -1.642   8.144  0.00  0.00    +0.149 HD
BRANCH  25  30
ATOM     29  C   UNL     1       1.588  -3.438  10.494  0.00  0.00    +0.013 C 
ATOM     30  C   UNL     1       0.317  -2.909   9.827  0.00  0.00    +0.092 C 
ENDBRANCH  25  30
ENDBRANCH  23  27
ENDBRANCH   1  23
TORSDOF 5
