REMARK  Name = ZINC33904133
REMARK  9 active torsions:
REMARK  status: ('A' for Active; 'I' for Inactive)
REMARK    1  A    between atoms: C_1  and  C_2
REMARK    2  A    between atoms: C_5  and  N_9
REMARK    3  A    between atoms: C_14  and  C_32
REMARK    4  A    between atoms: C_17  and  C_22
REMARK    5  A    between atoms: C_17  and  C_29
REMARK    6  A    between atoms: C_22  and  C_23
REMARK    7  A    between atoms: C_35  and  N_38
REMARK    8  A    between atoms: N_38  and  C_39
REMARK    9  A    between atoms: N_38  and  C_40
REMARK                            x       y       z     vdW  Elec       q    Type
REMARK                         _______ _______ _______ _____ _____    ______ ____
ROOT
ATOM      1  N   UNL     1      -0.435  -4.313   0.796  0.00  0.00    -0.210 N 
ATOM      2  C   UNL     1      -0.249  -4.796  -0.476  0.00  0.00    +0.229 C 
ATOM      3  O   UNL     1      -0.082  -4.157  -1.493  0.00  0.00    -0.275 OA
ATOM      4  C   UNL     1      -0.297  -6.230  -0.335  0.00  0.00    +0.077 C 
ATOM      5  C   UNL     1       0.123  -7.456  -1.036  0.00  0.00    -0.027 C 
ATOM      6  N   UNL     1      -0.138  -8.515  -0.001  0.00  0.00    +0.395 N 
ATOM      7  C   UNL     1      -0.131  -7.856   1.339  0.00  0.00    +0.048 C 
ATOM      8  C   UNL     1       0.384  -6.433   1.076  0.00  0.00    +0.086 C 
ATOM      9  C   UNL     1      -0.303  -5.279   1.752  0.00  0.00    +0.229 C 
ATOM     10  O   UNL     1      -0.667  -5.221   2.907  0.00  0.00    -0.275 OA
ATOM     11  H   UNL     1      -1.038  -8.941  -0.167  0.00  0.00    -0.083 HD
ATOM     12  H   UNL     1       0.585  -9.218  -0.040  0.00  0.00    -0.083 HD
ENDROOT
BRANCH   1  17
ATOM     13  C   UNL     1      -1.604   1.120   1.953  0.00  0.00    +0.045 C 
ATOM     14  C   UNL     1      -1.294  -0.322   1.646  0.00  0.00    -0.032 A 
ATOM     15  C   UNL     1      -1.126  -0.728   0.335  0.00  0.00    +0.006 A 
ATOM     16  C   UNL     1      -0.842  -2.049   0.051  0.00  0.00    +0.024 A 
ATOM     17  C   UNL     1      -0.724  -2.971   1.082  0.00  0.00    +0.045 A 
ATOM     18  C   UNL     1      -0.892  -2.562   2.398  0.00  0.00    +0.044 A 
ATOM     19  C   UNL     1      -1.172  -1.237   2.677  0.00  0.00    +0.046 A 
ATOM     20 CL   UNL     1      -1.377  -0.722   4.322  0.00  0.00    -0.083 Cl
ENDBRANCH   1  17
BRANCH   5  21
ATOM     21  C   UNL     1      -0.716  -7.687  -2.266  0.00  0.00    -0.060 A 
ATOM     22  C   UNL     1      -2.034  -8.084  -2.138  0.00  0.00    +0.004 A 
ATOM     23  C   UNL     1      -2.806  -8.296  -3.263  0.00  0.00    +0.023 A 
ATOM     24  C   UNL     1      -2.257  -8.110  -4.525  0.00  0.00    +0.029 A 
ATOM     25  C   UNL     1      -0.932  -7.711  -4.651  0.00  0.00    +0.023 A 
ATOM     26  C   UNL     1      -0.168  -7.495  -3.521  0.00  0.00    +0.004 A 
BRANCH  24  27
ATOM     27  N   UNL     1      -3.034  -8.324  -5.666  0.00  0.00    -0.336 N 
ATOM     28  C   UNL     1      -4.404  -8.827  -5.534  0.00  0.00    +0.129 C 
ATOM     29  C   UNL     1      -2.480  -8.046  -6.993  0.00  0.00    +0.129 C 
ENDBRANCH  24  27
ENDBRANCH   5  21
BRANCH   7  30
ATOM     30  C   UNL     1       0.812  -8.576   2.269  0.00  0.00    +0.346 C 
ATOM     31  O   UNL     1       1.411  -9.566   1.884  0.00  0.00    -0.248 OA
ATOM     32  O   UNL     1       0.976  -8.169   3.407  0.00  0.00    -0.248 OA
ENDBRANCH   7  30
BRANCH   7  33
ATOM     33  C   UNL     1      -1.543  -7.835   1.927  0.00  0.00    +0.003 C 
BRANCH  33  34
ATOM     34  C   UNL     1      -1.944  -9.252   2.342  0.00  0.00    -0.012 C 
ATOM     35  C   UNL     1      -1.979 -10.155   1.107  0.00  0.00    +0.003 C 
ATOM     36  C   UNL     1      -2.380 -11.572   1.522  0.00  0.00    +0.000 C 
ATOM     37  C   UNL     1      -3.766 -11.540   2.170  0.00  0.00    +0.000 C 
ATOM     38  C   UNL     1      -3.730 -10.638   3.405  0.00  0.00    +0.000 C 
ATOM     39  C   UNL     1      -3.329  -9.221   2.991  0.00  0.00    +0.003 C 
ENDBRANCH  33  34
ENDBRANCH   7  33
TORSDOF 6
