REMARK  Name = ZINC15282585
REMARK  5 active torsions:
REMARK  status: ('A' for Active; 'I' for Inactive)
REMARK    1  A    between atoms: C_1  and  C_2
REMARK    2  A    between atoms: C_7  and  N_8
REMARK    3  A    between atoms: C_12  and  C_13
REMARK    4  A    between atoms: N_18  and  C_19
REMARK    5  A    between atoms: C_26  and  C_28
REMARK                            x       y       z     vdW  Elec       q    Type
REMARK                         _______ _______ _______ _____ _____    ______ ____
ROOT
ATOM      1  N   UNL     1      -4.463   0.122   0.487  0.00  0.00    -0.216 N 
ATOM      2  C   UNL     1      -3.555  -0.875   0.497  0.00  0.00    +0.271 C 
ATOM      3  O   UNL     1      -3.779  -2.066   0.612  0.00  0.00    -0.268 OA
ATOM      4  C   UNL     1      -2.243  -0.236   0.344  0.00  0.00    +0.098 C 
ATOM      5  C   UNL     1      -1.029  -0.846   0.299  0.00  0.00    +0.057 C 
ATOM      6  N   UNL     1      -2.510   1.138   0.259  0.00  0.00    -0.292 N 
ATOM      7  C   UNL     1      -3.842   1.303   0.342  0.00  0.00    +0.148 C 
ATOM      8  S   UNL     1      -4.639   2.817   0.281  0.00  0.00    -0.018 S 
ATOM      9  H   UNL     1      -1.852   1.844   0.155  0.00  0.00    +0.154 HD
ENDROOT
BRANCH   5  10
ATOM     10  C   UNL     1       0.194  -0.040   0.253  0.00  0.00    +0.075 A 
ATOM     11  C   UNL     1       1.442  -0.642   0.313  0.00  0.00    +0.076 A 
ATOM     12  S   UNL     1       2.507   0.790   0.218  0.00  0.00    -0.059 S 
ATOM     13  C   UNL     1       1.221   2.026   0.110  0.00  0.00    +0.172 A 
ATOM     14  N   UNL     1       0.131   1.289   0.152  0.00  0.00    -0.225 NA
ATOM     15  N   UNL     1       1.341   3.407   0.006  0.00  0.00    -0.219 N 
ATOM     16  C   UNL     1       1.484   4.156   1.117  0.00  0.00    +0.223 C 
ATOM     17  O   UNL     1       1.679   5.349   1.023  0.00  0.00    -0.275 OA
ATOM     18  C   UNL     1       1.404   3.510   2.477  0.00  0.00    +0.110 C 
BRANCH  15  19
ATOM     19  C   UNL     1       1.312   4.020  -1.253  0.00  0.00    +0.045 A 
ATOM     20  C   UNL     1       1.022   3.270  -2.385  0.00  0.00    +0.024 A 
ATOM     21  C   UNL     1       0.989   3.878  -3.625  0.00  0.00    +0.003 A 
ATOM     22  C   UNL     1       1.255   5.230  -3.741  0.00  0.00    +0.020 A 
ATOM     23  C   UNL     1       1.550   5.979  -2.616  0.00  0.00    +0.043 A 
ATOM     24  C   UNL     1       1.579   5.377  -1.372  0.00  0.00    +0.044 A 
ATOM     25 CL   UNL     1       1.884   7.676  -2.767  0.00  0.00    -0.083 Cl
ENDBRANCH  15  19
ENDBRANCH   5  10
BRANCH   1  32
ATOM     26  C   UNL     1      -5.987  -0.233  -1.891  0.00  0.00    +0.045 C 
ATOM     27  C   UNL     1      -6.629  -0.226  -0.527  0.00  0.00    -0.029 A 
ATOM     28  C   UNL     1      -7.994  -0.400  -0.405  0.00  0.00    +0.005 A 
ATOM     29  C   UNL     1      -8.585  -0.389   0.845  0.00  0.00    +0.000 A 
ATOM     30  C   UNL     1      -7.811  -0.207   1.977  0.00  0.00    +0.002 A 
ATOM     31  C   UNL     1      -6.445  -0.038   1.861  0.00  0.00    +0.024 A 
ATOM     32  C   UNL     1      -5.849  -0.050   0.607  0.00  0.00    +0.046 A 
ENDBRANCH   1  32
TORSDOF 3
