REMARK  Name = ZINC32666137
REMARK  9 active torsions:
REMARK  status: ('A' for Active; 'I' for Inactive)
REMARK    1  A    between atoms: C_1  and  C_2
REMARK    2  A    between atoms: C_2  and  O_3
REMARK    3  A    between atoms: O_3  and  C_4
REMARK    4  A    between atoms: C_6  and  C_12
REMARK    5  A    between atoms: C_9  and  O_10
REMARK    6  A    between atoms: N_23  and  C_24
REMARK    7  A    between atoms: C_24  and  C_25
REMARK    8  A    between atoms: C_25  and  C_26
REMARK    9  A    between atoms: C_25  and  C_27
REMARK                            x       y       z     vdW  Elec       q    Type
REMARK                         _______ _______ _______ _____ _____    ______ ____
ROOT
ATOM      1  C   UNL     1       0.175  -0.802   1.105  0.00  0.00    +0.193 C 
ATOM      2  N   UNL     1      -0.520  -2.087   0.961  0.00  0.00    -0.321 N 
ATOM      3  C   UNL     1      -0.386  -2.784  -0.235  0.00  0.00    +0.041 A 
ATOM      4  C   UNL     1      -0.453  -4.165  -0.289  0.00  0.00    +0.024 A 
ATOM      5  C   UNL     1      -0.310  -4.809  -1.504  0.00  0.00    +0.002 A 
ATOM      6  C   UNL     1      -0.102  -4.083  -2.666  0.00  0.00    +0.001 A 
ATOM      7  C   UNL     1      -0.035  -2.705  -2.629  0.00  0.00    +0.015 A 
ATOM      8  C   UNL     1      -0.178  -2.044  -1.413  0.00  0.00    +0.058 A 
ATOM      9  C   UNL     1      -0.129  -0.574  -1.316  0.00  0.00    +0.250 C 
ATOM     10  O   UNL     1      -0.205   0.111  -2.319  0.00  0.00    -0.270 OA
ATOM     11  N   UNL     1       0.007   0.004  -0.105  0.00  0.00    -0.275 N 
ATOM     12  H   UNL     1      -1.129  -2.478   1.789  0.00  0.00    +0.148 HD
ENDROOT
BRANCH   1  15
ATOM     13  C   UNL     1       3.567  -0.941   2.765  0.00  0.00    +0.164 A 
ATOM     14  C   UNL     1       2.217  -0.712   2.548  0.00  0.00    +0.056 A 
ATOM     15  C   UNL     1       1.643  -1.052   1.337  0.00  0.00    -0.004 A 
ATOM     16  C   UNL     1       2.412  -1.626   0.342  0.00  0.00    +0.031 A 
ATOM     17  C   UNL     1       3.760  -1.853   0.549  0.00  0.00    +0.086 A 
ATOM     18  C   UNL     1       4.341  -1.514   1.762  0.00  0.00    +0.177 A 
ATOM     19 CL   UNL     1       4.723  -2.569  -0.705  0.00  0.00    -0.080 Cl
BRANCH  18  20
ATOM     20  O   UNL     1       5.666  -1.742   1.970  0.00  0.00    -0.502 OA
ATOM     21  H   UNL     1       6.278  -2.195   1.176  0.00  0.00    +0.292 HD
ENDBRANCH  18  20
BRANCH  13  22
ATOM     22  O   UNL     1       4.132  -0.607   3.955  0.00  0.00    -0.489 OA
BRANCH  22  24
ATOM     23  C   UNL     1       4.084   0.283   6.202  0.00  0.00    +0.048 C 
ATOM     24  C   UNL     1       3.276  -0.023   4.939  0.00  0.00    +0.226 C 
ENDBRANCH  22  24
ENDBRANCH  13  22
ENDBRANCH   1  15
BRANCH  11  25
ATOM     25  C   UNL     1      -0.020   1.465   0.003  0.00  0.00    +0.113 C 
BRANCH  25  26
ATOM     26  C   UNL     1       1.412   2.003  -0.001  0.00  0.00    +0.000 C 
ATOM     27  C   UNL     1       2.059   1.725  -1.359  0.00  0.00    +0.009 C 
ATOM     28  C   UNL     1       1.391   3.511   0.254  0.00  0.00    +0.009 C 
ENDBRANCH  25  26
ENDBRANCH  11  25
TORSDOF 6
