REMARK  Name = ZINC63092433
REMARK  9 active torsions:
REMARK  status: ('A' for Active; 'I' for Inactive)
REMARK    1  A    between atoms: C_1  and  C_2
REMARK    2  A    between atoms: C_2  and  C_4
REMARK    3  A    between atoms: C_2  and  N_8
REMARK    4  A    between atoms: C_4  and  C_5
REMARK    5  A    between atoms: N_8  and  C_9
REMARK    6  A    between atoms: N_13  and  C_17
REMARK    7  A    between atoms: C_17  and  C_18
REMARK    8  A    between atoms: C_17  and  C_19
REMARK    9  A    between atoms: C_17  and  C_20
REMARK                            x       y       z     vdW  Elec       q    Type
REMARK                         _______ _______ _______ _____ _____    ______ ____
ROOT
ATOM      1  N   UNL     1       0.688  -0.476  -1.203  0.00  0.00    -0.311 N 
ATOM      2  C   UNL     1       2.061  -0.167  -1.610  0.00  0.00    +0.131 C 
ATOM      3  C   UNL     1      -0.039  -1.441  -1.889  0.00  0.00    +0.187 A 
ATOM      4  C   UNL     1       0.600  -2.251  -2.933  0.00  0.00    +0.292 A 
ATOM      5  O   UNL     1       1.775  -2.090  -3.216  0.00  0.00    -0.264 OA
ATOM      6  N   UNL     1      -0.146  -3.178  -3.574  0.00  0.00    -0.306 N 
ATOM      7  C   UNL     1      -1.457  -3.329  -3.230  0.00  0.00    +0.109 A 
ATOM      8  C   UNL     1      -2.012  -2.567  -2.264  0.00  0.00    +0.131 A 
ATOM      9  N   UNL     1      -1.308  -1.646  -1.607  0.00  0.00    -0.234 NA
ENDROOT
BRANCH   6  10
ATOM     10  C   UNL     1       0.446  -4.010  -4.625  0.00  0.00    +0.040 C 
ATOM     11  C   UNL     1       1.607  -4.817  -4.042  0.00  0.00    +0.034 C 
ATOM     12  C   UNL     1      -0.614  -4.966  -5.176  0.00  0.00    +0.034 C 
ATOM     13  C   UNL     1       0.962  -3.115  -5.753  0.00  0.00    +0.034 C 
ENDBRANCH   6  10
BRANCH   1  15
ATOM     14  C   UNL     1       0.050   1.732  -0.370  0.00  0.00    +0.028 C 
ATOM     15  C   UNL     1       0.081   0.232  -0.073  0.00  0.00    +0.078 C 
BRANCH  15  16
ATOM     16  C   UNL     1       0.907  -0.021   1.190  0.00  0.00    +0.090 C 
BRANCH  16  17
ATOM     17  C   UNL     1       0.837  -1.482   1.551  0.00  0.00    +0.064 C 
ATOM     18  N   UNL     1      -0.117  -1.919   2.355  0.00  0.00    -0.391 N 
ATOM     19  N   UNL     1       1.730  -2.327   1.065  0.00  0.00    -0.348 N 
ATOM     20  H   UNL     1      -0.772  -1.300   2.711  0.00  0.00    +0.157 HD
ATOM     21  H   UNL     1       2.430  -2.006   0.476  0.00  0.00    +0.143 HD
ATOM     22  H   UNL     1       1.685  -3.268   1.298  0.00  0.00    +0.143 HD
ATOM     23  H   UNL     1      -0.162  -2.860   2.587  0.00  0.00    +0.157 HD
ENDBRANCH  16  17
ENDBRANCH  15  16
ENDBRANCH   1  15
TORSDOF 4
