REMARK  Name = ZINC07457137
REMARK  9 active torsions:
REMARK  status: ('A' for Active; 'I' for Inactive)
REMARK    1  A    between atoms: C_1  and  C_2
REMARK    2  A    between atoms: C_2  and  C_3
REMARK    3  A    between atoms: C_3  and  N_4
REMARK    4  A    between atoms: C_5  and  C_7
REMARK    5  A    between atoms: C_7  and  C_9
REMARK    6  A    between atoms: C_7  and  S_10
REMARK    7  A    between atoms: S_10  and  C_11
REMARK    8  A    between atoms: C_14  and  C_17
REMARK    9  A    between atoms: N_15  and  N_16
REMARK                            x       y       z     vdW  Elec       q    Type
REMARK                         _______ _______ _______ _____ _____    ______ ____
ROOT
ATOM      1  C   UNL     1      -3.881  -6.566   0.745  0.00  0.00    +0.209 A 
ATOM      2  N   UNL     1      -2.846  -7.231   0.284  0.00  0.00    -0.121 NA
ATOM      3  N   UNL     1      -3.043  -8.495   0.408  0.00  0.00    -0.127 NA
ATOM      4  C   UNL     1      -4.216  -8.714   0.955  0.00  0.00    +0.183 A 
ATOM      5  N   UNL     1      -4.786  -7.485   1.193  0.00  0.00    -0.224 N 
ENDROOT
BRANCH   4   6
ATOM      6  C   UNL     1      -4.809 -10.032   1.264  0.00  0.00    +0.040 A 
ATOM      7  C   UNL     1      -6.129 -10.309   0.903  0.00  0.00    +0.033 A 
ATOM      8  C   UNL     1      -6.677 -11.542   1.194  0.00  0.00    +0.042 A 
ATOM      9  C   UNL     1      -5.921 -12.504   1.842  0.00  0.00    +0.021 A 
ATOM     10  C   UNL     1      -4.613 -12.236   2.203  0.00  0.00    +0.022 A 
ATOM     11  C   UNL     1      -4.050 -11.009   1.912  0.00  0.00    +0.052 A 
ATOM     12 CL   UNL     1      -2.406 -10.678   2.358  0.00  0.00    -0.083 Cl
ATOM     13 CL   UNL     1      -8.319 -11.887   0.746  0.00  0.00    -0.084 Cl
ENDBRANCH   4   6
BRANCH   5  14
ATOM     14  N   UNL     1      -6.005  -7.236   1.758  0.00  0.00    -0.295 N 
ATOM     15  H   UNL     1      -6.739  -7.276   1.066  0.00  0.00    +0.163 HD
ATOM     16  H   UNL     1      -6.189  -7.873   2.517  0.00  0.00    +0.163 HD
ENDBRANCH   5  14
BRANCH   1  17
ATOM     17  S   UNL     1      -4.063  -4.813   0.785  0.00  0.00    -0.072 S 
BRANCH  17  18
ATOM     18  C   UNL     1      -2.525  -4.195   0.049  0.00  0.00    +0.137 C 
ATOM     19  C   UNL     1      -2.453  -4.625  -1.418  0.00  0.00    +0.029 C 
BRANCH  18  21
ATOM     20  N   UNL     1      -1.325  -2.032   0.033  0.00  0.00    -0.314 N 
ATOM     21  C   UNL     1      -2.497  -2.691   0.134  0.00  0.00    +0.226 C 
ATOM     22  O   UNL     1      -3.528  -2.073   0.292  0.00  0.00    -0.275 OA
ATOM     23  H   UNL     1      -0.500  -2.526  -0.094  0.00  0.00    +0.149 HD
BRANCH  20  24
ATOM     24  C   UNL     1      -1.297  -0.570   0.115  0.00  0.00    +0.104 C 
BRANCH  24  26
ATOM     25  C   UNL     1       0.173   1.449   0.059  0.00  0.00    +0.005 C 
ATOM     26  C   UNL     1       0.144  -0.078  -0.027  0.00  0.00    +0.015 C 
ENDBRANCH  24  26
ENDBRANCH  20  24
ENDBRANCH  18  21
ENDBRANCH  17  18
ENDBRANCH   1  17
TORSDOF 7
