REMARK  Name = ZINC03401193
REMARK  10 active torsions:
REMARK  status: ('A' for Active; 'I' for Inactive)
REMARK    1  A    between atoms: C_1  and  C_2
REMARK    2  A    between atoms: C_2  and  O_3
REMARK    3  A    between atoms: O_3  and  C_4
REMARK    4  A    between atoms: C_4  and  C_6
REMARK    5  A    between atoms: C_7  and  C_29
REMARK    6  A    between atoms: C_10  and  N_11
REMARK    7  A    between atoms: C_12  and  C_14
REMARK    8  A    between atoms: C_14  and  N_15
REMARK    9  A    between atoms: C_23  and  C_25
REMARK   10  A    between atoms: C_32  and  C_34
REMARK                            x       y       z     vdW  Elec       q    Type
REMARK                         _______ _______ _______ _____ _____    ______ ____
ROOT
ATOM      1  N   UNL     1       4.168   1.043  -1.699  0.00  0.00    -0.278 N 
ATOM      2  C   UNL     1       2.908   1.446  -1.439  0.00  0.00    +0.236 C 
ATOM      3  O   UNL     1       2.149   1.692  -2.352  0.00  0.00    -0.274 OA
ATOM      4  H   UNL     1       4.775   0.847  -0.969  0.00  0.00    +0.155 HD
ENDROOT
BRANCH   1   9
ATOM      5  C   UNL     1       5.843   0.510  -3.471  0.00  0.00    +0.098 A 
ATOM      6  C   UNL     1       6.020   0.456  -4.911  0.00  0.00    +0.040 A 
ATOM      7  C   UNL     1       4.947   0.801  -5.671  0.00  0.00    +0.059 A 
ATOM      8  S   UNL     1       3.698   1.192  -4.464  0.00  0.00    -0.080 S 
ATOM      9  C   UNL     1       4.595   0.909  -3.010  0.00  0.00    +0.087 A 
BRANCH   6  10
ATOM     10  C   UNL     1       7.302   0.047  -5.519  0.00  0.00    +0.137 A 
ATOM     11  C   UNL     1       7.460  -0.888  -6.495  0.00  0.00    +0.050 A 
ATOM     12  C   UNL     1       8.841  -0.956  -6.771  0.00  0.00    +0.045 A 
ATOM     13  C   UNL     1       9.451  -0.070  -5.960  0.00  0.00    +0.103 A 
ATOM     14  O   UNL     1       8.517   0.539  -5.209  0.00  0.00    -0.460 OA
ATOM     15  C   UNL     1      10.932   0.199  -5.909  0.00  0.00    +0.086 C 
ENDBRANCH   6  10
BRANCH   5  16
ATOM     16  C   UNL     1       6.925   0.162  -2.551  0.00  0.00    +0.342 C 
ATOM     17  O   UNL     1       7.053  -0.986  -2.170  0.00  0.00    -0.245 OA
BRANCH  16  18
ATOM     18  O   UNL     1       7.780   1.114  -2.125  0.00  0.00    -0.461 OA
BRANCH  18  20
ATOM     19  C   UNL     1       9.678   1.909  -0.857  0.00  0.00    +0.048 C 
ATOM     20  C   UNL     1       8.813   0.702  -1.227  0.00  0.00    +0.229 C 
ENDBRANCH  18  20
ENDBRANCH  16  18
ENDBRANCH   5  16
ENDBRANCH   1   9
BRANCH   2  21
ATOM     21  C   UNL     1       2.443   1.592  -0.013  0.00  0.00    +0.214 C 
BRANCH  21  22
ATOM     22  N   UNL     1       1.048   2.039   0.003  0.00  0.00    -0.215 N 
ATOM     23  C   UNL     1      -0.014   1.208   0.009  0.00  0.00    +0.247 C 
ATOM     24  O   UNL     1       0.002  -0.004   0.002  0.00  0.00    -0.273 OA
ATOM     25  C   UNL     1      -1.230   2.107   0.018  0.00  0.00    +0.115 C 
ATOM     26  C   UNL     1      -2.058   1.866   1.276  0.00  0.00    +0.035 C 
ATOM     27  C   UNL     1      -3.268   2.804   1.280  0.00  0.00    +0.003 C 
ATOM     28  C   UNL     1      -4.116   2.547   0.033  0.00  0.00    +0.000 C 
ATOM     29  C   UNL     1      -3.279   2.817  -1.219  0.00  0.00    +0.006 C 
ATOM     30  C   UNL     1      -2.069   1.879  -1.234  0.00  0.00    +0.018 C 
ATOM     31  C   UNL     1      -1.220   2.162  -2.475  0.00  0.00    +0.010 C 
ATOM     32  N   UNL     1      -0.670   3.464   0.026  0.00  0.00    -0.285 N 
ATOM     33  C   UNL     1       0.670   3.323   0.013  0.00  0.00    +0.310 C 
ATOM     34  O   UNL     1       1.448   4.257   0.010  0.00  0.00    -0.252 OA
ATOM     35  H   UNL     1      -1.166   4.297   0.034  0.00  0.00    +0.151 HD
ENDBRANCH  21  22
ENDBRANCH   2  21
TORSDOF 7
