REMARK  Name = ZINC36346723
REMARK  16 active torsions:
REMARK  status: ('A' for Active; 'I' for Inactive)
REMARK    1  A    between atoms: C_1  and  C_2
REMARK    2  A    between atoms: C_3  and  C_22
REMARK    3  A    between atoms: C_4  and  O_14
REMARK    4  A    between atoms: N_5  and  C_7
REMARK    5  A    between atoms: O_14  and  C_15
REMARK    6  A    between atoms: C_22  and  N_23
REMARK    7  A    between atoms: N_23  and  C_24
REMARK    8  A    between atoms: N_23  and  C_34
REMARK    9  A    between atoms: C_24  and  C_25
REMARK   10  A    between atoms: C_25  and  C_27
REMARK   11  A    between atoms: C_25  and  O_33
REMARK   12  A    between atoms: C_27  and  O_28
REMARK   13  A    between atoms: O_28  and  C_29
REMARK   14  A    between atoms: C_29  and  C_30
REMARK   15  A    between atoms: C_30  and  C_31
REMARK   16  A    between atoms: C_30  and  C_32
REMARK                            x       y       z     vdW  Elec       q    Type
REMARK                         _______ _______ _______ _____ _____    ______ ____
ROOT
ATOM      1  C   UNL     1       0.808   1.430  -0.060  0.00  0.00    +0.068 C 
ATOM      2  C   UNL     1       0.424  -0.027  -0.060  0.00  0.00    +0.065 A 
ATOM      3  C   UNL     1      -0.036  -0.751  -1.164  0.00  0.00    +0.021 A 
ATOM      4  C   UNL     1      -0.274  -2.027  -0.756  0.00  0.00    +0.225 A 
ATOM      5  N   UNL     1       0.029  -2.096   0.567  0.00  0.00    -0.200 N 
ATOM      6  N   UNL     1       0.469  -0.830   0.973  0.00  0.00    -0.168 NA
ENDROOT
BRANCH   5   7
ATOM      7  C   UNL     1      -0.074  -3.235   1.380  0.00  0.00    +0.069 A 
ATOM      8  C   UNL     1      -1.187  -4.059   1.283  0.00  0.00    +0.031 A 
ATOM      9  C   UNL     1      -1.287  -5.179   2.084  0.00  0.00    +0.040 A 
ATOM     10  C   UNL     1      -0.279  -5.481   2.984  0.00  0.00    +0.124 A 
ATOM     11  C   UNL     1       0.832  -4.659   3.083  0.00  0.00    +0.040 A 
ATOM     12  C   UNL     1       0.939  -3.542   2.279  0.00  0.00    +0.031 A 
ATOM     13  F   UNL     1      -0.378  -6.577   3.767  0.00  0.00    -0.205 F 
ENDBRANCH   5   7
BRANCH   4  14
ATOM     14  O   UNL     1      -0.731  -3.044  -1.530  0.00  0.00    -0.438 OA
BRANCH  14  15
ATOM     15  C   UNL     1      -2.075  -3.182  -1.675  0.00  0.00    +0.131 A 
ATOM     16  C   UNL     1      -2.933  -2.236  -1.131  0.00  0.00    +0.049 A 
ATOM     17  C   UNL     1      -4.299  -2.377  -1.279  0.00  0.00    +0.042 A 
ATOM     18  C   UNL     1      -4.812  -3.462  -1.970  0.00  0.00    +0.124 A 
ATOM     19  C   UNL     1      -3.958  -4.406  -2.514  0.00  0.00    +0.042 A 
ATOM     20  C   UNL     1      -2.591  -4.265  -2.372  0.00  0.00    +0.049 A 
ATOM     21  F   UNL     1      -6.149  -3.599  -2.114  0.00  0.00    -0.205 F 
ENDBRANCH  14  15
ENDBRANCH   4  14
BRANCH   3  22
ATOM     22  C   UNL     1      -0.234  -0.214  -2.558  0.00  0.00    -0.035 C 
BRANCH  22  23
ATOM     23  N   UNL     1       1.047  -0.236  -3.277  0.00  0.00    +0.386 N 
ATOM     24  H   UNL     1       1.743   0.259  -2.740  0.00  0.00    -0.081 HD
BRANCH  23  25
ATOM     25  C   UNL     1       0.885   0.413  -4.585  0.00  0.00    -0.068 C 
ATOM     26  C   UNL     1       1.831   1.567  -4.923  0.00  0.00    -0.017 C 
ATOM     27  C   UNL     1       0.363   1.851  -4.601  0.00  0.00    -0.017 C 
ENDBRANCH  23  25
BRANCH  23  28
ATOM     28  C   UNL     1       1.476  -1.628  -3.470  0.00  0.00    -0.044 C 
BRANCH  28  29
ATOM     29  C   UNL     1       2.866  -1.649  -4.108  0.00  0.00    +0.124 C 
BRANCH  29  30
ATOM     30  O   UNL     1       2.821  -0.985  -5.372  0.00  0.00    -0.391 OA
ATOM     31  H   UNL     1       2.211  -1.386  -6.006  0.00  0.00    +0.210 HD
ENDBRANCH  29  30
BRANCH  29  32
ATOM     32  C   UNL     1       3.313  -3.099  -4.309  0.00  0.00    +0.189 C 
BRANCH  32  33
ATOM     33  O   UNL     1       4.657  -3.120  -4.796  0.00  0.00    -0.377 OA
BRANCH  33  34
ATOM     34  C   UNL     1       5.173  -4.434  -5.019  0.00  0.00    +0.163 C 
BRANCH  34  35
ATOM     35  C   UNL     1       6.610  -4.336  -5.536  0.00  0.00    +0.009 C 
ATOM     36  C   UNL     1       7.502  -3.729  -4.451  0.00  0.00    +0.009 C 
ATOM     37  C   UNL     1       7.120  -5.733  -5.892  0.00  0.00    +0.009 C 
ENDBRANCH  34  35
ENDBRANCH  33  34
ENDBRANCH  32  33
ENDBRANCH  29  32
ENDBRANCH  28  29
ENDBRANCH  23  28
ENDBRANCH  22  23
ENDBRANCH   3  22
TORSDOF 13
