REMARK  Name = ZINC09950936
REMARK  3 active torsions:
REMARK  status: ('A' for Active; 'I' for Inactive)
REMARK    1  A    between atoms: C_6  and  S_7
REMARK    2  A    between atoms: S_7  and  N_10
REMARK    3  A    between atoms: C_16  and  C_18
REMARK                            x       y       z     vdW  Elec       q    Type
REMARK                         _______ _______ _______ _____ _____    ______ ____
ROOT
ATOM      1  N   UNL     1       4.071  -1.001  -1.646  0.00  0.00    -0.174 NA
ATOM      2  C   UNL     1       3.639  -2.206  -2.369  0.00  0.00    +0.128 C 
ATOM      3  C   UNL     1       2.976  -1.769  -3.686  0.00  0.00    +0.125 C 
ATOM      4  N   UNL     1       3.866  -0.817  -4.365  0.00  0.00    -0.295 N 
ATOM      5  C   UNL     1       4.303   0.385  -3.640  0.00  0.00    +0.125 C 
ATOM      6  C   UNL     1       4.961  -0.049  -2.325  0.00  0.00    +0.128 C 
ATOM      7  C   UNL     1       4.274  -1.041  -5.630  0.00  0.00    +0.248 C 
ATOM      8  O   UNL     1       4.933  -0.202  -6.214  0.00  0.00    -0.270 OA
ENDROOT
BRANCH   7   9
ATOM      9  C   UNL     1       3.923  -2.303  -6.304  0.00  0.00    +0.051 C 
ATOM     10  C   UNL     1       2.683  -2.471  -6.868  0.00  0.00    +0.089 C 
ATOM     11  N   UNL     1       2.335  -3.627  -7.494  0.00  0.00    -0.288 N 
ATOM     12  C   UNL     1       0.954  -3.691  -7.983  0.00  0.00    +0.136 C 
ATOM     13  C   UNL     1       0.891  -4.438  -9.319  0.00  0.00    +0.212 C 
ATOM     14  S   UNL     1       1.596  -6.093  -9.035  0.00  0.00    +0.073 S 
ATOM     15  O   UNL     1       1.960  -6.694 -10.270  0.00  0.00    -0.151 OA
ATOM     16  O   UNL     1       0.825  -6.803  -8.076  0.00  0.00    -0.151 OA
ATOM     17  N   UNL     1       3.030  -5.765  -8.277  0.00  0.00    -0.118 NA
ATOM     18  C   UNL     1       3.240  -4.644  -7.626  0.00  0.00    +0.147 C 
ATOM     19  C   UNL     1       4.534  -4.527  -7.033  0.00  0.00    +0.046 C 
ATOM     20  C   UNL     1       4.894  -3.396  -6.389  0.00  0.00    +0.018 C 
ENDBRANCH   7   9
BRANCH   1  21
ATOM     21  S   UNL     1       3.570  -0.726  -0.092  0.00  0.00    +0.061 S 
ATOM     22  O   UNL     1       4.539   0.127   0.502  0.00  0.00    -0.153 OA
ATOM     23  O   UNL     1       3.232  -1.992   0.457  0.00  0.00    -0.153 OA
BRANCH  21  29
ATOM     24  C   UNL     1       0.859  -0.458  -0.241  0.00  0.00    +0.032 A 
ATOM     25  C   UNL     1      -0.318   0.264  -0.315  0.00  0.00    +0.051 A 
ATOM     26  C   UNL     1      -0.283   1.650  -0.331  0.00  0.00    +0.162 A 
ATOM     27  C   UNL     1       0.939   2.311  -0.269  0.00  0.00    +0.164 A 
ATOM     28  C   UNL     1       2.115   1.581  -0.197  0.00  0.00    +0.078 A 
ATOM     29  C   UNL     1       2.073   0.199  -0.183  0.00  0.00    +0.109 A 
ATOM     30  O   UNL     1       0.996   3.671  -0.275  0.00  0.00    -0.485 OA
ATOM     31  C   UNL     1      -0.175   4.362  -0.725  0.00  0.00    +0.270 C 
ATOM     32  C   UNL     1      -1.397   3.731  -0.045  0.00  0.00    +0.270 C 
ATOM     33  O   UNL     1      -1.449   2.347  -0.412  0.00  0.00    -0.485 OA
ENDBRANCH  21  29
ENDBRANCH   1  21
TORSDOF 3
