REMARK  Name = ZINC39661750
REMARK  8 active torsions:
REMARK  status: ('A' for Active; 'I' for Inactive)
REMARK    1  A    between atoms: C_3  and  O_37
REMARK    2  A    between atoms: C_4  and  O_36
REMARK    3  A    between atoms: C_6  and  C_7
REMARK    4  A    between atoms: C_7  and  C_8
REMARK    5  A    between atoms: C_8  and  N_9
REMARK    6  A    between atoms: C_10  and  C_12
REMARK    7  A    between atoms: C_23  and  C_25
REMARK    8  A    between atoms: C_29  and  C_31
REMARK                            x       y       z     vdW  Elec       q    Type
REMARK                         _______ _______ _______ _____ _____    ______ ____
ROOT
ATOM      1  C   UNL     1      -4.293  -3.212  -2.722  0.00  0.00    +0.100 C 
ATOM      2  C   UNL     1      -4.389  -4.591  -2.032  0.00  0.00    +0.121 C 
ATOM      3  N   UNL     1      -5.337  -5.363  -2.869  0.00  0.00    -0.296 N 
ATOM      4  C   UNL     1      -4.995  -4.983  -4.261  0.00  0.00    +0.115 C 
ATOM      5  C   UNL     1      -4.691  -3.473  -4.185  0.00  0.00    -0.004 C 
ATOM      6  C   UNL     1      -3.536  -3.121  -5.117  0.00  0.00    -0.010 C 
ATOM      7  C   UNL     1      -3.975  -3.333  -6.569  0.00  0.00    -0.082 C 
ATOM      8  N   UNL     1      -5.139  -2.488  -6.859  0.00  0.00    +0.379 N 
ATOM      9  C   UNL     1      -6.274  -2.896  -6.022  0.00  0.00    -0.082 C 
ATOM     10  C   UNL     1      -5.933  -2.665  -4.547  0.00  0.00    -0.010 C 
ATOM     11  C   UNL     1      -6.295  -6.218  -2.459  0.00  0.00    +0.247 C 
ATOM     12  O   UNL     1      -6.542  -6.330  -1.274  0.00  0.00    -0.270 OA
ATOM     13  H   UNL     1      -4.910  -1.525  -6.666  0.00  0.00    -0.086 HD
ATOM     14  H   UNL     1      -5.389  -2.584  -7.832  0.00  0.00    -0.086 HD
ENDROOT
BRANCH  11  15
ATOM     15  C   UNL     1      -7.045  -7.018  -3.448  0.00  0.00    +0.038 A 
ATOM     16  C   UNL     1      -6.513  -7.236  -4.721  0.00  0.00    +0.016 A 
ATOM     17  C   UNL     1      -7.216  -7.983  -5.641  0.00  0.00    +0.039 A 
ATOM     18  C   UNL     1      -8.450  -8.519  -5.304  0.00  0.00    +0.135 A 
ATOM     19  C   UNL     1      -8.983  -8.306  -4.042  0.00  0.00    +0.091 A 
ATOM     20  C   UNL     1      -8.285  -7.565  -3.113  0.00  0.00    +0.028 A 
ATOM     21  F   UNL     1      -9.136  -9.251  -6.210  0.00  0.00    -0.205 F 
BRANCH  19  22
ATOM     22  C   UNL     1     -10.325  -8.891  -3.683  0.00  0.00    +0.420 C 
ATOM     23  F   UNL     1     -10.648  -8.543  -2.367  0.00  0.00    -0.166 F 
ATOM     24  F   UNL     1     -11.300  -8.388  -4.552  0.00  0.00    -0.166 F 
ATOM     25  F   UNL     1     -10.272 -10.284  -3.798  0.00  0.00    -0.166 F 
ENDBRANCH  19  22
ENDBRANCH  11  15
BRANCH   1  27
ATOM     26  N   UNL     1      -2.662  -1.356  -2.608  0.00  0.00    -0.315 N 
ATOM     27  C   UNL     1      -2.883  -2.685  -2.648  0.00  0.00    +0.218 C 
ATOM     28  O   UNL     1      -1.948  -3.457  -2.624  0.00  0.00    -0.275 OA
ATOM     29  H   UNL     1      -3.410  -0.739  -2.627  0.00  0.00    +0.149 HD
BRANCH  26  30
ATOM     30  C   UNL     1      -1.291  -0.844  -2.536  0.00  0.00    +0.109 C 
BRANCH  30  31
ATOM     31  C   UNL     1      -1.319   0.685  -2.503  0.00  0.00    +0.054 C 
BRANCH  31  37
ATOM     32  C   UNL     1       0.789   1.480  -3.591  0.00  0.00    +0.007 A 
ATOM     33  C   UNL     1       2.083   1.964  -3.528  0.00  0.00    +0.049 A 
ATOM     34  C   UNL     1       2.682   2.181  -2.298  0.00  0.00    +0.158 A 
ATOM     35  C   UNL     1       1.979   1.911  -1.127  0.00  0.00    +0.158 A 
ATOM     36  C   UNL     1       0.683   1.427  -1.197  0.00  0.00    +0.052 A 
ATOM     37  C   UNL     1       0.091   1.212  -2.429  0.00  0.00    -0.042 A 
BRANCH  35  38
ATOM     38  O   UNL     1       2.563   2.122   0.083  0.00  0.00    -0.503 OA
ATOM     39  H   UNL     1       2.423   3.010   0.438  0.00  0.00    +0.292 HD
ENDBRANCH  35  38
BRANCH  34  40
ATOM     40  O   UNL     1       3.955   2.656  -2.234  0.00  0.00    -0.503 OA
ATOM     41  H   UNL     1       4.014   3.621  -2.211  0.00  0.00    +0.292 HD
ENDBRANCH  34  40
ENDBRANCH  31  37
ENDBRANCH  30  31
ENDBRANCH  26  30
ENDBRANCH   1  27
TORSDOF 8
