REMARK  Name = ZINC33026453
REMARK  8 active torsions:
REMARK  status: ('A' for Active; 'I' for Inactive)
REMARK    1  A    between atoms: C_1  and  C_2
REMARK    2  A    between atoms: C_10  and  C_12
REMARK    3  A    between atoms: C_15  and  S_18
REMARK    4  A    between atoms: S_18  and  C_19
REMARK    5  A    between atoms: C_23  and  C_26
REMARK    6  A    between atoms: C_29  and  O_34
REMARK    7  A    between atoms: C_30  and  O_32
REMARK    8  A    between atoms: O_32  and  C_33
REMARK                            x       y       z     vdW  Elec       q    Type
REMARK                         _______ _______ _______ _____ _____    ______ ____
ROOT
ATOM      1  C   UNL     1      12.098   5.519   1.651  0.00  0.00    +0.069 C 
ATOM      2  C   UNL     1      11.335   4.234   1.459  0.00  0.00    +0.087 A 
ATOM      3  C   UNL     1       9.997   4.101   1.096  0.00  0.00    +0.049 A 
ATOM      4  C   UNL     1       9.785   2.747   1.057  0.00  0.00    +0.226 A 
ATOM      5  O   UNL     1      10.942   2.179   1.377  0.00  0.00    -0.339 OA
ATOM      6  N   UNL     1      11.796   3.016   1.600  0.00  0.00    -0.081 NA
ATOM      7  N   UNL     1       8.548   2.228   0.732  0.00  0.00    -0.286 N 
ATOM      8  C   UNL     1       7.461   3.069   0.734  0.00  0.00    +0.019 C 
ATOM      9  C   UNL     1       7.583   4.413   0.763  0.00  0.00    +0.024 C 
ATOM     10  C   UNL     1       8.931   5.103   0.789  0.00  0.00    +0.091 C 
ATOM     11  C   UNL     1       6.446   5.242   0.768  0.00  0.00    +0.162 C 
ATOM     12  O   UNL     1       6.591   6.448   0.822  0.00  0.00    -0.292 OA
ATOM     13  C   UNL     1       5.057   4.671   0.706  0.00  0.00    +0.088 C 
ATOM     14  C   UNL     1       5.106   3.325  -0.024  0.00  0.00    +0.032 C 
ATOM     15  C   UNL     1       6.096   2.418   0.708  0.00  0.00    +0.059 C 
ATOM     16  H   UNL     1       8.449   1.162   0.478  0.00  0.00    +0.155 HD
ENDROOT
BRANCH  10  17
ATOM     17  C   UNL     1       9.201   5.728  -0.556  0.00  0.00    -0.035 A 
ATOM     18  C   UNL     1       9.258   4.933  -1.687  0.00  0.00    +0.005 A 
ATOM     19  C   UNL     1       9.501   5.502  -2.921  0.00  0.00    +0.015 A 
ATOM     20  C   UNL     1       9.698   6.874  -3.025  0.00  0.00    +0.008 A 
ATOM     21  C   UNL     1       9.646   7.668  -1.886  0.00  0.00    +0.015 A 
ATOM     22  C   UNL     1       9.398   7.093  -0.656  0.00  0.00    +0.005 A 
BRANCH  20  23
ATOM     23  S   UNL     1      10.015   7.604  -4.597  0.00  0.00    -0.129 S 
ATOM     24  C   UNL     1       9.988   6.200  -5.746  0.00  0.00    +0.090 C 
ENDBRANCH  20  23
ENDBRANCH  10  17
BRANCH  14  25
ATOM     25  C   UNL     1       3.738   2.693  -0.018  0.00  0.00    -0.040 A 
ATOM     26  C   UNL     1       3.120   2.397   1.183  0.00  0.00    +0.008 A 
ATOM     27  C   UNL     1       1.863   1.823   1.193  0.00  0.00    +0.049 A 
ATOM     28  C   UNL     1       1.224   1.533  -0.001  0.00  0.00    +0.158 A 
ATOM     29  C   UNL     1       1.845   1.831  -1.210  0.00  0.00    +0.162 A 
ATOM     30  C   UNL     1       3.103   2.412  -1.214  0.00  0.00    +0.053 A 
BRANCH  29  31
ATOM     31  O   UNL     1       1.219   1.555  -2.385  0.00  0.00    -0.491 OA
ATOM     32  C   UNL     1       1.917   1.889  -3.587  0.00  0.00    +0.277 C 
ENDBRANCH  29  31
BRANCH  28  33
ATOM     33  O   UNL     1      -0.011   0.963   0.007  0.00  0.00    -0.503 OA
ATOM     34  H   UNL     1      -0.517   0.733  -0.942  0.00  0.00    +0.292 HD
ENDBRANCH  28  33
ENDBRANCH  14  25
TORSDOF 5
