REMARK  Name = ZINC20902848
REMARK  9 active torsions:
REMARK  status: ('A' for Active; 'I' for Inactive)
REMARK    1  A    between atoms: C_1  and  C_2
REMARK    2  A    between atoms: C_5  and  C_37
REMARK    3  A    between atoms: N_8  and  C_10
REMARK    4  A    between atoms: C_10  and  C_11
REMARK    5  A    between atoms: C_11  and  C_12
REMARK    6  A    between atoms: C_12  and  N_13
REMARK    7  A    between atoms: C_26  and  C_27
REMARK    8  A    between atoms: C_26  and  C_28
REMARK    9  A    between atoms: N_30  and  C_31
REMARK                            x       y       z     vdW  Elec       q    Type
REMARK                         _______ _______ _______ _____ _____    ______ ____
ROOT
ATOM      1  N   UNL     1       3.137   3.326  -0.223  0.00  0.00    -0.281 N 
ATOM      2  C   UNL     1       1.808   3.208   0.006  0.00  0.00    +0.264 C 
ATOM      3  O   UNL     1       1.104   4.180   0.206  0.00  0.00    -0.268 OA
ATOM      4  C   UNL     1       1.259   1.839  -0.000  0.00  0.00    +0.106 A 
ATOM      5  C   UNL     1      -0.017   1.415   0.010  0.00  0.00    +0.041 A 
ATOM      6  C   UNL     1       0.002  -0.004   0.002  0.00  0.00    +0.001 A 
ATOM      7  C   UNL     1      -1.006  -0.976   0.005  0.00  0.00    +0.010 A 
ATOM      8  C   UNL     1      -0.676  -2.299  -0.012  0.00  0.00    +0.001 A 
ATOM      9  C   UNL     1       0.656  -2.695  -0.030  0.00  0.00    +0.002 A 
ATOM     10  C   UNL     1       1.666  -1.760  -0.030  0.00  0.00    +0.026 A 
ATOM     11  C   UNL     1       1.356  -0.401  -0.012  0.00  0.00    +0.050 A 
ATOM     12  N   UNL     1       2.112   0.736  -0.002  0.00  0.00    -0.334 N 
ATOM     13  C   UNL     1       3.570   0.891   0.018  0.00  0.00    +0.157 C 
ATOM     14  C   UNL     1       3.944   2.200  -0.678  0.00  0.00    +0.128 C 
ATOM     15  C   UNL     1       5.418   2.502  -0.399  0.00  0.00    +0.043 C 
ENDROOT
BRANCH  14  16
ATOM     16  C   UNL     1       3.754   2.033  -2.163  0.00  0.00    +0.238 C 
ATOM     17  O   UNL     1       4.681   1.668  -2.856  0.00  0.00    -0.273 OA
ATOM     18  N   UNL     1       2.555   2.288  -2.723  0.00  0.00    -0.311 N 
ATOM     19  H   UNL     1       1.715   2.619  -2.095  0.00  0.00    +0.149 HD
BRANCH  18  20
ATOM     20  C   UNL     1       2.371   2.126  -4.167  0.00  0.00    +0.073 C 
ATOM     21  C   UNL     1       2.813   3.403  -4.884  0.00  0.00    +0.022 C 
ATOM     22  C   UNL     1       2.621   3.234  -6.392  0.00  0.00    +0.002 C 
ATOM     23  C   UNL     1       1.144   2.966  -6.691  0.00  0.00    +0.000 C 
ATOM     24  C   UNL     1       0.702   1.689  -5.974  0.00  0.00    +0.002 C 
ATOM     25  C   UNL     1       0.894   1.859  -4.466  0.00  0.00    +0.022 C 
ENDBRANCH  18  20
ENDBRANCH  14  16
BRANCH   1  26
ATOM     26  C   UNL     1       3.784   4.622  -0.007  0.00  0.00    +0.107 C 
BRANCH  26  27
ATOM     27  C   UNL     1       4.277   4.712   1.439  0.00  0.00    +0.000 C 
BRANCH  27  28
ATOM     28  C   UNL     1       4.952   6.066   1.664  0.00  0.00    -0.077 C 
BRANCH  28  34
ATOM     29  C   UNL     1       3.656   6.126   6.409  0.00  0.00    +0.005 C 
ATOM     30  C   UNL     1       4.830   6.100   5.428  0.00  0.00    -0.031 C 
ATOM     31  C   UNL     1       5.734   7.309   5.680  0.00  0.00    +0.003 C 
ATOM     32  C   UNL     1       6.873   7.307   4.656  0.00  0.00    -0.031 C 
ATOM     33  C   UNL     1       6.282   7.329   3.244  0.00  0.00    -0.076 C 
ATOM     34  N   UNL     1       5.426   6.152   3.052  0.00  0.00    +0.380 N 
ATOM     35  C   UNL     1       4.298   6.157   3.994  0.00  0.00    -0.076 C 
ATOM     36  C   UNL     1       7.721   6.046   4.836  0.00  0.00    +0.005 C 
ATOM     37  H   UNL     1       6.032   5.258   3.260  0.00  0.00    -0.082 HD
ENDBRANCH  28  34
ENDBRANCH  27  28
ENDBRANCH  26  27
ENDBRANCH   1  26
TORSDOF 6
