REMARK  Name = ZINC66139727
REMARK  7 active torsions:
REMARK  status: ('A' for Active; 'I' for Inactive)
REMARK    1  A    between atoms: C_4  and  C_7
REMARK    2  A    between atoms: C_7  and  C_8
REMARK    3  A    between atoms: C_8  and  O_9
REMARK    4  A    between atoms: O_9  and  C_10
REMARK    5  A    between atoms: C_14  and  C_16
REMARK    6  A    between atoms: C_18  and  C_22
REMARK    7  A    between atoms: C_27  and  N_28
REMARK                            x       y       z     vdW  Elec       q    Type
REMARK                         _______ _______ _______ _____ _____    ______ ____
ROOT
ATOM      1  C   UNL     1       6.053  -1.932   2.476  0.00  0.00    +0.121 A 
ATOM      2  C   UNL     1       5.468  -1.432   3.632  0.00  0.00    +0.045 A 
ATOM      3  C   UNL     1       6.051  -1.664   4.864  0.00  0.00    +0.004 A 
ATOM      4  C   UNL     1       7.220  -2.393   4.952  0.00  0.00    +0.010 A 
ATOM      5  C   UNL     1       7.815  -2.899   3.796  0.00  0.00    +0.003 A 
ATOM      6  C   UNL     1       7.223  -2.670   2.555  0.00  0.00    +0.055 A 
ENDROOT
BRANCH   5   7
ATOM      7  C   UNL     1       9.068  -3.682   3.888  0.00  0.00    +0.066 A 
ATOM      8  C   UNL     1       9.745  -3.989   5.031  0.00  0.00    +0.057 A 
ATOM      9  C   UNL     1      10.876  -4.742   4.671  0.00  0.00    +0.095 A 
ATOM     10  N   UNL     1      10.879  -4.883   3.362  0.00  0.00    -0.173 NA
ATOM     11  N   UNL     1       9.752  -4.232   2.844  0.00  0.00    -0.276 N 
ATOM     12  H   UNL     1       9.503  -4.180   1.908  0.00  0.00    +0.189 HD
BRANCH   9  13
ATOM     13  C   UNL     1      11.891  -5.285   5.607  0.00  0.00    +0.023 A 
ATOM     14  C   UNL     1      11.493  -5.962   6.756  0.00  0.00    +0.012 A 
ATOM     15  C   UNL     1      12.442  -6.465   7.623  0.00  0.00    +0.001 A 
ATOM     16  C   UNL     1      13.789  -6.301   7.355  0.00  0.00    +0.002 A 
ATOM     17  C   UNL     1      14.197  -5.631   6.218  0.00  0.00    +0.023 A 
ATOM     18  C   UNL     1      13.255  -5.124   5.334  0.00  0.00    +0.034 A 
BRANCH  18  19
ATOM     19  N   UNL     1      13.664  -4.453   4.182  0.00  0.00    -0.357 N 
ATOM     20  H   UNL     1      13.009  -4.017   3.615  0.00  0.00    +0.142 HD
ATOM     21  H   UNL     1      14.605  -4.422   3.947  0.00  0.00    +0.142 HD
ENDBRANCH  18  19
ENDBRANCH   9  13
ENDBRANCH   5   7
BRANCH   1  22
ATOM     22  O   UNL     1       5.476  -1.701   1.268  0.00  0.00    -0.492 OA
BRANCH  22  23
ATOM     23  C   UNL     1       4.271  -0.932   1.261  0.00  0.00    +0.233 C 
BRANCH  23  24
ATOM     24  C   UNL     1       3.773  -0.779  -0.177  0.00  0.00    +0.076 C 
BRANCH  24  28
ATOM     25  C   UNL     1       0.172   1.519  -0.201  0.00  0.00    +0.000 A 
ATOM     26  C   UNL     1       1.396   2.152  -0.311  0.00  0.00    +0.000 A 
ATOM     27  C   UNL     1       2.561   1.408  -0.303  0.00  0.00    +0.004 A 
ATOM     28  C   UNL     1       2.502   0.032  -0.185  0.00  0.00    -0.044 A 
ATOM     29  C   UNL     1       1.278  -0.600  -0.074  0.00  0.00    +0.004 A 
ATOM     30  C   UNL     1       0.113   0.143  -0.083  0.00  0.00    +0.000 A 
ENDBRANCH  24  28
ENDBRANCH  23  24
ENDBRANCH  22  23
ENDBRANCH   1  22
TORSDOF 7
