REMARK  Name = ZINC36663748
REMARK  5 active torsions:
REMARK  status: ('A' for Active; 'I' for Inactive)
REMARK    1  A    between atoms: C_4  and  C_7
REMARK    2  A    between atoms: C_7  and  C_8
REMARK    3  A    between atoms: C_7  and  S_14
REMARK    4  A    between atoms: S_14  and  C_15
REMARK    5  A    between atoms: N_29  and  C_30
REMARK                            x       y       z     vdW  Elec       q    Type
REMARK                         _______ _______ _______ _____ _____    ______ ____
ROOT
ATOM      1  C   UNL     1       3.776  -0.841  -2.956  0.00  0.00    +0.178 A 
ATOM      2  N   UNL     1       3.822   0.455  -2.746  0.00  0.00    -0.221 NA
ATOM      3  C   UNL     1       3.632   1.326  -3.750  0.00  0.00    +0.104 A 
ATOM      4  C   UNL     1       3.623   2.794  -3.830  0.00  0.00    +0.026 A 
ATOM      5  C   UNL     1       3.809   3.808  -2.890  0.00  0.00    +0.012 A 
ATOM      6  C   UNL     1       3.740   5.117  -3.279  0.00  0.00    +0.001 A 
ATOM      7  C   UNL     1       3.485   5.445  -4.603  0.00  0.00    +0.002 A 
ATOM      8  C   UNL     1       3.298   4.460  -5.546  0.00  0.00    +0.026 A 
ATOM      9  C   UNL     1       3.365   3.120  -5.173  0.00  0.00    +0.049 A 
ATOM     10  N   UNL     1       3.223   1.946  -5.883  0.00  0.00    -0.349 N 
ATOM     11  H   UNL     1       3.039   1.891  -6.833  0.00  0.00    +0.166 HD
ATOM     12  C   UNL     1       3.381   0.858  -5.039  0.00  0.00    +0.132 A 
ATOM     13  C   UNL     1       3.334  -0.535  -5.250  0.00  0.00    +0.283 A 
ATOM     14  O   UNL     1       3.117  -0.989  -6.362  0.00  0.00    -0.265 OA
ATOM     15  N   UNL     1       3.539  -1.357  -4.199  0.00  0.00    -0.254 N 
ENDROOT
BRANCH  15  16
ATOM     16  C   UNL     1       3.503  -2.745  -4.382  0.00  0.00    +0.053 A 
ATOM     17  C   UNL     1       4.556  -3.391  -5.017  0.00  0.00    +0.026 A 
ATOM     18  C   UNL     1       4.519  -4.759  -5.197  0.00  0.00    +0.003 A 
ATOM     19  C   UNL     1       3.434  -5.488  -4.745  0.00  0.00    +0.020 A 
ATOM     20  C   UNL     1       2.383  -4.849  -4.112  0.00  0.00    +0.043 A 
ATOM     21  C   UNL     1       2.418  -3.479  -3.924  0.00  0.00    +0.046 A 
ATOM     22 CL   UNL     1       1.023  -5.768  -3.546  0.00  0.00    -0.083 Cl
ENDBRANCH  15  16
BRANCH   1  23
ATOM     23  S   UNL     1       4.033  -1.941  -1.604  0.00  0.00    -0.074 S 
BRANCH  23  24
ATOM     24  C   UNL     1       4.304  -0.840  -0.188  0.00  0.00    +0.114 C 
BRANCH  24  28
ATOM     25  C   UNL     1       0.737   1.379   0.589  0.00  0.00    +0.000 A 
ATOM     26  C   UNL     1       1.946   2.037   0.460  0.00  0.00    +0.000 A 
ATOM     27  C   UNL     1       3.100   1.319   0.208  0.00  0.00    +0.005 A 
ATOM     28  C   UNL     1       3.046  -0.057   0.087  0.00  0.00    -0.030 A 
ATOM     29  C   UNL     1       1.837  -0.715   0.218  0.00  0.00    +0.005 A 
ATOM     30  C   UNL     1       0.683   0.004   0.468  0.00  0.00    +0.000 A 
ENDBRANCH  24  28
BRANCH  24  31
ATOM     31  C   UNL     1       4.660  -1.660   1.025  0.00  0.00    -0.030 A 
ATOM     32  C   UNL     1       3.864  -2.726   1.397  0.00  0.00    +0.005 A 
ATOM     33  C   UNL     1       4.191  -3.478   2.510  0.00  0.00    +0.000 A 
ATOM     34  C   UNL     1       5.315  -3.164   3.251  0.00  0.00    +0.000 A 
ATOM     35  C   UNL     1       6.112  -2.098   2.878  0.00  0.00    +0.000 A 
ATOM     36  C   UNL     1       5.787  -1.348   1.763  0.00  0.00    +0.005 A 
ENDBRANCH  24  31
ENDBRANCH  23  24
ENDBRANCH   1  23
TORSDOF 5
