REMARK  Name = ZINC50309749
REMARK  6 active torsions:
REMARK  status: ('A' for Active; 'I' for Inactive)
REMARK    1  A    between atoms: C_1  and  C_2
REMARK    2  A    between atoms: C_2  and  C_3
REMARK    3  A    between atoms: C_2  and  C_4
REMARK    4  A    between atoms: C_5  and  N_22
REMARK    5  A    between atoms: C_6  and  C_10
REMARK    6  A    between atoms: N_12  and  C_13
REMARK                            x       y       z     vdW  Elec       q    Type
REMARK                         _______ _______ _______ _____ _____    ______ ____
ROOT
ATOM      1  C   UNL     1      -4.348  -2.344  -1.154  0.00  0.00    +0.270 C 
ATOM      2  O   UNL     1      -4.098  -2.892  -2.211  0.00  0.00    -0.268 OA
ATOM      3  N   UNL     1      -5.575  -2.461  -0.608  0.00  0.00    -0.279 N 
ATOM      4  H   UNL     1      -5.756  -2.079   0.265  0.00  0.00    +0.155 HD
ENDROOT
BRANCH   3   5
ATOM      5  C   UNL     1      -6.588  -3.133  -1.301  0.00  0.00    +0.054 A 
ATOM      6  C   UNL     1      -6.279  -4.230  -2.094  0.00  0.00    +0.046 A 
ATOM      7  C   UNL     1      -7.282  -4.892  -2.777  0.00  0.00    +0.061 A 
ATOM      8  C   UNL     1      -8.594  -4.463  -2.671  0.00  0.00    +0.061 A 
ATOM      9  C   UNL     1      -8.905  -3.370  -1.881  0.00  0.00    +0.043 A 
ATOM     10  C   UNL     1      -7.907  -2.708  -1.192  0.00  0.00    +0.064 A 
ATOM     11 CL   UNL     1      -8.299  -1.341  -0.196  0.00  0.00    -0.082 Cl
ATOM     12 CL   UNL     1      -9.851  -5.297  -3.530  0.00  0.00    -0.082 Cl
ATOM     13 CL   UNL     1      -6.895  -6.263  -3.769  0.00  0.00    -0.082 Cl
ENDBRANCH   3   5
BRANCH   1  16
ATOM     14  C   UNL     1      -1.401  -0.554   0.028  0.00  0.00    +0.060 A 
ATOM     15  C   UNL     1      -1.980  -1.338  -0.919  0.00  0.00    +0.078 A 
ATOM     16  C   UNL     1      -3.310  -1.552  -0.471  0.00  0.00    +0.168 A 
ATOM     17  N   UNL     1      -3.441  -0.907   0.673  0.00  0.00    -0.167 NA
ATOM     18  N   UNL     1      -2.339  -0.325   0.984  0.00  0.00    -0.279 N 
ATOM     19  H   UNL     1      -2.197   0.204   1.785  0.00  0.00    +0.189 HD
BRANCH  14  21
ATOM     20  C   UNL     1       0.005   1.489   0.037  0.00  0.00    +0.014 C 
ATOM     21  C   UNL     1       0.016  -0.041   0.022  0.00  0.00    +0.033 C 
ATOM     22  C   UNL     1       0.751  -0.558   1.260  0.00  0.00    +0.014 C 
ENDBRANCH  14  21
BRANCH  15  23
ATOM     23  N   UNL     1      -1.390  -1.831  -2.092  0.00  0.00    -0.355 N 
ATOM     24  H   UNL     1      -0.466  -1.618  -2.296  0.00  0.00    +0.142 HD
ATOM     25  H   UNL     1      -1.905  -2.386  -2.698  0.00  0.00    +0.142 HD
ENDBRANCH  15  23
ENDBRANCH   1  16
TORSDOF 4
