REMARK  Name = ZINC28052792
REMARK  7 active torsions:
REMARK  status: ('A' for Active; 'I' for Inactive)
REMARK    1  A    between atoms: C_1  and  C_2
REMARK    2  A    between atoms: C_10  and  C_12
REMARK    3  A    between atoms: C_23  and  C_26
REMARK    4  A    between atoms: C_28  and  O_34
REMARK    5  A    between atoms: C_31  and  O_32
REMARK    6  A    between atoms: O_32  and  C_33
REMARK    7  A    between atoms: O_34  and  C_35
REMARK                            x       y       z     vdW  Elec       q    Type
REMARK                         _______ _______ _______ _____ _____    ______ ____
ROOT
ATOM      1  C   UNL     1       0.889   1.560  -3.170  0.00  0.00    +0.069 C 
ATOM      2  C   UNL     1      -0.398   2.039  -2.549  0.00  0.00    +0.087 A 
ATOM      3  C   UNL     1      -0.742   1.998  -1.200  0.00  0.00    +0.049 A 
ATOM      4  C   UNL     1      -1.997   2.548  -1.150  0.00  0.00    +0.226 A 
ATOM      5  O   UNL     1      -2.316   2.866  -2.400  0.00  0.00    -0.339 OA
ATOM      6  N   UNL     1      -1.418   2.579  -3.169  0.00  0.00    -0.081 NA
ATOM      7  N   UNL     1      -2.671   2.681   0.047  0.00  0.00    -0.286 N 
ATOM      8  C   UNL     1      -1.968   2.525   1.218  0.00  0.00    +0.019 C 
ATOM      9  C   UNL     1      -0.728   1.992   1.257  0.00  0.00    +0.024 C 
ATOM     10  C   UNL     1      -0.018   1.503   0.010  0.00  0.00    +0.093 C 
ATOM     11  C   UNL     1      -0.031   1.868   2.472  0.00  0.00    +0.162 C 
ATOM     12  O   UNL     1       1.078   1.372   2.472  0.00  0.00    -0.292 OA
ATOM     13  C   UNL     1      -0.626   2.336   3.771  0.00  0.00    +0.088 C 
ATOM     14  C   UNL     1      -1.606   3.479   3.486  0.00  0.00    +0.036 C 
ATOM     15  C   UNL     1      -2.652   2.978   2.488  0.00  0.00    +0.060 C 
ATOM     16  H   UNL     1      -3.747   2.906   0.050  0.00  0.00    +0.155 HD
ENDROOT
BRANCH  10  17
ATOM     17  C   UNL     1       0.002  -0.004   0.002  0.00  0.00    +0.001 A 
ATOM     18  C   UNL     1      -1.185  -0.712   0.010  0.00  0.00    +0.022 A 
ATOM     19  C   UNL     1      -1.167  -2.094   0.002  0.00  0.00    +0.018 A 
ATOM     20  C   UNL     1       0.040  -2.771  -0.014  0.00  0.00    +0.018 A 
ATOM     21  C   UNL     1       1.228  -2.065  -0.022  0.00  0.00    +0.040 A 
ATOM     22  C   UNL     1       1.210  -0.680  -0.019  0.00  0.00    +0.128 A 
ATOM     23  F   UNL     1       2.371   0.011  -0.032  0.00  0.00    -0.205 F 
ATOM     24 BR   UNL     1      -2.792  -3.061   0.011  0.00  0.00    -0.050 Br
ENDBRANCH  10  17
BRANCH  14  25
ATOM     25  C   UNL     1      -2.283   3.898   4.765  0.00  0.00    +0.002 A 
ATOM     26  C   UNL     1      -3.018   2.981   5.490  0.00  0.00    +0.053 A 
ATOM     27  C   UNL     1      -3.642   3.367   6.667  0.00  0.00    +0.121 A 
ATOM     28  C   UNL     1      -3.527   4.674   7.117  0.00  0.00    +0.049 A 
ATOM     29  C   UNL     1      -2.791   5.591   6.392  0.00  0.00    +0.049 A 
ATOM     30  C   UNL     1      -2.164   5.204   5.216  0.00  0.00    +0.124 A 
BRANCH  30  31
ATOM     31  O   UNL     1      -1.436   6.106   4.505  0.00  0.00    -0.495 OA
ATOM     32  C   UNL     1      -1.356   7.433   5.030  0.00  0.00    +0.277 C 
ENDBRANCH  30  31
BRANCH  27  33
ATOM     33  O   UNL     1      -4.365   2.463   7.381  0.00  0.00    -0.495 OA
ATOM     34  C   UNL     1      -4.979   2.930   8.584  0.00  0.00    +0.277 C 
ENDBRANCH  27  33
ENDBRANCH  14  25
TORSDOF 4
