REMARK  Name = ZINC39934601
REMARK  5 active torsions:
REMARK  status: ('A' for Active; 'I' for Inactive)
REMARK    1  A    between atoms: C_4  and  C_7
REMARK    2  A    between atoms: C_13  and  C_36
REMARK    3  A    between atoms: N_15  and  C_18
REMARK    4  A    between atoms: C_18  and  C_19
REMARK    5  A    between atoms: C_25  and  C_30
REMARK                            x       y       z     vdW  Elec       q    Type
REMARK                         _______ _______ _______ _____ _____    ______ ____
ROOT
ATOM      1  C   UNL     1       3.695  -0.684  -0.037  0.00  0.00    +0.022 A 
ATOM      2  C   UNL     1       3.920  -2.027  -0.052  0.00  0.00    +0.031 A 
ATOM      3  C   UNL     1       5.254  -2.446  -0.065  0.00  0.00    +0.066 A 
ATOM      4  C   UNL     1       6.215  -1.419  -0.066  0.00  0.00    +0.080 A 
ATOM      5  S   UNL     1       5.345  -0.006  -0.051  0.00  0.00    -0.073 S 
ATOM      6  N   UNL     1       7.564  -1.667  -0.088  0.00  0.00    -0.319 N 
ATOM      7  C   UNL     1       8.006  -2.976   0.424  0.00  0.00    +0.177 C 
ATOM      8  N   UNL     1       7.076  -4.035   0.043  0.00  0.00    -0.271 N 
ATOM      9  C   UNL     1       5.747  -3.844  -0.087  0.00  0.00    +0.251 C 
ATOM     10  O   UNL     1       4.983  -4.783  -0.218  0.00  0.00    -0.270 OA
ATOM     11  H   UNL     1       8.196  -1.013  -0.425  0.00  0.00    +0.148 HD
ENDROOT
BRANCH   1  15
ATOM     12  C   UNL     1      -0.017   1.379   0.010  0.00  0.00    +0.000 A 
ATOM     13  C   UNL     1       1.168   2.094   0.002  0.00  0.00    +0.001 A 
ATOM     14  C   UNL     1       2.377   1.430  -0.013  0.00  0.00    +0.009 A 
ATOM     15  C   UNL     1       2.404   0.034  -0.021  0.00  0.00    -0.011 A 
ATOM     16  C   UNL     1       1.204  -0.681  -0.013  0.00  0.00    +0.009 A 
ATOM     17  C   UNL     1       0.002  -0.004   0.002  0.00  0.00    +0.001 A 
ENDBRANCH   1  15
BRANCH   7  18
ATOM     18  C   UNL     1       8.093  -2.913   1.951  0.00  0.00    +0.150 C 
ATOM     19 CL   UNL     1       6.471  -2.513   2.629  0.00  0.00    -0.122 Cl
ENDBRANCH   7  18
BRANCH   8  20
ATOM     20  C   UNL     1       7.614  -5.373  -0.212  0.00  0.00    +0.183 C 
BRANCH  20  21
ATOM     21  C   UNL     1       7.618  -6.166   1.069  0.00  0.00    +0.141 C 
ATOM     22  N   UNL     1       7.165  -5.591   2.157  0.00  0.00    -0.160 NA
ATOM     23  C   UNL     1       7.126  -6.210   3.341  0.00  0.00    +0.271 C 
ATOM     24  O   UNL     1       6.698  -5.645   4.333  0.00  0.00    -0.268 OA
ATOM     25  C   UNL     1       7.625  -7.620   3.409  0.00  0.00    +0.068 C 
ATOM     26  C   UNL     1       7.682  -8.432   4.476  0.00  0.00    +0.008 C 
ATOM     27  C   UNL     1       8.235  -9.824   4.273  0.00  0.00    +0.106 C 
ATOM     28  S   UNL     1       8.631  -9.809   2.477  0.00  0.00    -0.093 S 
ATOM     29  C   UNL     1       8.108  -8.152   2.117  0.00  0.00    +0.112 C 
ATOM     30  N   UNL     1       8.072  -7.409   1.036  0.00  0.00    -0.226 NA
BRANCH  27  31
ATOM     31  C   UNL     1       7.195 -10.868   4.588  0.00  0.00    -0.030 A 
ATOM     32  C   UNL     1       6.010 -10.902   3.877  0.00  0.00    +0.005 A 
ATOM     33  C   UNL     1       5.057 -11.860   4.166  0.00  0.00    +0.000 A 
ATOM     34  C   UNL     1       5.288 -12.785   5.167  0.00  0.00    +0.000 A 
ATOM     35  C   UNL     1       6.473 -12.752   5.878  0.00  0.00    +0.000 A 
ATOM     36  C   UNL     1       7.429 -11.797   5.585  0.00  0.00    +0.005 A 
ENDBRANCH  27  31
ENDBRANCH  20  21
ENDBRANCH   8  20
TORSDOF 5
