REMARK  Name = ZINC31155641
REMARK  13 active torsions:
REMARK  status: ('A' for Active; 'I' for Inactive)
REMARK    1  A    between atoms: C_1  and  C_2
REMARK    2  A    between atoms: C_2  and  C_28
REMARK    3  A    between atoms: C_7  and  C_26
REMARK    4  A    between atoms: C_7  and  O_27
REMARK    5  A    between atoms: C_8  and  C_17
REMARK    6  A    between atoms: C_10  and  C_16
REMARK    7  A    between atoms: C_13  and  O_15
REMARK    8  A    between atoms: C_17  and  C_18
REMARK    9  A    between atoms: C_18  and  C_19
REMARK   10  A    between atoms: C_19  and  C_21
REMARK   11  A    between atoms: C_21  and  C_23
REMARK   12  A    between atoms: C_21  and  O_25
REMARK   13  A    between atoms: C_23  and  O_24
REMARK                            x       y       z     vdW  Elec       q    Type
REMARK                         _______ _______ _______ _____ _____    ______ ____
ROOT
ATOM      1  C   UNL     1       0.827   0.843   2.187  0.00  0.00    +0.014 C 
ATOM      2  C   UNL     1      -0.306   1.315   3.127  0.00  0.00    -0.006 C 
ATOM      3  C   UNL     1      -1.658   0.931   2.539  0.00  0.00    +0.004 C 
ATOM      4  C   UNL     1      -1.661   1.192   1.030  0.00  0.00    +0.007 C 
ATOM      5  C   UNL     1      -2.974   0.695   0.416  0.00  0.00    +0.035 C 
ATOM      6  C   UNL     1      -4.131   1.502   0.997  0.00  0.00    +0.067 C 
ATOM      7  C   UNL     1      -4.171   1.352   2.506  0.00  0.00    +0.027 C 
ATOM      8  C   UNL     1      -2.835   1.629   3.200  0.00  0.00    -0.023 C 
ATOM      9  C   UNL     1      -2.610   3.141   3.249  0.00  0.00    +0.010 C 
ATOM     10  C   UNL     1      -1.327   3.454   4.015  0.00  0.00    +0.032 C 
ATOM     11  C   UNL     1      -0.136   2.818   3.310  0.00  0.00    +0.120 C 
ATOM     12  C   UNL     1      -3.033   1.120   4.644  0.00  0.00    +0.012 C 
ATOM     13  C   UNL     1      -5.447   0.979   0.402  0.00  0.00    +0.041 C 
ATOM     14  C   UNL     1      -0.046   0.602   4.462  0.00  0.00    +0.014 C 
ENDROOT
BRANCH  11  15
ATOM     15  O   UNL     1       0.067   3.445   2.040  0.00  0.00    -0.391 OA
ATOM     16  H   UNL     1       0.209   4.534   1.980  0.00  0.00    +0.210 HD
ENDBRANCH  11  15
BRANCH   6  17
ATOM     17  O   UNL     1      -3.988   2.878   0.635  0.00  0.00    -0.389 OA
ATOM     18  H   UNL     1      -4.734   3.615   0.968  0.00  0.00    +0.210 HD
ENDBRANCH   6  17
BRANCH   7  19
ATOM     19  C   UNL     1      -4.663  -0.049   2.886  0.00  0.00    +0.011 C 
BRANCH  19  20
ATOM     20  C   UNL     1      -3.895  -1.095   2.075  0.00  0.00    +0.033 C 
BRANCH  20  21
ATOM     21  C   UNL     1      -4.164  -2.466   2.642  0.00  0.00    -0.046 C 
ATOM     22  C   UNL     1      -5.108  -3.214   2.126  0.00  0.00    +0.010 C 
BRANCH  21  23
ATOM     23  C   UNL     1      -3.348  -2.976   3.801  0.00  0.00    +0.165 C 
BRANCH  23  24
ATOM     24  O   UNL     1      -1.959  -2.911   3.471  0.00  0.00    -0.385 OA
ATOM     25  H   UNL     1      -1.205  -3.243   4.199  0.00  0.00    +0.210 HD
ENDBRANCH  23  24
BRANCH  23  26
ATOM     26  C   UNL     1      -3.619  -2.112   5.035  0.00  0.00    +0.191 C 
BRANCH  26  27
ATOM     27  O   UNL     1      -2.937  -2.664   6.162  0.00  0.00    -0.392 OA
ATOM     28  H   UNL     1      -3.014  -2.177   7.145  0.00  0.00    +0.210 HD
ENDBRANCH  26  27
ENDBRANCH  23  26
ENDBRANCH  21  23
ENDBRANCH  20  21
ENDBRANCH  19  20
ENDBRANCH   7  19
TORSDOF 9
