REMARK  Name = ZINC02200540
REMARK  5 active torsions:
REMARK  status: ('A' for Active; 'I' for Inactive)
REMARK    1  A    between atoms: C_8  and  N_27
REMARK    2  A    between atoms: C_9  and  C_12
REMARK    3  A    between atoms: C_13  and  C_14
REMARK    4  A    between atoms: C_13  and  C_16
REMARK    5  A    between atoms: N_18  and  C_19
REMARK                            x       y       z     vdW  Elec       q    Type
REMARK                         _______ _______ _______ _____ _____    ______ ____
ROOT
ATOM      1  C   UNL     1       0.406   2.278  -0.007  0.00  0.00    +0.005 A 
ATOM      2  C   UNL     1       1.634   1.719   0.370  0.00  0.00    +0.018 A 
ATOM      3  C   UNL     1       1.781   0.376   0.417  0.00  0.00    +0.096 A 
ATOM      4  N   UNL     1       0.745  -0.452   0.102  0.00  0.00    -0.268 N 
ATOM      5  C   UNL     1      -0.466   0.064  -0.269  0.00  0.00    +0.142 A 
ATOM      6  C   UNL     1      -0.637   1.458  -0.324  0.00  0.00    +0.047 A 
ATOM      7  N   UNL     1      -1.493  -0.728  -0.581  0.00  0.00    -0.214 NA
ATOM      8  C   UNL     1      -1.390  -2.048  -0.546  0.00  0.00    +0.136 A 
ATOM      9  C   UNL     1      -0.158  -2.642  -0.169  0.00  0.00    +0.081 A 
ATOM     10  C   UNL     1       0.927  -1.788   0.160  0.00  0.00    +0.267 A 
ATOM     11  O   UNL     1       2.004  -2.253   0.489  0.00  0.00    -0.267 OA
ENDROOT
BRANCH   8  12
ATOM     12  N   UNL     1      -2.468  -2.836  -0.874  0.00  0.00    -0.310 N 
ATOM     13  C   UNL     1      -2.195  -3.629  -2.081  0.00  0.00    +0.134 C 
ATOM     14  C   UNL     1      -3.395  -4.533  -2.374  0.00  0.00    +0.178 C 
ATOM     15  O   UNL     1      -4.569  -3.729  -2.510  0.00  0.00    -0.377 OA
ATOM     16  C   UNL     1      -4.866  -2.944  -1.352  0.00  0.00    +0.178 C 
ATOM     17  C   UNL     1      -3.681  -2.023  -1.048  0.00  0.00    +0.134 C 
ENDBRANCH   8  12
BRANCH   9  18
ATOM     18  C   UNL     1      -0.016  -4.040  -0.122  0.00  0.00    +0.040 C 
ATOM     19  C   UNL     1      -0.875  -4.799   0.661  0.00  0.00    +0.114 C 
BRANCH  19  20
ATOM     20  C   UNL     1      -0.778  -6.262   0.648  0.00  0.00    +0.255 C 
ATOM     21  O   UNL     1       0.055  -6.811  -0.049  0.00  0.00    -0.269 OA
ATOM     22  N   UNL     1      -1.612  -6.999   1.409  0.00  0.00    -0.306 N 
ATOM     23  H   UNL     1      -2.276  -6.562   1.964  0.00  0.00    +0.149 HD
BRANCH  22  24
ATOM     24  C   UNL     1      -1.516  -8.461   1.396  0.00  0.00    +0.096 C 
ATOM     25  C   UNL     1      -0.449  -8.911   2.407  0.00  0.00    +0.046 C 
ATOM     26  C   UNL     1      -0.583 -10.448   2.602  0.00  0.00    +0.168 C 
ATOM     27  S   UNL     1      -2.417 -10.623   2.638  0.00  0.00    -0.029 S 
ATOM     28  O   UNL     1      -2.862 -10.554   3.986  0.00  0.00    -0.174 OA
ATOM     29  O   UNL     1      -2.791 -11.732   1.833  0.00  0.00    -0.174 OA
ATOM     30  C   UNL     1      -2.888  -9.070   1.772  0.00  0.00    +0.188 C 
ENDBRANCH  22  24
ENDBRANCH  19  20
BRANCH  19  31
ATOM     31  C   UNL     1      -1.855  -4.153   1.481  0.00  0.00    +0.104 C 
ATOM     32  N   UNL     1      -2.632  -3.641   2.132  0.00  0.00    -0.191 NA
ENDBRANCH  19  31
ENDBRANCH   9  18
TORSDOF 5
