REMARK  Name = ZINC15957476
REMARK  4 active torsions:
REMARK  status: ('A' for Active; 'I' for Inactive)
REMARK    1  A    between atoms: C_1  and  C_2
REMARK    2  A    between atoms: C_2  and  C_4
REMARK    3  A    between atoms: C_2  and  O_31
REMARK    4  A    between atoms: N_12  and  C_15
REMARK                            x       y       z     vdW  Elec       q    Type
REMARK                         _______ _______ _______ _____ _____    ______ ____
ROOT
ATOM      1  C   UNL     1       1.083  -0.389   1.288  0.00  0.00    +0.096 C 
ATOM      2  C   UNL     1       0.875  -1.915   1.194  0.00  0.00    +0.109 C 
ATOM      3  C   UNL     1       2.146  -2.532   1.841  0.00  0.00    +0.123 C 
ATOM      4  C   UNL     1       2.812  -3.248   0.687  0.00  0.00    +0.228 C 
ATOM      5  O   UNL     1       3.845  -3.878   0.756  0.00  0.00    -0.275 OA
ATOM      6  N   UNL     1       2.083  -3.079  -0.421  0.00  0.00    -0.238 N 
ATOM      7  C   UNL     1       0.960  -2.342  -0.254  0.00  0.00    +0.228 C 
ATOM      8  O   UNL     1       0.153  -2.064  -1.115  0.00  0.00    -0.275 OA
ATOM      9  C   UNL     1       2.987  -1.323   2.268  0.00  0.00    +0.136 C 
ATOM     10  N   UNL     1       2.555  -0.207   1.394  0.00  0.00    -0.293 NA
ATOM     11  C   UNL     1       2.800  -1.011   3.726  0.00  0.00    +0.003 A 
ATOM     12  C   UNL     1       1.704  -0.682   4.492  0.00  0.00    +0.008 A 
ATOM     13  C   UNL     1       1.852  -0.445   5.848  0.00  0.00    +0.000 A 
ATOM     14  C   UNL     1       3.103  -0.539   6.429  0.00  0.00    +0.002 A 
ATOM     15  C   UNL     1       4.204  -0.867   5.666  0.00  0.00    +0.023 A 
ATOM     16  C   UNL     1       4.064  -1.106   4.301  0.00  0.00    +0.039 A 
ATOM     17  N   UNL     1       5.010  -1.447   3.332  0.00  0.00    -0.283 N 
ATOM     18  C   UNL     1       4.458  -1.591   2.111  0.00  0.00    +0.243 C 
ATOM     19  O   UNL     1       5.036  -1.882   1.085  0.00  0.00    -0.273 OA
ATOM     20  H   UNL     1       2.992  -0.258   0.486  0.00  0.00    +0.124 HD
ATOM     21  H   UNL     1       5.955  -1.566   3.516  0.00  0.00    +0.155 HD
ENDROOT
BRANCH   6  22
ATOM     22  C   UNL     1       2.464  -3.650  -1.715  0.00  0.00    +0.084 C 
ATOM     23  C   UNL     1       1.408  -4.678  -2.171  0.00  0.00    +0.023 C 
ATOM     24  C   UNL     1       0.473  -3.873  -3.107  0.00  0.00    +0.002 C 
ATOM     25  C   UNL     1       1.459  -2.946  -3.860  0.00  0.00    +0.002 C 
ATOM     26  C   UNL     1       2.496  -2.548  -2.789  0.00  0.00    +0.023 C 
ENDBRANCH   6  22
BRANCH   1  28
ATOM     27  C   UNL     1      -0.977   0.221   0.013  0.00  0.00    +0.039 C 
ATOM     28  C   UNL     1       0.551   0.299   0.030  0.00  0.00    +0.129 C 
BRANCH  28  29
ATOM     29  O   UNL     1       0.958   1.669   0.028  0.00  0.00    -0.390 OA
ATOM     30  H   UNL     1       0.655   2.168  -0.743  0.00  0.00    +0.210 HD
ENDBRANCH  28  29
ENDBRANCH   1  28
TORSDOF 3
