REMARK  Name = ZINC13897512
REMARK  17 active torsions:
REMARK  status: ('A' for Active; 'I' for Inactive)
REMARK    1  A    between atoms: C_1  and  C_2
REMARK    2  A    between atoms: C_4  and  C_37
REMARK    3  A    between atoms: C_6  and  S_8
REMARK    4  A    between atoms: S_8  and  C_9
REMARK    5  A    between atoms: C_11  and  O_33
REMARK    6  A    between atoms: C_13  and  O_29
REMARK    7  A    between atoms: C_15  and  O_25
REMARK    8  A    between atoms: C_17  and  C_20
REMARK    9  A    between atoms: C_20  and  O_21
REMARK   10  A    between atoms: O_21  and  C_22
REMARK   11  A    between atoms: C_22  and  C_24
REMARK   12  A    between atoms: O_25  and  C_26
REMARK   13  A    between atoms: C_26  and  C_28
REMARK   14  A    between atoms: O_29  and  C_30
REMARK   15  A    between atoms: C_30  and  C_32
REMARK   16  A    between atoms: O_33  and  C_34
REMARK   17  A    between atoms: C_34  and  C_36
REMARK                            x       y       z     vdW  Elec       q    Type
REMARK                         _______ _______ _______ _____ _____    ______ ____
ROOT
ATOM      1  C   UNL     1      -0.017   1.425   0.010  0.00  0.00    +0.228 C 
ATOM      2  C   UNL     1       1.419   1.953  -0.001  0.00  0.00    +0.260 C 
ATOM      3  C   UNL     1       2.147   1.406  -1.233  0.00  0.00    +0.263 C 
ATOM      4  C   UNL     1       2.091  -0.124  -1.207  0.00  0.00    +0.252 C 
ATOM      5  C   UNL     1       0.628  -0.573  -1.150  0.00  0.00    +0.202 C 
ATOM      6  O   UNL     1       0.002  -0.004   0.002  0.00  0.00    -0.351 OA
ENDROOT
BRANCH   1   7
ATOM      7  S   UNL     1      -0.864   2.009   1.499  0.00  0.00    -0.051 S 
BRANCH   7  13
ATOM      8  C   UNL     1      -4.188  -0.510  -1.467  0.00  0.00    +0.066 C 
ATOM      9  C   UNL     1      -3.929   0.255  -0.195  0.00  0.00    +0.043 A 
ATOM     10  C   UNL     1      -4.954   0.473   0.713  0.00  0.00    +0.046 A 
ATOM     11  C   UNL     1      -4.674   1.181   1.871  0.00  0.00    +0.043 A 
ATOM     12  N   UNL     1      -3.445   1.625   2.075  0.00  0.00    -0.227 NA
ATOM     13  C   UNL     1      -2.487   1.399   1.187  0.00  0.00    +0.191 A 
ATOM     14  N   UNL     1      -2.723   0.730   0.067  0.00  0.00    -0.227 NA
ATOM     15  C   UNL     1      -5.757   1.441   2.886  0.00  0.00    +0.066 C 
ENDBRANCH   7  13
ENDBRANCH   1   7
BRANCH   5  16
ATOM     16  C   UNL     1       0.565  -2.099  -1.063  0.00  0.00    +0.267 C 
BRANCH  16  17
ATOM     17  O   UNL     1      -0.820  -2.531  -1.127  0.00  0.00    -0.462 OA
BRANCH  17  18
ATOM     18  C   UNL     1      -1.050  -3.852  -1.063  0.00  0.00    +0.304 C 
ATOM     19  O   UNL     1      -0.124  -4.622  -0.958  0.00  0.00    -0.251 OA
ATOM     20  C   UNL     1      -2.462  -4.374  -1.123  0.00  0.00    +0.136 C 
ENDBRANCH  17  18
ENDBRANCH  16  17
ENDBRANCH   5  16
BRANCH   4  21
ATOM     21  O   UNL     1       2.714  -0.653  -2.408  0.00  0.00    -0.455 OA
BRANCH  21  22
ATOM     22  C   UNL     1       3.300  -1.857  -2.311  0.00  0.00    +0.304 C 
ATOM     23  O   UNL     1       3.292  -2.449  -1.258  0.00  0.00    -0.251 OA
ATOM     24  C   UNL     1       3.966  -2.469  -3.516  0.00  0.00    +0.136 C 
ENDBRANCH  21  22
ENDBRANCH   4  21
BRANCH   3  25
ATOM     25  O   UNL     1       3.532   1.842  -1.212  0.00  0.00    -0.454 OA
BRANCH  25  26
ATOM     26  C   UNL     1       3.815   3.002  -1.825  0.00  0.00    +0.304 C 
ATOM     27  O   UNL     1       2.935   3.633  -2.361  0.00  0.00    -0.251 OA
ATOM     28  C   UNL     1       5.231   3.518  -1.844  0.00  0.00    +0.136 C 
ENDBRANCH  25  26
ENDBRANCH   3  25
BRANCH   2  29
ATOM     29  O   UNL     1       2.106   1.517   1.202  0.00  0.00    -0.454 OA
BRANCH  29  30
ATOM     30  C   UNL     1       2.034   2.325   2.271  0.00  0.00    +0.304 C 
ATOM     31  O   UNL     1       1.418   3.362   2.205  0.00  0.00    -0.251 OA
ATOM     32  C   UNL     1       2.722   1.938   3.555  0.00  0.00    +0.136 C 
ENDBRANCH  29  30
ENDBRANCH   2  29
TORSDOF 11
