REMARK  Name = ZINC06973921
REMARK  7 active torsions:
REMARK  status: ('A' for Active; 'I' for Inactive)
REMARK    1  A    between atoms: C_1  and  C_2
REMARK    2  A    between atoms: C_7  and  S_8
REMARK    3  A    between atoms: S_8  and  C_11
REMARK    4  A    between atoms: C_11  and  C_12
REMARK    5  A    between atoms: C_12  and  C_13
REMARK    6  A    between atoms: N_15  and  C_16
REMARK    7  A    between atoms: C_19  and  C_22
REMARK                            x       y       z     vdW  Elec       q    Type
REMARK                         _______ _______ _______ _____ _____    ______ ____
ROOT
ATOM      1  S   UNL     1       0.025   0.179   2.725  0.00  0.00    -0.002 S 
ATOM      2  O   UNL     1      -1.056   1.094   2.619  0.00  0.00    -0.169 OA
ATOM      3  O   UNL     1       0.024  -0.831   3.725  0.00  0.00    -0.169 OA
ENDROOT
BRANCH   1  10
ATOM      4  C   UNL     1      -0.018   1.503   0.010  0.00  0.00    +0.046 C 
ATOM      5  C   UNL     1       0.002  -0.004   0.002  0.00  0.00    -0.024 A 
ATOM      6  C   UNL     1       0.006  -0.685  -1.198  0.00  0.00    +0.033 A 
ATOM      7  C   UNL     1       0.025  -2.075  -1.210  0.00  0.00    +0.066 A 
ATOM      8  C   UNL     1       0.040  -2.777  -0.003  0.00  0.00    +0.068 A 
ATOM      9  C   UNL     1       0.036  -2.080   1.200  0.00  0.00    +0.055 A 
ATOM     10  C   UNL     1       0.023  -0.700   1.199  0.00  0.00    +0.093 A 
ATOM     11  N   UNL     1       0.058  -4.169   0.006  0.00  0.00    -0.316 N 
ATOM     12  H   UNL     1       0.068  -4.647   0.850  0.00  0.00    +0.169 HD
ATOM     13  C   UNL     1       0.062  -4.853  -1.156  0.00  0.00    +0.314 A 
ATOM     14  O   UNL     1       0.077  -6.067  -1.153  0.00  0.00    -0.262 OA
ATOM     15  C   UNL     1       0.046  -4.103  -2.445  0.00  0.00    +0.314 A 
ATOM     16  O   UNL     1       0.049  -4.701  -3.502  0.00  0.00    -0.262 OA
ATOM     17  N   UNL     1       0.028  -2.755  -2.425  0.00  0.00    -0.316 N 
ATOM     18  H   UNL     1       0.017  -2.258  -3.258  0.00  0.00    +0.169 HD
ENDBRANCH   1  10
BRANCH   1  19
ATOM     19  C   UNL     1       1.602   1.075   2.745  0.00  0.00    +0.181 C 
BRANCH  19  20
ATOM     20  C   UNL     1       1.714   1.883   4.040  0.00  0.00    +0.119 C 
BRANCH  20  21
ATOM     21  C   UNL     1       3.025   2.627   4.056  0.00  0.00    +0.215 C 
ATOM     22  O   UNL     1       3.793   2.522   3.123  0.00  0.00    -0.276 OA
ATOM     23  N   UNL     1       3.342   3.410   5.106  0.00  0.00    -0.312 N 
ATOM     24  H   UNL     1       2.728   3.493   5.852  0.00  0.00    +0.149 HD
BRANCH  23  25
ATOM     25  C   UNL     1       4.616   4.133   5.122  0.00  0.00    +0.073 C 
ATOM     26  C   UNL     1       5.717   3.217   5.659  0.00  0.00    +0.022 C 
ATOM     27  C   UNL     1       5.364   2.775   7.080  0.00  0.00    +0.005 C 
ATOM     28  C   UNL     1       5.240   4.005   7.981  0.00  0.00    -0.014 C 
ATOM     29  C   UNL     1       4.139   4.922   7.444  0.00  0.00    +0.005 C 
ATOM     30  C   UNL     1       4.492   5.364   6.022  0.00  0.00    +0.022 C 
ATOM     31  C   UNL     1       4.888   3.563   9.403  0.00  0.00    +0.007 C 
ENDBRANCH  23  25
ENDBRANCH  20  21
ENDBRANCH  19  20
ENDBRANCH   1  19
TORSDOF 5
