REMARK  Name = ZINC10001115
REMARK  9 active torsions:
REMARK  status: ('A' for Active; 'I' for Inactive)
REMARK    1  A    between atoms: C_1  and  C_2
REMARK    2  A    between atoms: C_2  and  C_3
REMARK    3  A    between atoms: C_2  and  C_4
REMARK    4  A    between atoms: C_4  and  C_5
REMARK    5  A    between atoms: C_5  and  C_7
REMARK    6  A    between atoms: C_5  and  N_20
REMARK    7  A    between atoms: N_9  and  N_10
REMARK    8  A    between atoms: C_11  and  C_12
REMARK    9  A    between atoms: C_21  and  C_23
REMARK                            x       y       z     vdW  Elec       q    Type
REMARK                         _______ _______ _______ _____ _____    ______ ____
ROOT
ATOM      1  C   UNL     1       2.065  -4.481  -0.040  0.00  0.00    +0.161 C 
ENDROOT
BRANCH   1   2
ATOM      2  C   UNL     1       3.230  -5.071  -0.792  0.00  0.00    +0.253 C 
ATOM      3  O   UNL     1       4.064  -4.343  -1.288  0.00  0.00    -0.272 OA
ATOM      4  N   UNL     1       3.346  -6.408  -0.913  0.00  0.00    -0.205 N 
ATOM      5  H   UNL     1       2.680  -6.991  -0.516  0.00  0.00    +0.177 HD
BRANCH   4   6
ATOM      6  N   UNL     1       4.429  -6.957  -1.612  0.00  0.00    -0.188 NA
ATOM      7  C   UNL     1       4.541  -8.245  -1.728  0.00  0.00    +0.139 C 
BRANCH   7   8
ATOM      8  C   UNL     1       5.681  -8.822  -2.464  0.00  0.00    +0.014 A 
ATOM      9  C   UNL     1       5.805 -10.208  -2.592  0.00  0.00    +0.011 A 
ATOM     10  C   UNL     1       6.874 -10.742  -3.281  0.00  0.00    +0.002 A 
ATOM     11  C   UNL     1       7.824  -9.909  -3.846  0.00  0.00    +0.021 A 
ATOM     12  C   UNL     1       7.710  -8.535  -3.724  0.00  0.00    +0.060 A 
ATOM     13  C   UNL     1       6.640  -7.985  -3.042  0.00  0.00    +0.068 A 
ATOM     14 CL   UNL     1       6.493  -6.262  -2.897  0.00  0.00    -0.081 Cl
ATOM     15 CL   UNL     1       8.907  -7.499  -4.436  0.00  0.00    -0.082 Cl
ENDBRANCH   7   8
ENDBRANCH   4   6
ENDBRANCH   1   2
BRANCH   1  16
ATOM     16  N   UNL     1       2.173  -3.020  -0.041  0.00  0.00    -0.300 N 
ATOM     17  C   UNL     1       1.077  -2.263   0.169  0.00  0.00    +0.245 C 
ATOM     18  O   UNL     1      -0.014  -2.789   0.269  0.00  0.00    -0.270 OA
ATOM     19  H   UNL     1       3.033  -2.597  -0.192  0.00  0.00    +0.150 HD
BRANCH  17  20
ATOM     20  C   UNL     1       1.203  -0.795   0.277  0.00  0.00    +0.037 A 
ATOM     21  C   UNL     1       0.070  -0.008   0.494  0.00  0.00    +0.014 A 
ATOM     22  C   UNL     1       0.194   1.361   0.594  0.00  0.00    +0.021 A 
ATOM     23  C   UNL     1       1.439   1.957   0.479  0.00  0.00    +0.041 A 
ATOM     24  C   UNL     1       2.567   1.182   0.264  0.00  0.00    +0.021 A 
ATOM     25  C   UNL     1       2.456  -0.188   0.163  0.00  0.00    +0.014 A 
ATOM     26 CL   UNL     1       1.587   3.682   0.605  0.00  0.00    -0.084 Cl
ENDBRANCH  17  20
ENDBRANCH   1  16
BRANCH   1  27
ATOM     27  C   UNL     1       2.077  -4.992   1.402  0.00  0.00    +0.034 C 
BRANCH  27  29
ATOM     28  C   UNL     1       3.219  -4.793   3.615  0.00  0.00    +0.007 C 
ATOM     29  C   UNL     1       3.306  -4.442   2.128  0.00  0.00    -0.015 C 
ATOM     30  C   UNL     1       4.571  -5.062   1.532  0.00  0.00    +0.007 C 
ENDBRANCH  27  29
ENDBRANCH   1  27
TORSDOF 7
