REMARK  Name = ZINC13734567
REMARK  4 active torsions:
REMARK  status: ('A' for Active; 'I' for Inactive)
REMARK    1  A    between atoms: C_1  and  C_2
REMARK    2  A    between atoms: C_3  and  C_8
REMARK    3  A    between atoms: N_6  and  C_7
REMARK    4  A    between atoms: N_17  and  C_20
REMARK                            x       y       z     vdW  Elec       q    Type
REMARK                         _______ _______ _______ _____ _____    ______ ____
ROOT
ATOM      1  C   UNL     1       0.214  -0.372  -2.514  0.00  0.00    +0.083 C 
ATOM      2  N   UNL     1       0.155  -1.194  -3.630  0.00  0.00    -0.264 N 
ATOM      3  O   UNL     1      -0.251  -0.348  -4.724  0.00  0.00    -0.256 OA
ATOM      4  C   UNL     1       0.545   0.816  -4.455  0.00  0.00    +0.272 C 
ATOM      5  C   UNL     1       0.385   0.922  -2.929  0.00  0.00    +0.081 C 
ATOM      6  H   UNL     1       0.347  -2.144  -3.666  0.00  0.00    +0.194 HD
ATOM      7  C   UNL     1       0.399   2.302  -2.720  0.00  0.00    +0.258 C 
ATOM      8  O   UNL     1       0.761   2.855  -1.697  0.00  0.00    -0.269 OA
ATOM      9  N   UNL     1      -0.051   2.926  -3.826  0.00  0.00    -0.204 N 
ATOM     10  C   UNL     1      -0.054   2.114  -4.921  0.00  0.00    +0.263 C 
ATOM     11  O   UNL     1      -0.465   2.372  -6.032  0.00  0.00    -0.271 OA
ENDROOT
BRANCH   9  12
ATOM     12  C   UNL     1      -0.454   4.268  -3.854  0.00  0.00    +0.045 A 
ATOM     13  C   UNL     1      -0.913   4.828  -5.051  0.00  0.00    +0.024 A 
ATOM     14  C   UNL     1      -1.311   6.127  -5.107  0.00  0.00    +0.010 A 
ATOM     15  C   UNL     1      -1.263   6.925  -3.951  0.00  0.00    -0.018 A 
ATOM     16  C   UNL     1      -1.668   8.270  -3.979  0.00  0.00    +0.008 A 
ATOM     17  C   UNL     1      -1.610   9.016  -2.842  0.00  0.00    +0.001 A 
ATOM     18  C   UNL     1      -1.153   8.465  -1.645  0.00  0.00    +0.001 A 
ATOM     19  C   UNL     1      -0.753   7.166  -1.580  0.00  0.00    +0.008 A 
ATOM     20  C   UNL     1      -0.799   6.365  -2.734  0.00  0.00    -0.016 A 
ATOM     21  C   UNL     1      -0.400   5.019  -2.702  0.00  0.00    +0.032 A 
ENDBRANCH   9  12
BRANCH   1  24
ATOM     22  C   UNL     1       0.114  -3.359  -1.527  0.00  0.00    +0.066 C 
ATOM     23  C   UNL     1       0.061  -2.123  -0.668  0.00  0.00    +0.045 A 
ATOM     24  C   UNL     1       0.105  -0.816  -1.112  0.00  0.00    +0.041 A 
ATOM     25  C   UNL     1       0.027   0.015   0.028  0.00  0.00    +0.144 A 
ATOM     26  N   UNL     1      -0.058  -0.750   1.081  0.00  0.00    -0.179 NA
ATOM     27  N   UNL     1      -0.044  -2.088   0.672  0.00  0.00    -0.271 N 
ATOM     28  C   UNL     1      -0.128  -3.255   1.554  0.00  0.00    +0.172 C 
ENDBRANCH   1  24
TORSDOF 2
