REMARK  Name = ZINC36597770
REMARK  13 active torsions:
REMARK  status: ('A' for Active; 'I' for Inactive)
REMARK    1  A    between atoms: C_1  and  C_2
REMARK    2  A    between atoms: C_5  and  C_7
REMARK    3  A    between atoms: C_7  and  N_8
REMARK    4  A    between atoms: N_8  and  C_9
REMARK    5  A    between atoms: C_9  and  C_11
REMARK    6  A    between atoms: C_9  and  C_19
REMARK    7  A    between atoms: N_21  and  C_22
REMARK    8  A    between atoms: C_22  and  C_23
REMARK    9  A    between atoms: C_22  and  C_24
REMARK   10  A    between atoms: C_22  and  C_25
REMARK   11  A    between atoms: C_26  and  C_28
REMARK   12  A    between atoms: C_32  and  O_35
REMARK   13  A    between atoms: C_33  and  O_34
REMARK                            x       y       z     vdW  Elec       q    Type
REMARK                         _______ _______ _______ _____ _____    ______ ____
ROOT
ATOM      1  N   UNL     1       1.963  -3.652  -2.626  0.00  0.00    -0.274 N 
ATOM      2  C   UNL     1       1.866  -4.946  -2.989  0.00  0.00    +0.252 C 
ATOM      3  O   UNL     1       0.781  -5.495  -3.001  0.00  0.00    -0.270 OA
ENDROOT
BRANCH   2   4
ATOM      4  C   UNL     1       3.078  -5.698  -3.370  0.00  0.00    +0.082 A 
ATOM      5  C   UNL     1       4.341  -5.229  -2.998  0.00  0.00    +0.017 A 
ATOM      6  C   UNL     1       5.470  -5.934  -3.355  0.00  0.00    +0.005 A 
ATOM      7  C   UNL     1       5.361  -7.107  -4.084  0.00  0.00    +0.049 A 
ATOM      8  C   UNL     1       4.117  -7.584  -4.460  0.00  0.00    +0.159 A 
ATOM      9  C   UNL     1       2.967  -6.886  -4.101  0.00  0.00    +0.171 A 
BRANCH   9  10
ATOM     10  O   UNL     1       1.745  -7.353  -4.463  0.00  0.00    -0.503 OA
ATOM     11  H   UNL     1       1.438  -7.030  -5.321  0.00  0.00    +0.292 HD
ENDBRANCH   9  10
BRANCH   8  12
ATOM     12  O   UNL     1       4.018  -8.736  -5.175  0.00  0.00    -0.503 OA
ATOM     13  H   UNL     1       3.939  -9.531  -4.630  0.00  0.00    +0.292 HD
ENDBRANCH   8  12
ENDBRANCH   2   4
BRANCH   1  14
ATOM     14  C   UNL     1       0.785  -2.944  -2.118  0.00  0.00    +0.183 C 
BRANCH  14  19
ATOM     15  C   UNL     1      -0.052   0.656  -5.551  0.00  0.00    +0.086 C 
ATOM     16  C   UNL     1      -0.217  -0.597  -4.730  0.00  0.00    +0.102 A 
ATOM     17  C   UNL     1      -1.211  -1.496  -4.857  0.00  0.00    +0.045 A 
ATOM     18  C   UNL     1      -0.976  -2.505  -3.895  0.00  0.00    +0.046 A 
ATOM     19  C   UNL     1       0.147  -2.163  -3.237  0.00  0.00    +0.122 A 
ATOM     20  O   UNL     1       0.605  -1.009  -3.751  0.00  0.00    -0.463 OA
ENDBRANCH  14  19
ENDBRANCH   1  14
BRANCH   1  21
ATOM     21  C   UNL     1       3.245  -2.953  -2.740  0.00  0.00    +0.196 C 
BRANCH  21  22
ATOM     22  C   UNL     1       3.002  -1.520  -3.142  0.00  0.00    +0.018 A 
ATOM     23  C   UNL     1       2.705  -0.573  -2.179  0.00  0.00    +0.048 A 
ATOM     24  C   UNL     1       2.482   0.742  -2.548  0.00  0.00    +0.020 A 
ATOM     25  C   UNL     1       2.556   1.108  -3.879  0.00  0.00    +0.003 A 
ATOM     26  C   UNL     1       2.853   0.162  -4.841  0.00  0.00    +0.020 A 
ATOM     27  C   UNL     1       3.082  -1.152  -4.473  0.00  0.00    +0.048 A 
ATOM     28 CL   UNL     1       3.463  -2.339  -5.681  0.00  0.00    -0.083 Cl
ATOM     29 CL   UNL     1       2.611  -1.033  -0.508  0.00  0.00    -0.083 Cl
ENDBRANCH  21  22
BRANCH  21  30
ATOM     30  C   UNL     1       3.957  -2.988  -1.413  0.00  0.00    +0.239 C 
ATOM     31  O   UNL     1       3.443  -3.543  -0.464  0.00  0.00    -0.273 OA
ATOM     32  N   UNL     1       5.164  -2.404  -1.279  0.00  0.00    -0.309 N 
ATOM     33  H   UNL     1       5.574  -1.960  -2.038  0.00  0.00    +0.149 HD
BRANCH  32  34
ATOM     34  C   UNL     1       5.856  -2.438   0.012  0.00  0.00    +0.026 C 
ATOM     35  C   UNL     1       6.102  -3.892   0.419  0.00  0.00    +0.031 C 
ATOM     36  C   UNL     1       7.195  -1.708  -0.107  0.00  0.00    +0.031 C 
ATOM     37  C   UNL     1       4.992  -1.751   1.072  0.00  0.00    +0.031 C 
ENDBRANCH  32  34
ENDBRANCH  21  30
ENDBRANCH   1  21
TORSDOF 9
