REMARK  Name = ZINC39639380
REMARK  9 active torsions:
REMARK  status: ('A' for Active; 'I' for Inactive)
REMARK    1  A    between atoms: C_1  and  C_2
REMARK    2  A    between atoms: C_2  and  N_3
REMARK    3  A    between atoms: C_4  and  C_10
REMARK    4  A    between atoms: C_6  and  C_8
REMARK    5  A    between atoms: C_14  and  C_23
REMARK    6  A    between atoms: N_25  and  C_26
REMARK    7  A    between atoms: C_26  and  C_28
REMARK    8  A    between atoms: C_26  and  C_29
REMARK    9  A    between atoms: C_32  and  C_35
REMARK                            x       y       z     vdW  Elec       q    Type
REMARK                         _______ _______ _______ _____ _____    ______ ____
ROOT
ATOM      1  C   UNL     1      -1.622  -0.654  -2.603  0.00  0.00    +0.266 C 
ATOM      2  O   UNL     1      -2.121  -0.998  -3.658  0.00  0.00    -0.268 OA
ATOM      3  N   UNL     1      -2.403  -0.198  -1.605  0.00  0.00    -0.295 N 
ATOM      4  C   UNL     1      -1.992   0.191  -0.235  0.00  0.00    +0.121 C 
ATOM      5  C   UNL     1      -2.840   1.442   0.087  0.00  0.00    +0.100 C 
ATOM      6  C   UNL     1      -4.070   1.328  -0.829  0.00  0.00    -0.004 C 
ATOM      7  C   UNL     1      -3.867   0.034  -1.630  0.00  0.00    +0.115 C 
ATOM      8  C   UNL     1      -4.136   2.523  -1.776  0.00  0.00    -0.010 C 
ATOM      9  C   UNL     1      -5.398   2.416  -2.636  0.00  0.00    -0.082 C 
ATOM     10  N   UNL     1      -6.583   2.387  -1.770  0.00  0.00    +0.379 N 
ATOM     11  C   UNL     1      -6.557   1.186  -0.927  0.00  0.00    -0.082 C 
ATOM     12  C   UNL     1      -5.344   1.240   0.006  0.00  0.00    -0.010 C 
ATOM     13  H   UNL     1      -6.589   3.208  -1.183  0.00  0.00    -0.086 HD
ATOM     14  H   UNL     1      -7.415   2.379  -2.341  0.00  0.00    -0.086 HD
ENDROOT
BRANCH   1  16
ATOM     15  N   UNL     1       0.541  -1.789  -1.910  0.00  0.00    -0.258 N 
ATOM     16  C   UNL     1      -0.165  -0.735  -2.419  0.00  0.00    +0.138 A 
ATOM     17  C   UNL     1       0.768   0.242  -2.726  0.00  0.00    +0.071 A 
ATOM     18  C   UNL     1       2.005  -0.303  -2.373  0.00  0.00    +0.075 A 
ATOM     19  N   UNL     1       1.793  -1.502  -1.894  0.00  0.00    -0.175 NA
ATOM     20  C   UNL     1       3.345   0.372  -2.513  0.00  0.00    +0.069 C 
ATOM     21 BR   UNL     1       0.437   1.951  -3.467  0.00  0.00    -0.046 Br
BRANCH  15  23
ATOM     22  C   UNL     1      -0.467  -2.911   0.015  0.00  0.00    +0.029 C 
ATOM     23  C   UNL     1      -0.042  -3.051  -1.448  0.00  0.00    +0.141 C 
ENDBRANCH  15  23
ENDBRANCH   1  16
BRANCH   5  24
ATOM     24  C   UNL     1      -2.065   2.696  -0.225  0.00  0.00    +0.219 C 
ATOM     25  O   UNL     1      -1.292   2.714  -1.160  0.00  0.00    -0.275 OA
ATOM     26  N   UNL     1      -2.229   3.796   0.535  0.00  0.00    -0.308 N 
ATOM     27  H   UNL     1      -2.792   3.761   1.325  0.00  0.00    +0.149 HD
BRANCH  26  28
ATOM     28  C   UNL     1      -1.558   5.046   0.169  0.00  0.00    +0.100 C 
ATOM     29  C   UNL     1      -2.410   5.803  -0.852  0.00  0.00    +0.033 C 
BRANCH  28  30
ATOM     30  C   UNL     1      -1.375   5.897   1.399  0.00  0.00    -0.027 A 
ATOM     31  C   UNL     1      -2.378   5.966   2.348  0.00  0.00    +0.006 A 
ATOM     32  C   UNL     1      -2.210   6.746   3.477  0.00  0.00    +0.004 A 
ATOM     33  C   UNL     1      -1.038   7.457   3.657  0.00  0.00    -0.050 A 
ATOM     34  C   UNL     1      -0.035   7.388   2.709  0.00  0.00    +0.004 A 
ATOM     35  C   UNL     1      -0.201   6.604   1.582  0.00  0.00    +0.006 A 
ATOM     36  C   UNL     1      -0.855   8.309   4.887  0.00  0.00    +0.044 C 
ENDBRANCH  28  30
ENDBRANCH  26  28
ENDBRANCH   5  24
TORSDOF 5
