REMARK  Name = ZINC09007578
REMARK  12 active torsions:
REMARK  status: ('A' for Active; 'I' for Inactive)
REMARK    1  A    between atoms: C_1  and  C_2
REMARK    2  A    between atoms: N_6  and  O_7
REMARK    3  A    between atoms: O_7  and  C_8
REMARK    4  A    between atoms: C_8  and  C_9
REMARK    5  A    between atoms: N_11  and  C_12
REMARK    6  A    between atoms: C_12  and  C_14
REMARK    7  A    between atoms: C_12  and  C_20
REMARK    8  A    between atoms: C_20  and  O_22
REMARK    9  A    between atoms: O_22  and  C_23
REMARK   10  A    between atoms: C_34  and  C_43
REMARK   11  A    between atoms: C_39  and  C_40
REMARK   12  A    between atoms: C_39  and  O_42
REMARK                            x       y       z     vdW  Elec       q    Type
REMARK                         _______ _______ _______ _____ _____    ______ ____
ROOT
ATOM      1  C   UNL     1      -0.700  -8.751   6.596  0.00  0.00    +0.016 C 
ATOM      2  C   UNL     1       0.613  -8.005   6.354  0.00  0.00    -0.007 C 
ATOM      3  C   UNL     1       1.342  -8.586   5.149  0.00  0.00    +0.017 C 
ATOM      4  C   UNL     1       0.523  -8.367   3.876  0.00  0.00    +0.059 C 
ATOM      5  C   UNL     1       0.187  -6.904   3.736  0.00  0.00    +0.080 C 
ATOM      6  N   UNL     1      -0.053  -6.404   2.565  0.00  0.00    -0.089 NA
ATOM      7  C   UNL     1       0.133  -6.045   4.925  0.00  0.00    +0.026 C 
ATOM      8  C   UNL     1       0.330  -6.537   6.136  0.00  0.00    -0.062 C 
ATOM      9  C   UNL     1       0.280  -5.634   7.348  0.00  0.00    +0.031 C 
ATOM     10  C   UNL     1       1.657  -5.629   8.021  0.00  0.00    +0.008 C 
ATOM     11  C   UNL     1       2.416  -6.894   7.654  0.00  0.00    -0.003 C 
ATOM     12  C   UNL     1       1.493  -8.110   7.609  0.00  0.00    +0.002 C 
ATOM     13  C   UNL     1       2.322  -9.389   7.587  0.00  0.00    +0.005 C 
ATOM     14  C   UNL     1       3.080  -9.586   8.909  0.00  0.00    +0.011 C 
ATOM     15  C   UNL     1       3.384  -8.263   9.557  0.00  0.00    +0.011 C 
ATOM     16  C   UNL     1       3.621  -7.157   8.510  0.00  0.00    +0.002 C 
ATOM     17  C   UNL     1       4.104  -5.982   9.375  0.00  0.00    +0.008 C 
ATOM     18  C   UNL     1       4.962  -6.659  10.476  0.00  0.00    +0.049 C 
ATOM     19  C   UNL     1       4.684  -8.182  10.378  0.00  0.00    +0.132 C 
ATOM     20  C   UNL     1       2.247  -7.884  10.523  0.00  0.00    +0.015 C 
ENDROOT
BRANCH  19  21
ATOM     21  C   UNL     1       5.807  -8.853   9.718  0.00  0.00    -0.070 C 
ATOM     22  C   UNL     1       6.707  -9.390   9.189  0.00  0.00    +0.007 C 
ENDBRANCH  19  21
BRANCH  19  23
ATOM     23  O   UNL     1       4.465  -8.726  11.681  0.00  0.00    -0.376 OA
ATOM     24  H   UNL     1       5.246  -8.706  12.251  0.00  0.00    +0.211 HD
ENDBRANCH  19  23
BRANCH   6  25
ATOM     25  O   UNL     1      -0.369  -5.030   2.434  0.00  0.00    -0.384 OA
BRANCH  25  26
ATOM     26  C   UNL     1      -0.609  -4.615   1.087  0.00  0.00    +0.358 C 
BRANCH  26  27
ATOM     27  C   UNL     1      -0.934  -3.143   1.066  0.00  0.00    +0.254 C 
ATOM     28  O   UNL     1      -0.958  -2.512   2.101  0.00  0.00    -0.272 OA
ATOM     29  N   UNL     1      -1.199  -2.529  -0.104  0.00  0.00    -0.296 N 
ATOM     30  H   UNL     1      -1.181  -3.034  -0.932  0.00  0.00    +0.150 HD
BRANCH  29  31
ATOM     31  C   UNL     1      -1.515  -1.098  -0.125  0.00  0.00    +0.213 C 
BRANCH  31  32
ATOM     32  C   UNL     1      -2.338  -0.784  -1.348  0.00  0.00    -0.017 A 
ATOM     33  C   UNL     1      -2.036  -1.381  -2.557  0.00  0.00    +0.006 A 
ATOM     34  C   UNL     1      -2.794  -1.096  -3.677  0.00  0.00    +0.000 A 
ATOM     35  C   UNL     1      -3.848  -0.206  -3.590  0.00  0.00    +0.000 A 
ATOM     36  C   UNL     1      -4.147   0.395  -2.382  0.00  0.00    +0.000 A 
ATOM     37  C   UNL     1      -3.393   0.106  -1.261  0.00  0.00    +0.006 A 
ENDBRANCH  31  32
BRANCH  31  38
ATOM     38  C   UNL     1      -0.236  -0.302  -0.162  0.00  0.00    +0.332 C 
ATOM     39  O   UNL     1       0.830  -0.871  -0.170  0.00  0.00    -0.248 OA
BRANCH  38  40
ATOM     40  O   UNL     1      -0.282   1.039  -0.186  0.00  0.00    -0.466 OA
ATOM     41  C   UNL     1       0.989   1.741  -0.221  0.00  0.00    +0.280 C 
ENDBRANCH  38  40
ENDBRANCH  31  38
ENDBRANCH  29  31
ENDBRANCH  26  27
ENDBRANCH  25  26
ENDBRANCH   6  25
TORSDOF 9
