REMARK  Name = ZINC16115704
REMARK  7 active torsions:
REMARK  status: ('A' for Active; 'I' for Inactive)
REMARK    1  A    between atoms: N_9  and  C_26
REMARK    2  A    between atoms: C_10  and  S_12
REMARK    3  A    between atoms: S_12  and  C_13
REMARK    4  A    between atoms: C_13  and  C_14
REMARK    5  A    between atoms: C_17  and  C_23
REMARK    6  A    between atoms: C_19  and  N_20
REMARK    7  A    between atoms: C_26  and  C_27
REMARK                            x       y       z     vdW  Elec       q    Type
REMARK                         _______ _______ _______ _____ _____    ______ ____
ROOT
ATOM      1  C   UNL     1       5.539   3.423  -2.118  0.00  0.00    +0.001 A 
ATOM      2  C   UNL     1       6.155   3.425  -0.873  0.00  0.00    +0.002 A 
ATOM      3  C   UNL     1       5.435   3.203   0.267  0.00  0.00    +0.028 A 
ATOM      4  C   UNL     1       4.059   2.971   0.183  0.00  0.00    +0.079 A 
ATOM      5  C   UNL     1       3.436   2.970  -1.086  0.00  0.00    +0.065 A 
ATOM      6  C   UNL     1       4.195   3.199  -2.233  0.00  0.00    +0.015 A 
ATOM      7  C   UNL     1       1.989   2.725  -1.149  0.00  0.00    +0.263 A 
ATOM      8  O   UNL     1       1.396   2.712  -2.212  0.00  0.00    -0.267 OA
ATOM      9  N   UNL     1       1.340   2.514   0.020  0.00  0.00    -0.280 N 
ATOM     10  C   UNL     1       2.021   2.538   1.204  0.00  0.00    +0.173 A 
ATOM     11  N   UNL     1       3.311   2.749   1.282  0.00  0.00    -0.223 NA
ENDROOT
BRANCH  10  12
ATOM     12  S   UNL     1       1.122   2.263   2.695  0.00  0.00    -0.083 S 
BRANCH  12  13
ATOM     13  C   UNL     1       2.465   2.399   3.900  0.00  0.00    +0.114 C 
BRANCH  13  14
ATOM     14  C   UNL     1       1.916   2.193   5.289  0.00  0.00    -0.007 A 
ATOM     15  C   UNL     1       2.000   0.947   5.885  0.00  0.00    +0.007 A 
ATOM     16  C   UNL     1       1.500   0.753   7.155  0.00  0.00    +0.013 A 
ATOM     17  C   UNL     1       0.909   1.816   7.840  0.00  0.00    +0.039 A 
ATOM     18  C   UNL     1       0.828   3.070   7.234  0.00  0.00    +0.046 A 
ATOM     19  C   UNL     1       1.337   3.253   5.964  0.00  0.00    +0.131 A 
BRANCH  17  20
ATOM     20  C   UNL     1       0.371   1.614   9.203  0.00  0.00    +0.242 C 
ATOM     21  O   UNL     1      -0.143   2.542   9.797  0.00  0.00    -0.270 OA
ATOM     22  N   UNL     1       0.451   0.402   9.786  0.00  0.00    -0.325 N 
ATOM     23  H   UNL     1       0.861  -0.339   9.312  0.00  0.00    +0.145 HD
ATOM     24  H   UNL     1       0.098   0.269  10.680  0.00  0.00    +0.145 HD
ENDBRANCH  17  20
BRANCH  19  25
ATOM     25  N   UNL     1       1.257   4.583   5.321  0.00  0.00    +0.057 N 
ATOM     26  O   UNL     1       0.851   5.542   5.953  0.00  0.00    -0.126 OA
ATOM     27  O   UNL     1       1.598   4.720   4.160  0.00  0.00    -0.126 OA
ENDBRANCH  19  25
ENDBRANCH  13  14
ENDBRANCH  12  13
ENDBRANCH  10  12
BRANCH   9  28
ATOM     28  C   UNL     1      -0.104   2.265   0.015  0.00  0.00    +0.201 C 
BRANCH  28  29
ATOM     29  C   UNL     1      -0.358   0.785  -0.104  0.00  0.00    +0.125 A 
ATOM     30  C   UNL     1      -0.473  -0.079   0.921  0.00  0.00    +0.046 A 
ATOM     31  C   UNL     1      -0.708  -1.354   0.358  0.00  0.00    +0.041 A 
ATOM     32  C   UNL     1      -0.715  -1.195  -0.978  0.00  0.00    +0.195 A 
ATOM     33  O   UNL     1      -0.502   0.103  -1.252  0.00  0.00    -0.466 OA
ENDBRANCH  28  29
ENDBRANCH   9  28
TORSDOF 7
