REMARK  Name = ZINC60274720
REMARK  3 active torsions:
REMARK  status: ('A' for Active; 'I' for Inactive)
REMARK    1  A    between atoms: C_8  and  C_11
REMARK    2  A    between atoms: C_17  and  C_20
REMARK    3  A    between atoms: C_20  and  N_21
REMARK                            x       y       z     vdW  Elec       q    Type
REMARK                         _______ _______ _______ _____ _____    ______ ____
ROOT
ATOM      1  C   UNL     1       3.241  -2.263  -2.004  0.00  0.00    +0.257 C 
ATOM      2  O   UNL     1       3.710  -1.359  -2.664  0.00  0.00    -0.272 OA
ATOM      3  N   UNL     1       2.837  -3.398  -2.607  0.00  0.00    -0.298 N 
ATOM      4  C   UNL     1       2.262  -4.499  -1.822  0.00  0.00    +0.108 C 
ATOM      5  C   UNL     1       0.903  -4.875  -2.421  0.00  0.00    +0.019 C 
ATOM      6  C   UNL     1       1.075  -5.187  -3.909  0.00  0.00    +0.008 C 
ATOM      7  C   UNL     1       1.596  -3.945  -4.636  0.00  0.00    +0.020 C 
ATOM      8  C   UNL     1       2.958  -3.557  -4.063  0.00  0.00    +0.112 C 
ENDROOT
BRANCH   1  16
ATOM      9  C   UNL     1       0.112   1.441  -0.061  0.00  0.00    +0.000 A 
ATOM     10  C   UNL     1       1.312   2.127  -0.082  0.00  0.00    +0.004 A 
ATOM     11  C   UNL     1       2.508   1.439  -0.093  0.00  0.00    +0.046 A 
ATOM     12  C   UNL     1       2.516   0.046  -0.084  0.00  0.00    +0.125 A 
ATOM     13  C   UNL     1       1.304  -0.631  -0.070  0.00  0.00    -0.002 A 
ATOM     14  C   UNL     1       0.111   0.057  -0.054  0.00  0.00    +0.007 A 
ATOM     15  C   UNL     1       1.623  -2.114  -0.087  0.00  0.00    +0.093 C 
ATOM     16  C   UNL     1       3.111  -2.115  -0.510  0.00  0.00    +0.263 C 
ATOM     17  O   UNL     1       3.565  -0.821  -0.081  0.00  0.00    -0.479 OA
ENDBRANCH   1  16
BRANCH   7  18
ATOM     18  C   UNL     1       1.736  -4.248  -6.129  0.00  0.00    +0.089 C 
BRANCH  18  19
ATOM     19  N   UNL     1       0.408  -4.504  -6.703  0.00  0.00    -0.299 NA
ATOM     20  C   UNL     1      -0.426  -3.296  -6.660  0.00  0.00    +0.103 C 
ATOM     21  C   UNL     1      -1.853  -3.648  -7.097  0.00  0.00    +0.122 C 
ATOM     22  N   UNL     1      -1.790  -4.314  -8.406  0.00  0.00    -0.314 N 
ATOM     23  C   UNL     1      -0.870  -5.452  -8.565  0.00  0.00    +0.122 C 
ATOM     24  C   UNL     1       0.517  -5.028  -8.071  0.00  0.00    +0.103 C 
ATOM     25  C   UNL     1      -2.577  -3.881  -9.466  0.00  0.00    +0.099 A 
ATOM     26  C   UNL     1      -2.412  -4.448 -10.726  0.00  0.00    +0.042 A 
ATOM     27  C   UNL     1      -3.203  -4.007 -11.771  0.00  0.00    +0.005 A 
ATOM     28  C   UNL     1      -4.136  -3.010 -11.521  0.00  0.00    +0.018 A 
ATOM     29  C   UNL     1      -4.246  -2.491 -10.247  0.00  0.00    +0.084 A 
ATOM     30  N   UNL     1      -3.482  -2.935  -9.267  0.00  0.00    -0.350 N 
ATOM     31  H   UNL     1      -3.583  -2.556  -8.380  0.00  0.00    +0.166 HD
ENDBRANCH  18  19
ENDBRANCH   7  18
TORSDOF 3
