REMARK  Name = ZINC63532960
REMARK  8 active torsions:
REMARK  status: ('A' for Active; 'I' for Inactive)
REMARK    1  A    between atoms: C_1  and  C_2
REMARK    2  A    between atoms: C_8  and  C_11
REMARK    3  A    between atoms: C_11  and  C_12
REMARK    4  A    between atoms: C_12  and  N_13
REMARK    5  A    between atoms: C_14  and  C_16
REMARK    6  A    between atoms: C_19  and  C_23
REMARK    7  A    between atoms: C_26  and  O_29
REMARK    8  A    between atoms: O_29  and  C_30
REMARK                            x       y       z     vdW  Elec       q    Type
REMARK                         _______ _______ _______ _____ _____    ______ ____
ROOT
ATOM      1  N   UNL     1      -1.377  -2.600   5.613  0.00  0.00    -0.313 N 
ATOM      2  C   UNL     1      -2.537  -2.599   6.299  0.00  0.00    +0.244 C 
ATOM      3  O   UNL     1      -3.583  -2.808   5.722  0.00  0.00    -0.273 OA
ATOM      4  H   UNL     1      -0.540  -2.433   6.075  0.00  0.00    +0.149 HD
ENDROOT
BRANCH   2   5
ATOM      5  C   UNL     1      -2.534  -2.338   7.783  0.00  0.00    +0.229 C 
ATOM      6  C   UNL     1      -2.104  -0.884   8.077  0.00  0.00    +0.069 C 
ATOM      7  C   UNL     1      -2.997  -0.450   9.259  0.00  0.00    +0.114 C 
ATOM      8  N   UNL     1      -3.830  -1.637   9.567  0.00  0.00    -0.193 NA
ATOM      9  O   UNL     1      -3.877  -2.422   8.315  0.00  0.00    -0.286 OA
ATOM     10  H   UNL     1      -4.757  -1.362   9.857  0.00  0.00    +0.155 HD
BRANCH   7  11
ATOM     11  C   UNL     1      -2.148  -0.081  10.448  0.00  0.00    -0.028 A 
ATOM     12  C   UNL     1      -1.626  -1.073  11.258  0.00  0.00    +0.009 A 
ATOM     13  C   UNL     1      -0.848  -0.737  12.349  0.00  0.00    +0.046 A 
ATOM     14  C   UNL     1      -0.590   0.597  12.632  0.00  0.00    +0.120 A 
ATOM     15  C   UNL     1      -1.115   1.590  11.817  0.00  0.00    +0.046 A 
ATOM     16  C   UNL     1      -1.888   1.248  10.725  0.00  0.00    +0.009 A 
BRANCH  14  17
ATOM     17  O   UNL     1       0.174   0.930  13.704  0.00  0.00    -0.495 OA
ATOM     18  C   UNL     1       0.398   2.322  13.935  0.00  0.00    +0.277 C 
ENDBRANCH  14  17
ENDBRANCH   7  11
ENDBRANCH   2   5
BRANCH   1  19
ATOM     19  C   UNL     1      -1.379  -2.854   4.170  0.00  0.00    +0.108 C 
BRANCH  19  20
ATOM     20  C   UNL     1       0.055  -2.799   3.641  0.00  0.00    +0.052 C 
BRANCH  20  28
ATOM     21  C   UNL     1      -0.018   1.503   0.010  0.00  0.00    +0.044 C 
ATOM     22  C   UNL     1       0.002  -0.004   0.002  0.00  0.00    -0.050 A 
ATOM     23  C   UNL     1       0.005  -0.680  -1.226  0.00  0.00    +0.005 A 
ATOM     24  C   UNL     1       0.023  -2.026  -1.317  0.00  0.00    +0.026 A 
ATOM     25  C   UNL     1       0.039  -2.826  -0.141  0.00  0.00    +0.043 A 
ATOM     26  N   UNL     1       0.057  -4.126   0.030  0.00  0.00    -0.380 N 
ATOM     27  C   UNL     1       0.067  -4.408   1.470  0.00  0.00    +0.144 C 
ATOM     28  C   UNL     1       0.052  -3.060   2.156  0.00  0.00    -0.040 C 
ATOM     29  C   UNL     1       0.036  -2.137   1.168  0.00  0.00    -0.001 A 
ATOM     30  C   UNL     1       0.022  -0.669   1.180  0.00  0.00    +0.013 A 
ATOM     31  H   UNL     1       0.062  -4.790  -0.677  0.00  0.00    +0.160 HD
ENDBRANCH  20  28
ENDBRANCH  19  20
ENDBRANCH   1  19
TORSDOF 6
