REMARK  Name = ZINC00462563
REMARK  8 active torsions:
REMARK  status: ('A' for Active; 'I' for Inactive)
REMARK    1  A    between atoms: C_1  and  C_2
REMARK    2  A    between atoms: C_2  and  C_3
REMARK    3  A    between atoms: C_2  and  C_4
REMARK    4  A    between atoms: C_2  and  C_5
REMARK    5  A    between atoms: N_7  and  C_8
REMARK    6  A    between atoms: C_8  and  N_10
REMARK    7  A    between atoms: N_10  and  C_11
REMARK    8  A    between atoms: C_12  and  C_19
REMARK                            x       y       z     vdW  Elec       q    Type
REMARK                         _______ _______ _______ _____ _____    ______ ____
ROOT
ATOM      1  C   UNL     1       2.265  -4.016  -3.930  0.00  0.00    +0.084 A 
ATOM      2  C   UNL     1       2.493  -5.322  -4.322  0.00  0.00    +0.068 A 
ATOM      3  C   UNL     1       3.207  -5.529  -5.581  0.00  0.00    -0.023 A 
ATOM      4  C   UNL     1       3.557  -4.391  -6.206  0.00  0.00    -0.004 A 
ATOM      5  S   UNL     1       2.947  -3.097  -5.156  0.00  0.00    -0.077 S 
ATOM      6  C   UNL     1       4.292  -4.660  -7.492  0.00  0.00    +0.043 C 
ATOM      7  C   UNL     1       4.737  -6.135  -7.385  0.00  0.00    +0.010 C 
ATOM      8  C   UNL     1       3.684  -6.713  -6.419  0.00  0.00    +0.037 C 
ENDROOT
BRANCH   2   9
ATOM      9  C   UNL     1       2.039  -6.453  -3.508  0.00  0.00    +0.244 C 
ATOM     10  O   UNL     1       0.933  -6.928  -3.689  0.00  0.00    -0.270 OA
ATOM     11  N   UNL     1       2.845  -6.968  -2.559  0.00  0.00    -0.325 N 
ATOM     12  H   UNL     1       3.727  -6.590  -2.414  0.00  0.00    +0.145 HD
ATOM     13  H   UNL     1       2.545  -7.716  -2.020  0.00  0.00    +0.145 HD
ENDBRANCH   2   9
BRANCH   1  14
ATOM     14  N   UNL     1       1.616  -3.569  -2.790  0.00  0.00    -0.291 N 
ATOM     15  H   UNL     1       1.262  -4.208  -2.152  0.00  0.00    +0.154 HD
BRANCH  14  16
ATOM     16  C   UNL     1       1.477  -2.247  -2.568  0.00  0.00    +0.141 C 
ATOM     17  S   UNL     1       2.102  -1.119  -3.695  0.00  0.00    -0.018 S 
BRANCH  16  20
ATOM     18  C   UNL     1       0.707  -0.490  -1.238  0.00  0.00    +0.224 C 
ATOM     19  O   UNL     1       1.150   0.308  -2.036  0.00  0.00    -0.275 OA
ATOM     20  N   UNL     1       0.847  -1.812  -1.460  0.00  0.00    -0.267 N 
ATOM     21  H   UNL     1       0.493  -2.451  -0.821  0.00  0.00    +0.157 HD
BRANCH  18  23
ATOM     22  C   UNL     1      -0.019   1.526   0.010  0.00  0.00    +0.020 C 
ATOM     23  C   UNL     1       0.002  -0.004   0.002  0.00  0.00    +0.039 C 
ATOM     24  C   UNL     1       0.742  -0.511   1.242  0.00  0.00    +0.020 C 
ATOM     25  C   UNL     1      -1.433  -0.534   0.013  0.00  0.00    +0.020 C 
ENDBRANCH  18  23
ENDBRANCH  16  20
ENDBRANCH  14  16
ENDBRANCH   1  14
TORSDOF 5
