REMARK  Name = ZINC12595082
REMARK  6 active torsions:
REMARK  status: ('A' for Active; 'I' for Inactive)
REMARK    1  A    between atoms: C_3  and  O_22
REMARK    2  A    between atoms: C_7  and  N_50
REMARK    3  A    between atoms: C_12  and  C_13
REMARK    4  A    between atoms: C_12  and  N_52
REMARK    5  A    between atoms: C_15  and  C_18
REMARK    6  A    between atoms: C_18  and  C_19
REMARK                            x       y       z     vdW  Elec       q    Type
REMARK                         _______ _______ _______ _____ _____    ______ ____
ROOT
ATOM      1  C   UNL     1      -0.764   3.110   1.262  0.00  0.00    -0.072 C 
ATOM      2  C   UNL     1      -0.729   1.579   1.267  0.00  0.00    -0.034 C 
ATOM      3  C   UNL     1      -0.013   1.086   0.008  0.00  0.00    -0.080 C 
ATOM      4  C   UNL     1      -0.729   3.040  -1.234  0.00  0.00    -0.080 C 
ATOM      5  C   UNL     1      -1.466   3.591  -0.011  0.00  0.00    -0.034 C 
ATOM      6  N   UNL     1      -0.751   1.562  -1.181  0.00  0.00    +0.385 N 
ATOM      7  H   UNL     1      -1.726   1.246  -1.117  0.00  0.00    -0.081 HD
ENDROOT
BRANCH   1  13
ATOM      8  C   UNL     1      -3.674   3.797   3.551  0.00  0.00    -0.016 C 
ATOM      9  C   UNL     1      -3.037   3.365   4.875  0.00  0.00    +0.027 C 
ATOM     10  C   UNL     1      -1.562   3.778   4.881  0.00  0.00    +0.098 C 
ATOM     11  C   UNL     1      -0.855   3.144   3.681  0.00  0.00    -0.047 C 
ATOM     12  C   UNL     1      -2.906   3.162   2.390  0.00  0.00    -0.078 C 
ATOM     13  N   UNL     1      -1.500   3.618   2.438  0.00  0.00    +0.383 N 
ATOM     14  H   UNL     1      -1.482   4.645   2.424  0.00  0.00    -0.081 HD
BRANCH  10  15
ATOM     15  O   UNL     1      -0.946   3.330   6.089  0.00  0.00    -0.394 OA
ATOM     16  H   UNL     1      -1.344   3.693   6.892  0.00  0.00    +0.210 HD
ENDBRANCH  10  15
ENDBRANCH   1  13
BRANCH   6  17
ATOM     17  C   UNL     1      -0.145   1.005  -2.408  0.00  0.00    +0.022 C 
BRANCH  17  18
ATOM     18  C   UNL     1      -1.039   1.323  -3.578  0.00  0.00    +0.211 A 
ATOM     19  N   UNL     1      -0.973   2.385  -4.345  0.00  0.00    -0.198 NA
ATOM     20  C   UNL     1      -1.958   2.241  -5.249  0.00  0.00    +0.172 A 
ATOM     21  N   UNL     1      -2.567   1.124  -4.986  0.00  0.00    -0.061 NA
ATOM     22  O   UNL     1      -2.054   0.581  -4.030  0.00  0.00    -0.340 OA
BRANCH  20  23
ATOM     23  C   UNL     1      -2.298   3.202  -6.359  0.00  0.00    +0.083 C 
BRANCH  23  24
ATOM     24  C   UNL     1      -3.316   4.227  -5.853  0.00  0.00    -0.004 C 
ATOM     25  C   UNL     1      -4.696   4.237  -6.514  0.00  0.00    +0.004 C 
ATOM     26  C   UNL     1      -3.702   5.365  -6.800  0.00  0.00    +0.004 C 
ENDBRANCH  23  24
ENDBRANCH  20  23
ENDBRANCH  17  18
ENDBRANCH   6  17
TORSDOF 6
