REMARK  Name = ZINC24907363
REMARK  5 active torsions:
REMARK  status: ('A' for Active; 'I' for Inactive)
REMARK    1  A    between atoms: C_3  and  C_6
REMARK    2  A    between atoms: C_6  and  N_7
REMARK    3  A    between atoms: C_13  and  C_16
REMARK    4  A    between atoms: C_16  and  N_17
REMARK    5  A    between atoms: C_22  and  C_28
REMARK                            x       y       z     vdW  Elec       q    Type
REMARK                         _______ _______ _______ _____ _____    ______ ____
ROOT
ATOM      1  C   UNL     1      -0.757   2.030  -1.234  0.00  0.00    +0.106 C 
ENDROOT
BRANCH   1   2
ATOM      2  N   UNL     1      -0.882   3.489  -1.168  0.00  0.00    -0.328 N 
ATOM      3  C   UNL     1      -1.518   4.176  -2.186  0.00  0.00    +0.128 A 
ATOM      4  C   UNL     1      -1.646   5.580  -2.122  0.00  0.00    +0.040 A 
ATOM      5  C   UNL     1      -1.143   6.327  -1.047  0.00  0.00    +0.015 A 
ATOM      6  C   UNL     1      -1.314   7.685  -1.071  0.00  0.00    +0.033 A 
ATOM      7  C   UNL     1      -1.970   8.284  -2.142  0.00  0.00    +0.144 A 
ATOM      8  N   UNL     1      -2.430   7.582  -3.152  0.00  0.00    -0.243 NA
ATOM      9  C   UNL     1      -2.300   6.255  -3.184  0.00  0.00    +0.076 A 
ATOM     10  C   UNL     1      -2.801   5.481  -4.249  0.00  0.00    +0.048 A 
ATOM     11  C   UNL     1      -2.635   4.132  -4.219  0.00  0.00    +0.115 A 
ATOM     12  N   UNL     1      -2.015   3.520  -3.219  0.00  0.00    -0.240 NA
ATOM     13  H   UNL     1      -0.469   4.037  -0.308  0.00  0.00    +0.147 HD
BRANCH   7  14
ATOM     14  C   UNL     1      -2.147   9.781  -2.149  0.00  0.00    +0.434 C 
ATOM     15  F   UNL     1      -1.051  10.377  -2.782  0.00  0.00    -0.164 F 
ATOM     16  F   UNL     1      -3.319  10.109  -2.839  0.00  0.00    -0.164 F 
ATOM     17  F   UNL     1      -2.236  10.246  -0.833  0.00  0.00    -0.164 F 
ENDBRANCH   7  14
ENDBRANCH   1   2
BRANCH   1  24
ATOM     18  N   UNL     1       4.368  -0.072   1.430  0.00  0.00    -0.292 N 
ATOM     19  C   UNL     1       3.149  -0.646   1.466  0.00  0.00    +0.303 C 
ATOM     20  O   UNL     1       3.047  -1.847   1.619  0.00  0.00    -0.253 OA
ATOM     21  N   UNL     1       2.043   0.113   1.332  0.00  0.00    -0.286 N 
ATOM     22  C   UNL     1       0.714  -0.508   1.259  0.00  0.00    +0.109 C 
ATOM     23  C   UNL     1       0.003  -0.005  -0.001  0.00  0.00    +0.024 C 
ATOM     24  C   UNL     1      -0.018   1.525   0.006  0.00  0.00    +0.009 C 
ATOM     25  C   UNL     1       1.417   2.056  -0.004  0.00  0.00    +0.024 C 
ATOM     26  C   UNL     1       2.144   1.577   1.257  0.00  0.00    +0.109 C 
ATOM     27  H   UNL     1       4.460   1.023   1.375  0.00  0.00    +0.151 HD
BRANCH  18  28
ATOM     28  C   UNL     1       5.572  -0.906   1.463  0.00  0.00    +0.180 C 
BRANCH  28  31
ATOM     29  C   UNL     1       8.522   1.244   1.971  0.00  0.00    +0.041 A 
ATOM     30  C   UNL     1       7.440   0.486   2.475  0.00  0.00    +0.046 A 
ATOM     31  C   UNL     1       6.795  -0.027   1.412  0.00  0.00    +0.122 A 
ATOM     32  O   UNL     1       7.428   0.373   0.298  0.00  0.00    -0.466 OA
ATOM     33  C   UNL     1       8.473   1.149   0.631  0.00  0.00    +0.195 A 
ENDBRANCH  28  31
ENDBRANCH  18  28
ENDBRANCH   1  24
TORSDOF 5
