REMARK  Name = ZINC24144186
REMARK  7 active torsions:
REMARK  status: ('A' for Active; 'I' for Inactive)
REMARK    1  A    between atoms: C_7  and  N_12
REMARK    2  A    between atoms: C_13  and  C_15
REMARK    3  A    between atoms: C_15  and  S_16
REMARK    4  A    between atoms: S_16  and  C_17
REMARK    5  A    between atoms: C_20  and  C_29
REMARK    6  A    between atoms: N_21  and  C_22
REMARK    7  A    between atoms: C_29  and  N_30
REMARK                            x       y       z     vdW  Elec       q    Type
REMARK                         _______ _______ _______ _____ _____    ______ ____
ROOT
ATOM      1  C   UNL     1      -2.466   4.129   1.127  0.00  0.00    +0.197 A 
ATOM      2  N   UNL     1      -3.591   4.768   0.904  0.00  0.00    -0.122 NA
ATOM      3  N   UNL     1      -3.988   4.547  -0.298  0.00  0.00    -0.135 NA
ATOM      4  C   UNL     1      -3.146   3.766  -0.913  0.00  0.00    +0.122 A 
ATOM      5  N   UNL     1      -2.142   3.473  -0.029  0.00  0.00    -0.276 N 
ENDROOT
BRANCH   5   6
ATOM      6  C   UNL     1      -1.018   2.664  -0.259  0.00  0.00    +0.050 A 
ATOM      7  C   UNL     1      -1.177   1.305  -0.494  0.00  0.00    +0.029 A 
ATOM      8  C   UNL     1      -0.070   0.510  -0.715  0.00  0.00    +0.040 A 
ATOM      9  C   UNL     1       1.197   1.069  -0.712  0.00  0.00    +0.124 A 
ATOM     10  C   UNL     1       1.357   2.425  -0.483  0.00  0.00    +0.040 A 
ATOM     11  C   UNL     1       0.252   3.223  -0.257  0.00  0.00    +0.029 A 
ATOM     12  F   UNL     1       2.278   0.290  -0.933  0.00  0.00    -0.205 F 
ENDBRANCH   5   6
BRANCH   1  13
ATOM     13  S   UNL     1      -1.545   4.121   2.629  0.00  0.00    -0.076 S 
BRANCH  13  14
ATOM     14  C   UNL     1      -2.595   5.189   3.647  0.00  0.00    +0.173 C 
BRANCH  14  16
ATOM     15  N   UNL     1      -2.599   6.087   5.952  0.00  0.00    -0.308 N 
ATOM     16  C   UNL     1      -1.987   5.332   5.018  0.00  0.00    +0.224 C 
ATOM     17  O   UNL     1      -0.947   4.766   5.282  0.00  0.00    -0.275 OA
ATOM     18  H   UNL     1      -3.543   6.599   5.712  0.00  0.00    +0.149 HD
BRANCH  15  25
ATOM     19  C   UNL     1      -2.841   2.709   8.358  0.00  0.00    +0.001 A 
ATOM     20  C   UNL     1      -3.215   2.889   9.678  0.00  0.00    +0.004 A 
ATOM     21  C   UNL     1      -3.203   4.153  10.231  0.00  0.00    +0.046 A 
ATOM     22  C   UNL     1      -2.816   5.249   9.466  0.00  0.00    +0.125 A 
ATOM     23  C   UNL     1      -2.439   5.066   8.147  0.00  0.00    +0.014 A 
ATOM     24  C   UNL     1      -2.454   3.795   7.597  0.00  0.00    +0.009 A 
ATOM     25  C   UNL     1      -2.009   6.225   7.285  0.00  0.00    +0.110 C 
ATOM     26  C   UNL     1      -2.477   7.539   7.916  0.00  0.00    +0.068 C 
ATOM     27  C   UNL     1      -2.094   7.523   9.401  0.00  0.00    +0.231 C 
ATOM     28  O   UNL     1      -2.825   6.478  10.044  0.00  0.00    -0.492 OA
ENDBRANCH  15  25
ENDBRANCH  14  16
ENDBRANCH  13  14
ENDBRANCH   1  13
BRANCH   4  29
ATOM     29  C   UNL     1      -3.256   3.275  -2.334  0.00  0.00    -0.001 C 
BRANCH  29  30
ATOM     30  N   UNL     1      -2.481   4.157  -3.217  0.00  0.00    +0.384 N 
ATOM     31  C   UNL     1      -3.143   5.458  -3.376  0.00  0.00    -0.078 C 
ATOM     32  C   UNL     1      -2.241   6.396  -4.180  0.00  0.00    -0.019 C 
ATOM     33  C   UNL     1      -1.960   5.776  -5.551  0.00  0.00    -0.004 C 
ATOM     34  C   UNL     1      -1.315   4.401  -5.358  0.00  0.00    -0.019 C 
ATOM     35  C   UNL     1      -2.244   3.520  -4.519  0.00  0.00    -0.078 C 
ATOM     36  H   UNL     1      -1.502   4.334  -2.748  0.00  0.00    -0.081 HD
ENDBRANCH  29  30
ENDBRANCH   4  29
TORSDOF 7
