REMARK  Name = ZINC36121123
REMARK  11 active torsions:
REMARK  status: ('A' for Active; 'I' for Inactive)
REMARK    1  A    between atoms: C_1  and  C_2
REMARK    2  A    between atoms: C_2  and  C_3
REMARK    3  A    between atoms: C_3  and  C_5
REMARK    4  A    between atoms: C_3  and  C_6
REMARK    5  A    between atoms: C_6  and  N_7
REMARK    6  A    between atoms: N_7  and  C_8
REMARK    7  A    between atoms: C_8  and  C_9
REMARK    8  A    between atoms: C_19  and  C_21
REMARK    9  A    between atoms: C_21  and  O_22
REMARK   10  A    between atoms: O_22  and  C_23
REMARK   11  A    between atoms: C_30  and  C_32
REMARK                            x       y       z     vdW  Elec       q    Type
REMARK                         _______ _______ _______ _____ _____    ______ ____
ROOT
ATOM      1  C   UNL     1       3.348  -3.290  -2.262  0.00  0.00    +0.234 C 
ATOM      2  O   UNL     1       2.659  -4.228  -1.919  0.00  0.00    -0.274 OA
ATOM      3  N   UNL     1       4.691  -3.404  -2.260  0.00  0.00    -0.289 N 
ATOM      4  C   UNL     1       5.535  -2.272  -2.668  0.00  0.00    +0.114 C 
ATOM      5  C   UNL     1       6.287  -2.668  -3.948  0.00  0.00    +0.061 C 
ATOM      6  C   UNL     1       6.791  -4.066  -3.794  0.00  0.00    -0.004 A 
ATOM      7  C   UNL     1       6.401  -5.000  -2.885  0.00  0.00    -0.014 A 
ATOM      8  C   UNL     1       7.026  -6.244  -2.959  0.00  0.00    +0.013 A 
ATOM      9  C   UNL     1       7.974  -6.471  -3.897  0.00  0.00    +0.046 A 
ATOM     10  S   UNL     1       8.032  -4.901  -4.747  0.00  0.00    -0.101 S 
ATOM     11  C   UNL     1       5.331  -4.659  -1.844  0.00  0.00    +0.144 C 
ENDROOT
BRANCH   1  12
ATOM     12  C   UNL     1       2.702  -1.998  -2.691  0.00  0.00    +0.204 C 
BRANCH  12  13
ATOM     13  N   UNL     1       1.245  -2.128  -2.605  0.00  0.00    -0.288 N 
ATOM     14  C   UNL     1       0.531  -2.444  -3.704  0.00  0.00    +0.247 C 
ATOM     15  O   UNL     1      -0.682  -2.500  -3.645  0.00  0.00    -0.270 OA
BRANCH  14  16
ATOM     16  C   UNL     1       1.223  -2.722  -4.979  0.00  0.00    +0.037 A 
ATOM     17  C   UNL     1       2.370  -3.517  -4.995  0.00  0.00    +0.016 A 
ATOM     18  C   UNL     1       3.012  -3.774  -6.188  0.00  0.00    +0.039 A 
ATOM     19  C   UNL     1       2.519  -3.243  -7.371  0.00  0.00    +0.123 A 
ATOM     20  C   UNL     1       1.380  -2.453  -7.361  0.00  0.00    +0.039 A 
ATOM     21  C   UNL     1       0.728  -2.196  -6.174  0.00  0.00    +0.016 A 
ATOM     22  F   UNL     1       3.152  -3.497  -8.537  0.00  0.00    -0.205 F 
ENDBRANCH  14  16
BRANCH  13  23
ATOM     23  C   UNL     1       0.564  -1.915  -1.326  0.00  0.00    +0.112 C 
BRANCH  23  24
ATOM     24  C   UNL     1       0.059  -0.473  -1.251  0.00  0.00    +0.003 C 
ATOM     25  C   UNL     1       1.251   0.485  -1.239  0.00  0.00    +0.009 C 
BRANCH  24  27
ATOM     26  C   UNL     1      -1.368   1.118   0.043  0.00  0.00    +0.004 C 
ATOM     27  C   UNL     1      -0.759  -0.285   0.029  0.00  0.00    +0.001 C 
ENDBRANCH  24  27
ENDBRANCH  23  24
ENDBRANCH  13  23
ENDBRANCH  12  13
ENDBRANCH   1  12
BRANCH  11  28
ATOM     28  C   UNL     1       5.979  -4.480  -0.469  0.00  0.00    +0.256 C 
BRANCH  28  29
ATOM     29  O   UNL     1       7.043  -3.530  -0.565  0.00  0.00    -0.490 OA
BRANCH  29  30
ATOM     30  C   UNL     1       7.727  -3.254   0.576  0.00  0.00    +0.123 A 
ATOM     31  C   UNL     1       7.385  -3.888   1.762  0.00  0.00    +0.046 A 
ATOM     32  C   UNL     1       8.082  -3.607   2.922  0.00  0.00    +0.006 A 
ATOM     33  C   UNL     1       9.119  -2.693   2.902  0.00  0.00    +0.038 A 
ATOM     34  C   UNL     1       9.463  -2.058   1.721  0.00  0.00    +0.127 A 
ATOM     35  C   UNL     1       8.771  -2.342   0.556  0.00  0.00    +0.084 A 
ATOM     36  F   UNL     1      10.477  -1.166   1.704  0.00  0.00    -0.205 F 
ENDBRANCH  29  30
ENDBRANCH  28  29
ENDBRANCH  11  28
TORSDOF 9
