REMARK  Name = ZINC10341298
REMARK  4 active torsions:
REMARK  status: ('A' for Active; 'I' for Inactive)
REMARK    1  A    between atoms: C_4  and  S_7
REMARK    2  A    between atoms: S_7  and  N_10
REMARK    3  A    between atoms: C_16  and  C_18
REMARK    4  A    between atoms: C_18  and  N_50
REMARK                            x       y       z     vdW  Elec       q    Type
REMARK                         _______ _______ _______ _____ _____    ______ ____
ROOT
ATOM      1  N   UNL     1       0.117   1.614  -0.321  0.00  0.00    -0.174 NA
ATOM      2  C   UNL     1       1.368   2.338  -0.057  0.00  0.00    +0.128 C 
ATOM      3  C   UNL     1       2.085   1.666   1.120  0.00  0.00    +0.125 C 
ATOM      4  N   UNL     1       2.144   0.219   0.870  0.00  0.00    -0.300 N 
ATOM      5  C   UNL     1       0.892  -0.505   0.607  0.00  0.00    +0.125 C 
ATOM      6  C   UNL     1       0.175   0.167  -0.571  0.00  0.00    +0.128 C 
ATOM      7  C   UNL     1       3.324  -0.432   0.883  0.00  0.00    +0.199 C 
ATOM      8  O   UNL     1       3.360  -1.627   0.675  0.00  0.00    -0.278 OA
ENDROOT
BRANCH   1   9
ATOM      9  S   UNL     1      -1.332   2.415  -0.342  0.00  0.00    +0.061 S 
ATOM     10  O   UNL     1      -1.040   3.775  -0.630  0.00  0.00    -0.153 OA
ATOM     11  O   UNL     1      -2.214   1.638  -1.142  0.00  0.00    -0.153 OA
BRANCH   9  15
ATOM     12  C   UNL     1      -2.981   2.311   3.872  0.00  0.00    +0.000 A 
ATOM     13  C   UNL     1      -2.166   3.354   3.475  0.00  0.00    +0.002 A 
ATOM     14  C   UNL     1      -1.662   3.386   2.188  0.00  0.00    +0.028 A 
ATOM     15  C   UNL     1      -1.974   2.374   1.298  0.00  0.00    +0.105 A 
ATOM     16  C   UNL     1      -2.794   1.335   1.694  0.00  0.00    +0.028 A 
ATOM     17  C   UNL     1      -3.294   1.300   2.983  0.00  0.00    +0.002 A 
ENDBRANCH   9  15
ENDBRANCH   1   9
BRANCH   7  18
ATOM     18  C   UNL     1       4.599   0.324   1.154  0.00  0.00    +0.019 C 
BRANCH  18  27
ATOM     19  C   UNL     1       5.569  -1.482   2.443  0.00  0.00    -0.073 C 
ATOM     20  C   UNL     1       6.502  -2.696   2.293  0.00  0.00    +0.024 C 
ATOM     21  C   UNL     1       7.839  -2.192   1.860  0.00  0.00    -0.011 A 
ATOM     22  C   UNL     1       8.124  -0.948   1.382  0.00  0.00    -0.054 A 
ATOM     23  C   UNL     1       9.452  -0.701   1.041  0.00  0.00    +0.009 A 
ATOM     24  C   UNL     1      10.381  -1.674   1.191  0.00  0.00    +0.045 A 
ATOM     25  S   UNL     1       9.403  -3.022   1.838  0.00  0.00    -0.101 S 
ATOM     26  C   UNL     1       7.005   0.081   1.246  0.00  0.00    -0.042 C 
ATOM     27  N   UNL     1       5.712  -0.642   1.229  0.00  0.00    +0.388 N 
ATOM     28  H   UNL     1       5.683  -1.248   0.402  0.00  0.00    -0.081 HD
ENDBRANCH  18  27
ENDBRANCH   7  18
TORSDOF 4
