REMARK  Name = ZINC20913057
REMARK  7 active torsions:
REMARK  status: ('A' for Active; 'I' for Inactive)
REMARK    1  A    between atoms: C_10  and  C_11
REMARK    2  A    between atoms: N_12  and  N_13
REMARK    3  A    between atoms: C_17  and  S_20
REMARK    4  A    between atoms: N_18  and  N_19
REMARK    5  A    between atoms: S_20  and  C_21
REMARK    6  A    between atoms: C_21  and  C_22
REMARK    7  A    between atoms: N_24  and  C_25
REMARK                            x       y       z     vdW  Elec       q    Type
REMARK                         _______ _______ _______ _____ _____    ______ ____
ROOT
ATOM      1  N   UNL     1      -0.142  13.085   3.402  0.00  0.00    -0.204 N 
ATOM      2  C   UNL     1      -0.515  11.791   3.071  0.00  0.00    +0.254 A 
ATOM      3  N   UNL     1      -1.086  10.925   3.873  0.00  0.00    -0.109 NA
ATOM      4  N   UNL     1      -1.296   9.742   3.152  0.00  0.00    -0.119 NA
ATOM      5  C   UNL     1      -0.846   9.924   1.933  0.00  0.00    +0.210 A 
ATOM      6  N   UNL     1      -0.348  11.193   1.853  0.00  0.00    -0.211 N 
ATOM      7  H   UNL     1       0.333  13.731   2.648  0.00  0.00    +0.177 HD
ENDROOT
BRANCH   6   8
ATOM      8  N   UNL     1       0.217  11.765   0.748  0.00  0.00    -0.294 N 
ATOM      9  H   UNL     1       0.303  11.191  -0.186  0.00  0.00    +0.163 HD
ATOM     10  H   UNL     1       0.586  12.801   0.793  0.00  0.00    +0.163 HD
ENDBRANCH   6   8
BRANCH   1  12
ATOM     11  C   UNL     1      -0.019  14.784   5.007  0.00  0.00    +0.139 C 
ATOM     12  N   UNL     1      -0.369  13.570   4.697  0.00  0.00    -0.187 NA
BRANCH  11  22
ATOM     13  C   UNL     1      -2.358  13.020   9.252  0.00  0.00    +0.001 A 
ATOM     14  C   UNL     1      -2.153  12.503   7.975  0.00  0.00    +0.001 A 
ATOM     15  C   UNL     1      -1.478  13.218   7.030  0.00  0.00    +0.009 A 
ATOM     16  C   UNL     1      -0.986  14.490   7.347  0.00  0.00    -0.009 A 
ATOM     17  C   UNL     1      -1.193  15.018   8.644  0.00  0.00    -0.017 A 
ATOM     18  C   UNL     1      -1.893  14.253   9.593  0.00  0.00    +0.008 A 
ATOM     19  C   UNL     1      -0.698  16.295   8.957  0.00  0.00    +0.008 A 
ATOM     20  C   UNL     1      -0.023  17.026   8.028  0.00  0.00    +0.001 A 
ATOM     21  C   UNL     1       0.210  16.545   6.747  0.00  0.00    +0.010 A 
ATOM     22  C   UNL     1      -0.257  15.293   6.366  0.00  0.00    +0.002 A 
ENDBRANCH  11  22
ENDBRANCH   1  12
BRANCH   5  23
ATOM     23  S   UNL     1      -0.874   8.738   0.631  0.00  0.00    -0.075 S 
BRANCH  23  24
ATOM     24  C   UNL     1      -1.655   7.348   1.488  0.00  0.00    +0.173 C 
BRANCH  24  25
ATOM     25  C   UNL     1      -1.786   6.183   0.541  0.00  0.00    +0.224 C 
ATOM     26  O   UNL     1      -1.390   6.283  -0.601  0.00  0.00    -0.275 OA
ATOM     27  N   UNL     1      -2.343   5.031   0.963  0.00  0.00    -0.308 N 
ATOM     28  H   UNL     1      -2.701   4.940   1.999  0.00  0.00    +0.149 HD
BRANCH  27  29
ATOM     29  C   UNL     1      -2.470   3.898   0.042  0.00  0.00    +0.103 C 
ATOM     30  C   UNL     1      -3.640   3.019   0.465  0.00  0.00    +0.027 C 
ATOM     31  C   UNL     1      -3.620   1.735  -0.373  0.00  0.00    +0.007 C 
ATOM     32  C   UNL     1      -2.413   0.901   0.053  0.00  0.00    +0.035 C 
ATOM     33  C   UNL     1      -1.159   1.736   0.034  0.00  0.00    -0.042 A 
ATOM     34  C   UNL     1      -1.185   3.112   0.041  0.00  0.00    -0.024 A 
ATOM     35  C   UNL     1       0.008   3.823   0.033  0.00  0.00    +0.006 A 
ATOM     36  C   UNL     1       1.218   3.160   0.018  0.00  0.00    +0.000 A 
ATOM     37  C   UNL     1       1.244   1.778   0.011  0.00  0.00    +0.000 A 
ATOM     38  C   UNL     1       0.060   1.071   0.023  0.00  0.00    +0.004 A 
ENDBRANCH  27  29
ENDBRANCH  24  25
ENDBRANCH  23  24
ENDBRANCH   5  23
TORSDOF 7
