REMARK  Name = ZINC23295392
REMARK  5 active torsions:
REMARK  status: ('A' for Active; 'I' for Inactive)
REMARK    1  A    between atoms: C_1  and  C_2
REMARK    2  A    between atoms: C_2  and  C_22
REMARK    3  A    between atoms: N_5  and  C_9
REMARK    4  A    between atoms: C_9  and  C_10
REMARK    5  A    between atoms: C_12  and  C_15
REMARK                            x       y       z     vdW  Elec       q    Type
REMARK                         _______ _______ _______ _____ _____    ______ ____
ROOT
ATOM      1  C   UNL     1       1.247   6.005  -3.695  0.00  0.00    +0.047 C 
ATOM      2  C   UNL     1       1.325   4.499  -3.437  0.00  0.00    +0.135 C 
ATOM      3  C   UNL     1       0.746   4.159  -2.078  0.00  0.00    +0.251 C 
ATOM      4  O   UNL     1      -0.391   4.342  -1.700  0.00  0.00    -0.272 OA
ATOM      5  N   UNL     1       1.759   3.612  -1.377  0.00  0.00    -0.215 N 
ATOM      6  C   UNL     1       2.887   3.564  -2.095  0.00  0.00    +0.310 C 
ATOM      7  O   UNL     1       3.936   3.117  -1.676  0.00  0.00    -0.252 OA
ATOM      8  N   UNL     1       2.729   4.063  -3.335  0.00  0.00    -0.281 N 
ATOM      9  H   UNL     1       3.407   4.185  -4.192  0.00  0.00    +0.152 HD
ENDROOT
BRANCH   2  10
ATOM     10  C   UNL     1       0.609   3.739  -4.524  0.00  0.00    -0.014 A 
ATOM     11  C   UNL     1      -0.719   3.390  -4.363  0.00  0.00    +0.006 A 
ATOM     12  C   UNL     1      -1.378   2.698  -5.361  0.00  0.00    +0.001 A 
ATOM     13  C   UNL     1      -0.707   2.345  -6.517  0.00  0.00    +0.015 A 
ATOM     14  C   UNL     1       0.623   2.689  -6.676  0.00  0.00    +0.018 A 
ATOM     15  C   UNL     1       1.281   3.387  -5.679  0.00  0.00    +0.021 A 
ATOM     16 BR   UNL     1       1.542   2.207  -8.257  0.00  0.00    -0.050 Br
ENDBRANCH   2  10
BRANCH   5  17
ATOM     17  C   UNL     1       1.641   3.135   0.003  0.00  0.00    +0.216 C 
BRANCH  17  18
ATOM     18  C   UNL     1       1.235   1.684  -0.001  0.00  0.00    +0.246 A 
ATOM     19  N   UNL     1       2.040   0.651  -0.014  0.00  0.00    -0.190 NA
ATOM     20  C   UNL     1       1.236  -0.437  -0.012  0.00  0.00    +0.202 A 
ATOM     21  N   UNL     1       0.002  -0.004   0.002  0.00  0.00    -0.056 NA
ATOM     22  O   UNL     1      -0.014   1.209   0.009  0.00  0.00    -0.336 OA
BRANCH  20  23
ATOM     23  C   UNL     1       1.673  -1.855  -0.024  0.00  0.00    +0.023 A 
ATOM     24  C   UNL     1       3.030  -2.168  -0.044  0.00  0.00    +0.014 A 
ATOM     25  C   UNL     1       3.432  -3.488  -0.048  0.00  0.00    +0.039 A 
ATOM     26  C   UNL     1       2.487  -4.502  -0.046  0.00  0.00    +0.123 A 
ATOM     27  C   UNL     1       1.135  -4.194  -0.032  0.00  0.00    +0.039 A 
ATOM     28  C   UNL     1       0.726  -2.877  -0.021  0.00  0.00    +0.014 A 
ATOM     29  F   UNL     1       2.884  -5.793  -0.056  0.00  0.00    -0.205 F 
ENDBRANCH  20  23
ENDBRANCH  17  18
ENDBRANCH   5  17
TORSDOF 4
