REMARK  Name = ZINC59018685
REMARK  8 active torsions:
REMARK  status: ('A' for Active; 'I' for Inactive)
REMARK    1  A    between atoms: C_1  and  O_2
REMARK    2  A    between atoms: O_2  and  C_3
REMARK    3  A    between atoms: C_8  and  C_9
REMARK    4  A    between atoms: C_9  and  S_10
REMARK    5  A    between atoms: S_10  and  C_11
REMARK    6  A    between atoms: N_17  and  N_18
REMARK    7  A    between atoms: C_19  and  C_20
REMARK    8  A    between atoms: C_23  and  O_27
REMARK                            x       y       z     vdW  Elec       q    Type
REMARK                         _______ _______ _______ _____ _____    ______ ____
ROOT
ATOM      1  C   UNL     1       2.026  -4.098   1.504  0.00  0.00    +0.191 A 
ATOM      2  N   UNL     1       2.797  -4.591   2.518  0.00  0.00    -0.303 N 
ATOM      3  H   UNL     1       2.625  -4.488   3.467  0.00  0.00    +0.171 HD
ATOM      4  C   UNL     1       3.853  -5.257   1.960  0.00  0.00    +0.235 A 
ATOM      5  N   UNL     1       3.739  -5.177   0.657  0.00  0.00    -0.111 NA
ATOM      6  N   UNL     1       2.578  -4.448   0.367  0.00  0.00    -0.121 NA
ATOM      7  N   UNL     1       4.867  -5.902   2.653  0.00  0.00    -0.205 N 
ATOM      8  H   UNL     1       4.866  -5.906   3.623  0.00  0.00    +0.177 HD
ENDROOT
BRANCH   7   9
ATOM      9  N   UNL     1       5.894  -6.548   1.951  0.00  0.00    -0.188 NA
ATOM     10  C   UNL     1       6.843  -7.152   2.598  0.00  0.00    +0.138 C 
BRANCH  10  11
ATOM     11  C   UNL     1       7.923  -7.832   1.860  0.00  0.00    -0.003 A 
ATOM     12  C   UNL     1       7.929  -7.822   0.462  0.00  0.00    +0.028 A 
ATOM     13  C   UNL     1       8.942  -8.459  -0.225  0.00  0.00    +0.061 A 
ATOM     14  C   UNL     1       9.954  -9.109   0.470  0.00  0.00    +0.145 A 
ATOM     15  C   UNL     1       9.951  -9.121   1.860  0.00  0.00    +0.061 A 
ATOM     16  C   UNL     1       8.945  -8.482   2.555  0.00  0.00    +0.028 A 
ATOM     17 BR   UNL     1      11.331 -10.009   2.799  0.00  0.00    -0.046 Br
ATOM     18 BR   UNL     1       8.952  -8.447  -2.116  0.00  0.00    -0.046 Br
BRANCH  14  19
ATOM     19  O   UNL     1      10.949  -9.735  -0.211  0.00  0.00    -0.505 OA
ATOM     20  H   UNL     1      11.711  -9.171  -0.400  0.00  0.00    +0.292 HD
ENDBRANCH  14  19
ENDBRANCH  10  11
ENDBRANCH   7   9
BRANCH   1  21
ATOM     21  S   UNL     1       0.545  -3.161   1.691  0.00  0.00    -0.081 S 
BRANCH  21  22
ATOM     22  C   UNL     1       0.018  -2.829  -0.013  0.00  0.00    +0.116 C 
BRANCH  22  28
ATOM     23  C   UNL     1      -1.200  -0.637   0.010  0.00  0.00    +0.124 A 
ATOM     24  C   UNL     1      -2.375   0.101   0.019  0.00  0.00    +0.046 A 
ATOM     25  C   UNL     1      -3.596  -0.545   0.027  0.00  0.00    +0.004 A 
ATOM     26  C   UNL     1      -3.648  -1.927   0.026  0.00  0.00    +0.001 A 
ATOM     27  C   UNL     1      -2.479  -2.665   0.017  0.00  0.00    +0.008 A 
ATOM     28  C   UNL     1      -1.255  -2.023   0.003  0.00  0.00    +0.004 A 
BRANCH  23  30
ATOM     29  C   UNL     1      -0.017   1.425   0.010  0.00  0.00    +0.277 C 
ATOM     30  O   UNL     1       0.002  -0.004   0.002  0.00  0.00    -0.495 OA
ENDBRANCH  23  30
ENDBRANCH  22  28
ENDBRANCH  21  22
ENDBRANCH   1  21
TORSDOF 7
