REMARK  Name = ZINC22457041
REMARK  2 active torsions:
REMARK  status: ('A' for Active; 'I' for Inactive)
REMARK    1  A    between atoms: N_16  and  C_17
REMARK    2  A    between atoms: C_27  and  C_30
REMARK                            x       y       z     vdW  Elec       q    Type
REMARK                         _______ _______ _______ _____ _____    ______ ____
ROOT
ATOM      1  C   UNL     1      -6.436  -0.013  -2.395  0.00  0.00    +0.002 A 
ATOM      2  C   UNL     1      -6.090   1.322  -2.242  0.00  0.00    +0.002 A 
ATOM      3  C   UNL     1      -4.844   1.671  -1.773  0.00  0.00    +0.030 A 
ATOM      4  C   UNL     1      -3.920   0.674  -1.448  0.00  0.00    +0.091 A 
ATOM      5  C   UNL     1      -4.276  -0.676  -1.605  0.00  0.00    +0.068 A 
ATOM      6  C   UNL     1      -5.537  -1.009  -2.079  0.00  0.00    +0.028 A 
ATOM      7  N   UNL     1      -3.175  -1.413  -1.209  0.00  0.00    -0.322 N 
ATOM      8  H   UNL     1      -3.207  -2.512  -1.241  0.00  0.00    +0.169 HD
ATOM      9  C   UNL     1      -2.208  -0.525  -0.834  0.00  0.00    +0.230 A 
ATOM     10  N   UNL     1      -2.649   0.698  -0.970  0.00  0.00    -0.211 NA
ATOM     11  N   UNL     1      -0.945  -0.870  -0.370  0.00  0.00    -0.201 N 
ATOM     12  C   UNL     1       0.003  -0.005  -0.003  0.00  0.00    +0.061 A 
ATOM     13  C   UNL     1       1.110  -0.748   0.399  0.00  0.00    +0.080 A 
ATOM     14  C   UNL     1       0.761  -2.147   0.243  0.00  0.00    +0.156 A 
ATOM     15  N   UNL     1      -0.470  -2.180  -0.217  0.00  0.00    -0.148 NA
ATOM     16  N   UNL     1       1.574  -3.243   0.525  0.00  0.00    -0.297 N 
ATOM     17  C   UNL     1       2.340  -0.107   0.875  0.00  0.00    +0.169 C 
ATOM     18  O   UNL     1       3.374  -0.721   1.036  0.00  0.00    -0.292 OA
ATOM     19  C   UNL     1       2.224   1.385   1.153  0.00  0.00    +0.091 C 
ATOM     20  C   UNL     1       1.418   2.028   0.020  0.00  0.00    +0.068 C 
ATOM     21  C   UNL     1      -0.021   1.502   0.011  0.00  0.00    +0.068 C 
ATOM     22  H   UNL     1       2.622  -3.090   0.820  0.00  0.00    +0.154 HD
ENDROOT
BRANCH  16  23
ATOM     23  C   UNL     1       1.056  -4.539   0.434  0.00  0.00    +0.033 A 
ATOM     24  C   UNL     1      -0.307  -4.756   0.591  0.00  0.00    +0.025 A 
ATOM     25  C   UNL     1      -0.816  -6.036   0.494  0.00  0.00    +0.022 A 
ATOM     26  C   UNL     1       0.032  -7.103   0.253  0.00  0.00    +0.041 A 
ATOM     27  C   UNL     1       1.391  -6.890   0.102  0.00  0.00    +0.022 A 
ATOM     28  C   UNL     1       1.905  -5.612   0.192  0.00  0.00    +0.025 A 
ATOM     29 CL   UNL     1      -0.611  -8.712   0.140  0.00  0.00    -0.084 Cl
ENDBRANCH  16  23
BRANCH  20  30
ATOM     30  C   UNL     1       1.399   3.522   0.211  0.00  0.00    +0.109 A 
ATOM     31  C   UNL     1       1.896   4.431  -0.647  0.00  0.00    +0.045 A 
ATOM     32  C   UNL     1       1.665   5.704  -0.075  0.00  0.00    +0.041 A 
ATOM     33  C   UNL     1       1.041   5.496   1.098  0.00  0.00    +0.195 A 
ATOM     34  O   UNL     1       0.877   4.173   1.263  0.00  0.00    -0.468 OA
ENDBRANCH  20  30
TORSDOF 2
