REMARK  Name = ZINC33570947
REMARK  11 active torsions:
REMARK  status: ('A' for Active; 'I' for Inactive)
REMARK    1  A    between atoms: C_1  and  C_2
REMARK    2  A    between atoms: C_2  and  C_4
REMARK    3  A    between atoms: C_2  and  N_15
REMARK    4  A    between atoms: N_6  and  N_7
REMARK    5  A    between atoms: C_8  and  C_9
REMARK    6  A    between atoms: N_18  and  C_35
REMARK    7  A    between atoms: C_19  and  N_24
REMARK    8  A    between atoms: C_21  and  C_22
REMARK    9  A    between atoms: C_21  and  C_23
REMARK   10  A    between atoms: N_24  and  O_34
REMARK   11  A    between atoms: N_27  and  C_28
REMARK                            x       y       z     vdW  Elec       q    Type
REMARK                         _______ _______ _______ _____ _____    ______ ____
ROOT
ATOM      1  N   UNL     1       1.356   5.510  -2.077  0.00  0.00    -0.265 N 
ATOM      2  C   UNL     1       1.621   5.991  -0.855  0.00  0.00    +0.312 C 
ATOM      3  O   UNL     1       2.249   5.370  -0.020  0.00  0.00    -0.252 OA
ATOM      4  N   UNL     1       1.131   7.219  -0.637  0.00  0.00    -0.232 N 
ATOM      5  C   UNL     1       0.429   7.680  -1.844  0.00  0.00    +0.224 C 
ATOM      6  C   UNL     1       0.589   6.510  -2.834  0.00  0.00    +0.072 C 
ATOM      7  C   UNL     1       1.365   6.955  -4.075  0.00  0.00    +0.035 C 
ATOM      8  C   UNL     1      -0.780   5.952  -3.227  0.00  0.00    +0.035 C 
ENDROOT
BRANCH   4   9
ATOM      9  C   UNL     1       1.266   7.946   0.550  0.00  0.00    +0.040 A 
ATOM     10  C   UNL     1       0.138   8.395   1.224  0.00  0.00    +0.023 A 
ATOM     11  C   UNL     1       0.274   9.109   2.398  0.00  0.00    +0.002 A 
ATOM     12  C   UNL     1       1.533   9.386   2.898  0.00  0.00    +0.000 A 
ATOM     13  C   UNL     1       2.659   8.945   2.228  0.00  0.00    +0.002 A 
ATOM     14  C   UNL     1       2.529   8.226   1.055  0.00  0.00    +0.023 A 
ENDBRANCH   4   9
BRANCH   5  15
ATOM     15  N   UNL     1       1.063   8.889  -2.377  0.00  0.00    -0.144 N 
ATOM     16  C   UNL     1       0.406  10.065  -2.343  0.00  0.00    +0.331 C 
ATOM     17  O   UNL     1      -0.673  10.143  -1.788  0.00  0.00    -0.250 OA
ATOM     18  N   UNL     1       0.945  11.155  -2.925  0.00  0.00    -0.268 N 
ATOM     19  H   UNL     1       1.885  11.069  -3.489  0.00  0.00    +0.156 HD
BRANCH  18  20
ATOM     20  C   UNL     1       0.308  12.396  -2.812  0.00  0.00    +0.035 A 
ATOM     21  C   UNL     1      -1.079  12.467  -2.792  0.00  0.00    +0.023 A 
ATOM     22  C   UNL     1      -1.704  13.693  -2.675  0.00  0.00    +0.002 A 
ATOM     23  C   UNL     1      -0.951  14.849  -2.588  0.00  0.00    +0.000 A 
ATOM     24  C   UNL     1       0.430  14.782  -2.613  0.00  0.00    +0.002 A 
ATOM     25  C   UNL     1       1.061  13.559  -2.724  0.00  0.00    +0.023 A 
ENDBRANCH  18  20
BRANCH  15  26
ATOM     26  O   UNL     1       2.366   8.821  -2.928  0.00  0.00    -0.289 OA
ATOM     27  H   UNL     1       2.842   9.728  -3.328  0.00  0.00    +0.242 HD
ENDBRANCH  15  26
ENDBRANCH   5  15
BRANCH   1  29
ATOM     28  C   UNL     1       3.297   4.100  -2.552  0.00  0.00    +0.038 C 
ATOM     29  C   UNL     1       1.771   4.198  -2.581  0.00  0.00    +0.163 C 
BRANCH  29  30
ATOM     30  C   UNL     1       1.181   3.117  -1.712  0.00  0.00    +0.253 C 
ATOM     31  O   UNL     1       0.483   3.413  -0.765  0.00  0.00    -0.272 OA
ATOM     32  N   UNL     1       1.429   1.821  -1.987  0.00  0.00    -0.205 N 
ATOM     33  H   UNL     1       2.062   1.553  -2.846  0.00  0.00    +0.177 HD
BRANCH  32  34
ATOM     34  N   UNL     1       0.881   0.816  -1.180  0.00  0.00    -0.188 NA
ATOM     35  C   UNL     1       1.221  -0.422  -1.364  0.00  0.00    +0.138 C 
BRANCH  35  36
ATOM     36  C   UNL     1       2.465  -0.745  -2.088  0.00  0.00    -0.005 A 
ATOM     37  C   UNL     1       3.474   0.213  -2.212  0.00  0.00    +0.009 A 
ATOM     38  C   UNL     1       4.637  -0.097  -2.886  0.00  0.00    +0.001 A 
ATOM     39  C   UNL     1       4.800  -1.351  -3.449  0.00  0.00    +0.000 A 
ATOM     40  C   UNL     1       3.803  -2.303  -3.335  0.00  0.00    +0.001 A 
ATOM     41  C   UNL     1       2.637  -2.008  -2.659  0.00  0.00    +0.009 A 
ENDBRANCH  35  36
ENDBRANCH  32  34
ENDBRANCH  29  30
ENDBRANCH   1  29
TORSDOF 8
