REMARK  Name = ZINC56780722
REMARK  10 active torsions:
REMARK  status: ('A' for Active; 'I' for Inactive)
REMARK    1  A    between atoms: C_1  and  C_2
REMARK    2  A    between atoms: C_2  and  C_3
REMARK    3  A    between atoms: C_2  and  C_4
REMARK    4  A    between atoms: C_4  and  C_5
REMARK    5  A    between atoms: C_5  and  C_6
REMARK    6  A    between atoms: N_16  and  C_17
REMARK    7  A    between atoms: C_19  and  C_25
REMARK    8  A    between atoms: C_19  and  C_26
REMARK    9  A    between atoms: C_21  and  C_23
REMARK   10  A    between atoms: C_21  and  C_24
REMARK                            x       y       z     vdW  Elec       q    Type
REMARK                         _______ _______ _______ _____ _____    ______ ____
ROOT
ATOM      1  C   UNL     1       0.068  -1.158   3.943  0.00  0.00    +0.216 C 
ATOM      2  O   UNL     1       1.051  -1.855   3.807  0.00  0.00    -0.276 OA
ATOM      3  N   UNL     1      -0.335  -0.794   5.176  0.00  0.00    -0.298 N 
ATOM      4  C   UNL     1      -1.529   0.044   5.356  0.00  0.00    +0.127 C 
ATOM      5  C   UNL     1      -2.496  -0.675   6.303  0.00  0.00    +0.128 C 
ATOM      6  N   UNL     1      -1.751  -1.111   7.493  0.00  0.00    -0.283 N 
ATOM      7  C   UNL     1      -0.557  -1.950   7.313  0.00  0.00    +0.128 C 
ATOM      8  C   UNL     1       0.406  -1.235   6.366  0.00  0.00    +0.127 C 
ATOM      9  C   UNL     1      -2.154  -0.747   8.726  0.00  0.00    +0.303 C 
ATOM     10  O   UNL     1      -3.085   0.024   8.859  0.00  0.00    -0.253 OA
ATOM     11  N   UNL     1      -1.526  -1.238   9.813  0.00  0.00    -0.296 N 
ATOM     12  H   UNL     1      -0.738  -1.794   9.708  0.00  0.00    +0.151 HD
ENDROOT
BRANCH  11  13
ATOM     13  C   UNL     1      -2.035  -0.932  11.156  0.00  0.00    +0.072 C 
ATOM     14  C   UNL     1      -1.434   0.392  11.631  0.00  0.00    +0.009 C 
ATOM     15  C   UNL     1      -1.945   0.719  13.034  0.00  0.00    -0.072 C 
ATOM     16  N   UNL     1      -1.708  -0.370  13.971  0.00  0.00    +0.386 N 
ATOM     17  C   UNL     1      -2.054  -1.716  13.544  0.00  0.00    -0.072 C 
ATOM     18  C   UNL     1      -1.597  -2.032  12.123  0.00  0.00    +0.009 C 
ATOM     19  C   UNL     1      -3.554  -1.987  13.683  0.00  0.00    -0.010 C 
ATOM     20  C   UNL     1      -1.328  -2.703  14.489  0.00  0.00    -0.010 C 
ATOM     21  C   UNL     1      -3.418   1.121  12.980  0.00  0.00    -0.010 C 
ATOM     22  C   UNL     1      -1.152   1.948  13.536  0.00  0.00    -0.010 C 
ATOM     23  H   UNL     1      -0.719  -0.359  14.232  0.00  0.00    -0.084 HD
ATOM     24  H   UNL     1      -2.216  -0.165  14.835  0.00  0.00    -0.084 HD
ENDBRANCH  11  13
BRANCH   1  25
ATOM     25  C   UNL     1      -0.703  -0.699   2.732  0.00  0.00    +0.096 C 
BRANCH  25  26
ATOM     26  C   UNL     1      -0.039  -1.247   1.467  0.00  0.00    +0.012 C 
BRANCH  26  28
ATOM     27  C   UNL     1      -0.725   0.741   0.118  0.00  0.00    +0.007 C 
ATOM     28  C   UNL     1      -0.822  -0.781   0.237  0.00  0.00    -0.017 C 
ATOM     29  C   UNL     1      -0.234  -1.429  -1.018  0.00  0.00    +0.007 C 
ENDBRANCH  26  28
ENDBRANCH  25  26
ENDBRANCH   1  25
TORSDOF 4
