REMARK  Name = ZINC12808413
REMARK  8 active torsions:
REMARK  status: ('A' for Active; 'I' for Inactive)
REMARK    1  A    between atoms: C_1  and  C_2
REMARK    2  A    between atoms: C_2  and  C_28
REMARK    3  A    between atoms: N_5  and  C_9
REMARK    4  A    between atoms: C_9  and  C_10
REMARK    5  A    between atoms: N_12  and  C_13
REMARK    6  A    between atoms: C_13  and  C_15
REMARK    7  A    between atoms: C_13  and  C_22
REMARK    8  A    between atoms: C_15  and  C_16
REMARK                            x       y       z     vdW  Elec       q    Type
REMARK                         _______ _______ _______ _____ _____    ______ ____
ROOT
ATOM      1  C   UNL     1       2.127   5.839   7.811  0.00  0.00    +0.047 C 
ATOM      2  C   UNL     1       2.630   4.971   6.655  0.00  0.00    +0.135 C 
ATOM      3  C   UNL     1       1.860   5.276   5.386  0.00  0.00    +0.251 C 
ATOM      4  O   UNL     1       0.669   5.144   5.202  0.00  0.00    -0.272 OA
ATOM      5  N   UNL     1       2.775   5.724   4.503  0.00  0.00    -0.215 N 
ATOM      6  C   UNL     1       4.003   5.750   5.036  0.00  0.00    +0.310 C 
ATOM      7  O   UNL     1       4.992   6.120   4.434  0.00  0.00    -0.252 OA
ATOM      8  N   UNL     1       4.019   5.322   6.311  0.00  0.00    -0.281 N 
ATOM      9  H   UNL     1       4.794   5.257   6.890  0.00  0.00    +0.152 HD
ENDROOT
BRANCH   2  10
ATOM     10  C   UNL     1       2.524   3.510   7.006  0.00  0.00    -0.012 A 
ATOM     11  C   UNL     1       1.358   2.818   6.733  0.00  0.00    +0.010 A 
ATOM     12  C   UNL     1       1.254   1.476   7.052  0.00  0.00    +0.050 A 
ATOM     13  C   UNL     1       2.322   0.827   7.646  0.00  0.00    +0.162 A 
ATOM     14  C   UNL     1       3.492   1.520   7.921  0.00  0.00    +0.162 A 
ATOM     15  C   UNL     1       3.595   2.862   7.596  0.00  0.00    +0.055 A 
ATOM     16  O   UNL     1       4.540   0.871   8.507  0.00  0.00    -0.488 OA
ATOM     17  C   UNL     1       4.341   0.460   9.861  0.00  0.00    +0.232 C 
ATOM     18  C   UNL     1       3.623  -0.879   9.919  0.00  0.00    +0.082 C 
ATOM     19  C   UNL     1       2.211  -0.804   9.361  0.00  0.00    +0.232 C 
ATOM     20  O   UNL     1       2.233  -0.497   7.965  0.00  0.00    -0.488 OA
ENDBRANCH   2  10
BRANCH   5  21
ATOM     21  C   UNL     1       2.464   6.136   3.133  0.00  0.00    +0.213 C 
BRANCH  21  22
ATOM     22  C   UNL     1       2.580   4.949   2.212  0.00  0.00    +0.231 C 
ATOM     23  O   UNL     1       2.893   3.865   2.657  0.00  0.00    -0.274 OA
ATOM     24  N   UNL     1       2.337   5.091   0.894  0.00  0.00    -0.307 N 
ATOM     25  H   UNL     1       2.087   5.958   0.538  0.00  0.00    +0.149 HD
BRANCH  24  26
ATOM     26  C   UNL     1       2.451   3.937  -0.001  0.00  0.00    +0.107 C 
BRANCH  26  27
ATOM     27  C   UNL     1       1.156   3.165   0.008  0.00  0.00    -0.027 A 
ATOM     28  C   UNL     1       1.175   1.783   0.000  0.00  0.00    +0.005 A 
ATOM     29  C   UNL     1      -0.013   1.076   0.008  0.00  0.00    +0.000 A 
ATOM     30  C   UNL     1      -1.219   1.751   0.017  0.00  0.00    +0.000 A 
ATOM     31  C   UNL     1      -1.238   3.133   0.030  0.00  0.00    +0.000 A 
ATOM     32  C   UNL     1      -0.050   3.840   0.023  0.00  0.00    +0.005 A 
ENDBRANCH  26  27
BRANCH  26  33
ATOM     33  C   UNL     1       2.748   4.420  -1.422  0.00  0.00    +0.062 C 
BRANCH  33  34
ATOM     34  C   UNL     1       4.100   5.084  -1.454  0.00  0.00    -0.045 A 
ATOM     35  C   UNL     1       4.208   6.443  -1.223  0.00  0.00    +0.004 A 
ATOM     36  C   UNL     1       5.450   7.051  -1.248  0.00  0.00    +0.000 A 
ATOM     37  C   UNL     1       6.581   6.303  -1.514  0.00  0.00    +0.000 A 
ATOM     38  C   UNL     1       6.472   4.945  -1.751  0.00  0.00    +0.000 A 
ATOM     39  C   UNL     1       5.231   4.336  -1.721  0.00  0.00    +0.004 A 
ENDBRANCH  33  34
ENDBRANCH  26  33
ENDBRANCH  24  26
ENDBRANCH  21  22
ENDBRANCH   5  21
TORSDOF 7
