REMARK  Name = ZINC13075835
REMARK  8 active torsions:
REMARK  status: ('A' for Active; 'I' for Inactive)
REMARK    1  A    between atoms: C_6  and  C_7
REMARK    2  A    between atoms: C_7  and  C_11
REMARK    3  A    between atoms: C_11  and  O_13
REMARK    4  A    between atoms: O_13  and  C_14
REMARK    5  A    between atoms: C_14  and  C_15
REMARK    6  A    between atoms: N_17  and  C_18
REMARK    7  A    between atoms: C_21  and  S_24
REMARK    8  A    between atoms: S_24  and  N_27
REMARK                            x       y       z     vdW  Elec       q    Type
REMARK                         _______ _______ _______ _____ _____    ______ ____
ROOT
ATOM      1  C   UNL     1      -8.432   4.766   5.839  0.00  0.00    +0.255 C 
ATOM      2  O   UNL     1      -7.564   5.489   6.279  0.00  0.00    -0.272 OA
ATOM      3  N   UNL     1      -8.254   4.138   4.659  0.00  0.00    -0.283 N 
ATOM      4  H   UNL     1      -8.977   3.622   4.270  0.00  0.00    +0.155 HD
ENDROOT
BRANCH   3   5
ATOM      5  C   UNL     1      -7.025   4.232   3.996  0.00  0.00    +0.034 A 
ATOM      6  C   UNL     1      -5.846   4.320   4.724  0.00  0.00    +0.025 A 
ATOM      7  C   UNL     1      -4.635   4.412   4.067  0.00  0.00    +0.031 A 
ATOM      8  C   UNL     1      -4.596   4.416   2.684  0.00  0.00    +0.113 A 
ATOM      9  C   UNL     1      -5.769   4.334   1.956  0.00  0.00    +0.031 A 
ATOM     10  C   UNL     1      -6.983   4.237   2.608  0.00  0.00    +0.025 A 
BRANCH   8  11
ATOM     11  S   UNL     1      -3.049   4.534   1.849  0.00  0.00    +0.100 S 
ATOM     12  O   UNL     1      -2.145   5.154   2.754  0.00  0.00    -0.146 OA
ATOM     13  O   UNL     1      -3.323   5.067   0.561  0.00  0.00    -0.146 OA
BRANCH  11  14
ATOM     14  N   UNL     1      -2.500   2.989   1.616  0.00  0.00    -0.118 NA
ATOM     15  C   UNL     1      -1.371   2.788   1.018  0.00  0.00    +0.117 C 
ATOM     16  C   UNL     1      -0.582   3.960   0.547  0.00  0.00    +0.073 C 
ATOM     17  C   UNL     1      -0.907   4.259  -0.932  0.00  0.00    +0.008 C 
ATOM     18  C   UNL     1      -0.362   3.197  -1.807  0.00  0.00    +0.002 C 
ATOM     19  C   UNL     1      -0.971   1.821  -1.581  0.00  0.00    +0.019 C 
ATOM     20  C   UNL     1      -0.273   1.117  -0.443  0.00  0.00    +0.102 C 
ATOM     21  N   UNL     1      -0.928   1.486   0.834  0.00  0.00    -0.331 N 
ATOM     22  H   UNL     1      -1.048   0.824   1.532  0.00  0.00    +0.147 HD
ENDBRANCH  11  14
ENDBRANCH   8  11
ENDBRANCH   3   5
BRANCH   1  23
ATOM     23  C   UNL     1      -9.712   4.569   6.611  0.00  0.00    +0.328 C 
BRANCH  23  24
ATOM     24  O   UNL     1      -9.661   5.345   7.837  0.00  0.00    -0.455 OA
BRANCH  24  25
ATOM     25  C   UNL     1     -10.731   5.279   8.645  0.00  0.00    +0.318 C 
ATOM     26  O   UNL     1     -11.679   4.595   8.337  0.00  0.00    -0.250 OA
BRANCH  25  27
ATOM     27  C   UNL     1     -10.751   6.057   9.935  0.00  0.00    +0.093 C 
ATOM     28  C   UNL     1      -9.988   5.370  11.080  0.00  0.00    +0.023 C 
ATOM     29  C   UNL     1     -11.310   4.660  11.426  0.00  0.00    +0.003 C 
ATOM     30  C   UNL     1     -12.030   5.846  10.762  0.00  0.00    +0.023 C 
BRANCH  27  36
ATOM     31  C   UNL     1     -11.196   8.497  10.271  0.00  0.00    +0.006 A 
ATOM     32  C   UNL     1     -10.858   9.827  10.106  0.00  0.00    +0.020 A 
ATOM     33  C   UNL     1      -9.712  10.167   9.409  0.00  0.00    +0.041 A 
ATOM     34  C   UNL     1      -8.903   9.176   8.882  0.00  0.00    +0.020 A 
ATOM     35  C   UNL     1      -9.240   7.847   9.053  0.00  0.00    +0.006 A 
ATOM     36  C   UNL     1     -10.385   7.507   9.749  0.00  0.00    -0.031 A 
ATOM     37 CL   UNL     1      -9.290  11.838   9.196  0.00  0.00    -0.084 Cl
ENDBRANCH  27  36
ENDBRANCH  25  27
ENDBRANCH  24  25
ENDBRANCH  23  24
ENDBRANCH   1  23
TORSDOF 8
