REMARK  Name = ZINC09274406
REMARK  3 active torsions:
REMARK  status: ('A' for Active; 'I' for Inactive)
REMARK    1  A    between atoms: C_1  and  C_2
REMARK    2  A    between atoms: C_7  and  N_8
REMARK    3  A    between atoms: C_17  and  C_23
REMARK                            x       y       z     vdW  Elec       q    Type
REMARK                         _______ _______ _______ _____ _____    ______ ____
ROOT
ATOM      1  N   UNL     1      -0.019   1.062   0.422  0.00  0.00    -0.292 N 
ATOM      2  C   UNL     1       1.176   1.759   0.359  0.00  0.00    +0.186 A 
ATOM      3  N   UNL     1       2.394   1.295   0.300  0.00  0.00    -0.139 NA
ATOM      4  N   UNL     1       3.495   2.146   0.241  0.00  0.00    -0.169 N 
ATOM      5  C   UNL     1       4.809   1.770   0.177  0.00  0.00    +0.283 A 
ATOM      6  O   UNL     1       5.116   0.591   0.167  0.00  0.00    -0.265 OA
ATOM      7  C   UNL     1       5.839   2.808   0.121  0.00  0.00    +0.067 A 
ATOM      8  C   UNL     1       7.198   2.489   0.056  0.00  0.00    +0.016 A 
ATOM      9  C   UNL     1       8.129   3.484   0.005  0.00  0.00    +0.014 A 
ATOM     10  C   UNL     1       7.740   4.831   0.019  0.00  0.00    +0.039 A 
ATOM     11  C   UNL     1       6.397   5.174   0.084  0.00  0.00    +0.041 A 
ATOM     12  C   UNL     1       5.433   4.163   0.136  0.00  0.00    +0.080 A 
ATOM     13  N   UNL     1       4.118   4.439   0.200  0.00  0.00    -0.221 NA
ATOM     14  C   UNL     1       3.224   3.490   0.249  0.00  0.00    +0.201 A 
ATOM     15  S   UNL     1       1.444   3.524   0.330  0.00  0.00    -0.013 S 
ATOM     16  H   UNL     1      -0.021   0.095   0.339  0.00  0.00    +0.154 HD
ENDROOT
BRANCH  10  17
ATOM     17  C   UNL     1       8.769   5.894  -0.037  0.00  0.00    +0.247 C 
ATOM     18  O   UNL     1       9.867   5.703   0.450  0.00  0.00    -0.270 OA
ATOM     19  N   UNL     1       8.489   7.073  -0.626  0.00  0.00    -0.293 N 
ATOM     20  C   UNL     1       9.440   8.196  -0.583  0.00  0.00    +0.113 C 
ATOM     21  C   UNL     1       9.890   8.478  -2.021  0.00  0.00    +0.054 C 
ATOM     22  C   UNL     1       8.706   8.545  -2.949  0.00  0.00    -0.041 A 
ATOM     23  C   UNL     1       8.878   9.191  -4.167  0.00  0.00    +0.004 A 
ATOM     24  C   UNL     1       7.838   9.277  -5.069  0.00  0.00    +0.000 A 
ATOM     25  C   UNL     1       6.612   8.716  -4.760  0.00  0.00    +0.000 A 
ATOM     26  C   UNL     1       6.437   8.078  -3.550  0.00  0.00    +0.005 A 
ATOM     27  C   UNL     1       7.483   7.994  -2.640  0.00  0.00    -0.027 A 
ATOM     28  C   UNL     1       7.221   7.291  -1.332  0.00  0.00    +0.143 C 
ENDBRANCH  10  17
BRANCH   1  35
ATOM     29  C   UNL     1      -2.413  -0.150  -0.523  0.00  0.00    +0.045 C 
ATOM     30  C   UNL     1      -2.414   1.196   0.154  0.00  0.00    -0.029 A 
ATOM     31  C   UNL     1      -3.602   1.877   0.337  0.00  0.00    +0.005 A 
ATOM     32  C   UNL     1      -3.603   3.115   0.954  0.00  0.00    +0.000 A 
ATOM     33  C   UNL     1      -2.417   3.672   1.395  0.00  0.00    +0.002 A 
ATOM     34  C   UNL     1      -1.226   2.994   1.220  0.00  0.00    +0.023 A 
ATOM     35  C   UNL     1      -1.222   1.750   0.601  0.00  0.00    +0.036 A 
ENDBRANCH   1  35
TORSDOF 2
