REMARK  Name = ZINC39677322
REMARK  9 active torsions:
REMARK  status: ('A' for Active; 'I' for Inactive)
REMARK    1  A    between atoms: C_1  and  C_2
REMARK    2  A    between atoms: C_2  and  C_3
REMARK    3  A    between atoms: C_3  and  C_5
REMARK    4  A    between atoms: C_3  and  C_6
REMARK    5  A    between atoms: C_6  and  C_7
REMARK    6  A    between atoms: C_11  and  C_20
REMARK    7  A    between atoms: N_22  and  C_23
REMARK    8  A    between atoms: C_23  and  C_24
REMARK    9  A    between atoms: C_25  and  C_29
REMARK                            x       y       z     vdW  Elec       q    Type
REMARK                         _______ _______ _______ _____ _____    ______ ____
ROOT
ATOM      1  C   UNL     1       1.197  -2.547  -2.317  0.00  0.00    +0.216 C 
ATOM      2  O   UNL     1       1.654  -1.678  -3.029  0.00  0.00    -0.276 OA
ATOM      3  N   UNL     1       1.242  -3.835  -2.713  0.00  0.00    -0.300 N 
ATOM      4  C   UNL     1       0.735  -5.025  -1.991  0.00  0.00    +0.121 C 
ATOM      5  C   UNL     1       0.117  -5.916  -3.092  0.00  0.00    +0.100 C 
ATOM      6  C   UNL     1       0.829  -5.489  -4.387  0.00  0.00    -0.004 C 
ATOM      7  C   UNL     1       1.805  -4.379  -3.972  0.00  0.00    +0.115 C 
ATOM      8  C   UNL     1      -0.183  -4.944  -5.391  0.00  0.00    -0.010 C 
ATOM      9  C   UNL     1       0.540  -4.580  -6.691  0.00  0.00    -0.082 C 
ATOM     10  N   UNL     1       1.206  -5.771  -7.233  0.00  0.00    +0.379 N 
ATOM     11  C   UNL     1       2.242  -6.234  -6.302  0.00  0.00    -0.082 C 
ATOM     12  C   UNL     1       1.590  -6.668  -4.985  0.00  0.00    -0.010 C 
ATOM     13  H   UNL     1       0.525  -6.503  -7.367  0.00  0.00    -0.086 HD
ATOM     14  H   UNL     1       1.630  -5.543  -8.120  0.00  0.00    -0.086 HD
ENDROOT
BRANCH   5  15
ATOM     15  C   UNL     1      -1.365  -5.666  -3.199  0.00  0.00    +0.218 C 
ATOM     16  O   UNL     1      -1.817  -4.574  -2.929  0.00  0.00    -0.275 OA
ATOM     17  N   UNL     1      -2.189  -6.658  -3.593  0.00  0.00    -0.310 N 
ATOM     18  H   UNL     1      -1.827  -7.532  -3.809  0.00  0.00    +0.149 HD
BRANCH  17  19
ATOM     19  C   UNL     1      -3.630  -6.415  -3.697  0.00  0.00    +0.147 C 
BRANCH  19  20
ATOM     20  C   UNL     1      -4.319  -7.675  -4.154  0.00  0.00    +0.010 A 
ATOM     21  C   UNL     1      -4.837  -8.683  -3.411  0.00  0.00    -0.039 A 
ATOM     22  C   UNL     1      -5.432  -9.752  -4.054  0.00  0.00    +0.011 A 
ATOM     23  C   UNL     1      -5.480  -9.761  -5.408  0.00  0.00    +0.046 A 
ATOM     24  S   UNL     1      -4.674  -8.222  -5.816  0.00  0.00    -0.100 S 
ATOM     25  C   UNL     1      -4.765  -8.639  -1.906  0.00  0.00    +0.044 C 
ENDBRANCH  19  20
ENDBRANCH  17  19
ENDBRANCH   5  15
BRANCH   1  26
ATOM     26  C   UNL     1       0.578  -2.188  -0.991  0.00  0.00    +0.099 C 
BRANCH  26  27
ATOM     27  C   UNL     1       0.655  -0.674  -0.786  0.00  0.00    -0.006 C 
ATOM     28  C   UNL     1       2.120  -0.247  -0.678  0.00  0.00    +0.008 C 
BRANCH  27  30
ATOM     29  C   UNL     1      -0.114   1.228   0.641  0.00  0.00    +0.004 C 
ATOM     30  C   UNL     1      -0.083  -0.295   0.500  0.00  0.00    +0.000 C 
ENDBRANCH  27  30
ENDBRANCH  26  27
ENDBRANCH   1  26
TORSDOF 6
