REMARK  Name = ZINC05670672
REMARK  5 active torsions:
REMARK  status: ('A' for Active; 'I' for Inactive)
REMARK    1  A    between atoms: C_3  and  O_9
REMARK    2  A    between atoms: O_9  and  C_10
REMARK    3  A    between atoms: C_10  and  C_11
REMARK    4  A    between atoms: N_13  and  N_14
REMARK    5  A    between atoms: C_15  and  C_16
REMARK                            x       y       z     vdW  Elec       q    Type
REMARK                         _______ _______ _______ _____ _____    ______ ____
ROOT
ATOM      1  C   UNL     1       4.839   4.127  -0.023  0.00  0.00    +0.270 C 
ATOM      2  O   UNL     1       5.811   3.401  -0.036  0.00  0.00    -0.270 OA
ATOM      3  N   UNL     1       4.998   5.466  -0.018  0.00  0.00    -0.204 N 
ATOM      4  H   UNL     1       4.221   6.046  -0.008  0.00  0.00    +0.177 HD
ENDROOT
BRANCH   3   5
ATOM      5  N   UNL     1       6.285   6.019  -0.028  0.00  0.00    -0.187 NA
ATOM      6  C   UNL     1       6.439   7.310  -0.023  0.00  0.00    +0.145 C 
BRANCH   6   7
ATOM      7  C   UNL     1       7.785   7.889  -0.033  0.00  0.00    +0.033 A 
ATOM      8  C   UNL     1       8.163   9.220  -0.025  0.00  0.00    +0.018 A 
ATOM      9  C   UNL     1       9.506   9.519  -0.037  0.00  0.00    +0.028 A 
ATOM     10  C   UNL     1      10.412   8.505  -0.058  0.00  0.00    +0.079 A 
ATOM     11  S   UNL     1       9.366   7.059  -0.052  0.00  0.00    -0.076 S 
ATOM     12 CL   UNL     1      12.146   8.595  -0.078  0.00  0.00    -0.076 Cl
ENDBRANCH   6   7
ENDBRANCH   3   5
BRANCH   1  13
ATOM     13  C   UNL     1       3.454   3.533  -0.013  0.00  0.00    +0.326 C 
BRANCH  13  14
ATOM     14  O   UNL     1       3.548   2.107  -0.021  0.00  0.00    -0.481 OA
BRANCH  14  17
ATOM     15  C   UNL     1      -0.017   1.379   0.010  0.00  0.00    +0.023 A 
ATOM     16  C   UNL     1       1.170   2.088   0.002  0.00  0.00    +0.048 A 
ATOM     17  C   UNL     1       2.380   1.411  -0.013  0.00  0.00    +0.140 A 
ATOM     18  C   UNL     1       2.398   0.023  -0.021  0.00  0.00    +0.084 A 
ATOM     19  C   UNL     1       1.209  -0.682  -0.013  0.00  0.00    +0.043 A 
ATOM     20  C   UNL     1       0.002  -0.004   0.002  0.00  0.00    +0.043 A 
ATOM     21 CL   UNL     1      -1.490  -0.891   0.012  0.00  0.00    -0.083 Cl
ATOM     22 CL   UNL     1       3.911  -0.827  -0.040  0.00  0.00    -0.080 Cl
ENDBRANCH  14  17
ENDBRANCH  13  14
ENDBRANCH   1  13
TORSDOF 5
