REMARK  Name = ZINC21473143
REMARK  7 active torsions:
REMARK  status: ('A' for Active; 'I' for Inactive)
REMARK    1  A    between atoms: C_5  and  C_7
REMARK    2  A    between atoms: N_11  and  C_15
REMARK    3  A    between atoms: C_15  and  C_16
REMARK    4  A    between atoms: C_16  and  N_17
REMARK    5  A    between atoms: C_18  and  C_20
REMARK    6  A    between atoms: C_20  and  N_21
REMARK    7  A    between atoms: C_25  and  C_27
REMARK                            x       y       z     vdW  Elec       q    Type
REMARK                         _______ _______ _______ _____ _____    ______ ____
ROOT
ATOM      1  C   UNL     1      -3.937   2.003   5.680  0.00  0.00    +0.123 C 
ENDROOT
BRANCH   1   2
ATOM      2  N   UNL     1      -2.978   2.771   4.882  0.00  0.00    -0.315 N 
ATOM      3  C   UNL     1      -2.880   2.555   3.555  0.00  0.00    +0.197 C 
ATOM      4  O   UNL     1      -3.585   1.724   3.022  0.00  0.00    -0.278 OA
ATOM      5  H   UNL     1      -2.339   3.524   5.365  0.00  0.00    +0.149 HD
BRANCH   3   6
ATOM      6  C   UNL     1      -1.893   3.345   2.734  0.00  0.00    +0.019 C 
BRANCH   6   7
ATOM      7  N   UNL     1      -1.979   2.925   1.329  0.00  0.00    +0.390 N 
ATOM      8  C   UNL     1      -3.257   3.351   0.728  0.00  0.00    -0.077 C 
ATOM      9  C   UNL     1      -2.917   4.209  -0.509  0.00  0.00    -0.020 C 
ATOM     10  C   UNL     1      -1.476   3.753  -0.867  0.00  0.00    -0.012 C 
ATOM     11  C   UNL     1      -0.872   3.500   0.536  0.00  0.00    -0.030 C 
ATOM     12  H   UNL     1      -1.915   1.827   1.320  0.00  0.00    -0.080 HD
BRANCH  11  13
ATOM     13  C   UNL     1       0.271   2.522   0.446  0.00  0.00    -0.024 A 
ATOM     14  C   UNL     1       1.605   2.761   0.481  0.00  0.00    +0.009 A 
ATOM     15  C   UNL     1       2.480   1.697   0.374  0.00  0.00    +0.008 A 
ATOM     16  C   UNL     1       1.979   0.445   0.238  0.00  0.00    +0.045 A 
ATOM     17  S   UNL     1       0.220   0.747   0.257  0.00  0.00    -0.103 S 
ENDBRANCH  11  13
ENDBRANCH   6   7
ENDBRANCH   3   6
ENDBRANCH   1   2
BRANCH   1  18
ATOM     18  C   UNL     1      -3.848   2.440   7.144  0.00  0.00    +0.136 C 
BRANCH  18  23
ATOM     19  C   UNL     1      -5.337  -1.377   9.941  0.00  0.00    +0.029 C 
ATOM     20  C   UNL     1      -5.439  -0.198   9.278  0.00  0.00    +0.080 C 
ATOM     21  C   UNL     1      -4.425   0.528   8.485  0.00  0.00    +0.260 C 
ATOM     22  O   UNL     1      -3.297   0.095   8.340  0.00  0.00    -0.269 OA
ATOM     23  N   UNL     1      -4.806   1.672   7.942  0.00  0.00    -0.227 N 
ATOM     24  C   UNL     1      -6.056   2.151   8.111  0.00  0.00    +0.286 C 
ATOM     25  O   UNL     1      -6.535   3.181   7.677  0.00  0.00    -0.262 OA
ATOM     26  S   UNL     1      -6.838   0.905   9.123  0.00  0.00    -0.026 S 
BRANCH  19  31
ATOM     27  C   UNL     1      -8.400  -1.328  12.103  0.00  0.00    +0.001 A 
ATOM     28  C   UNL     1      -8.476  -2.655  12.490  0.00  0.00    +0.001 A 
ATOM     29  C   UNL     1      -7.535  -3.568  12.049  0.00  0.00    +0.020 A 
ATOM     30  C   UNL     1      -6.509  -3.161  11.219  0.00  0.00    +0.048 A 
ATOM     31  C   UNL     1      -6.425  -1.820  10.824  0.00  0.00    -0.005 A 
ATOM     32  C   UNL     1      -7.380  -0.903  11.279  0.00  0.00    +0.009 A 
ATOM     33 CL   UNL     1      -5.327  -4.307  10.668  0.00  0.00    -0.083 Cl
ENDBRANCH  19  31
ENDBRANCH  18  23
ENDBRANCH   1  18
TORSDOF 7
