REMARK  Name = ZINC39685712
REMARK  14 active torsions:
REMARK  status: ('A' for Active; 'I' for Inactive)
REMARK    1  A    between atoms: C_1  and  C_2
REMARK    2  A    between atoms: C_2  and  C_3
REMARK    3  A    between atoms: C_2  and  C_4
REMARK    4  A    between atoms: C_4  and  C_6
REMARK    5  A    between atoms: C_4  and  N_13
REMARK    6  A    between atoms: N_8  and  C_9
REMARK    7  A    between atoms: C_9  and  C_10
REMARK    8  A    between atoms: C_9  and  C_11
REMARK    9  A    between atoms: C_9  and  C_12
REMARK   10  A    between atoms: C_14  and  C_16
REMARK   11  A    between atoms: C_27  and  C_29
REMARK   12  A    between atoms: C_34  and  O_35
REMARK   13  A    between atoms: O_35  and  C_36
REMARK   14  A    between atoms: C_36  and  C_38
REMARK                            x       y       z     vdW  Elec       q    Type
REMARK                         _______ _______ _______ _____ _____    ______ ____
ROOT
ATOM      1  C   UNL     1      -2.916  -0.748  -4.031  0.00  0.00    +0.100 C 
ATOM      2  C   UNL     1      -4.291  -0.315  -3.475  0.00  0.00    +0.121 C 
ATOM      3  N   UNL     1      -5.277  -0.919  -4.401  0.00  0.00    -0.296 N 
ATOM      4  C   UNL     1      -4.720  -2.258  -4.710  0.00  0.00    +0.115 C 
ATOM      5  C   UNL     1      -3.201  -2.024  -4.840  0.00  0.00    -0.004 C 
ATOM      6  C   UNL     1      -2.434  -3.204  -4.254  0.00  0.00    -0.010 C 
ATOM      7  C   UNL     1      -2.687  -4.449  -5.110  0.00  0.00    -0.082 C 
ATOM      8  N   UNL     1      -2.253  -4.193  -6.488  0.00  0.00    +0.379 N 
ATOM      9  C   UNL     1      -3.061  -3.117  -7.077  0.00  0.00    -0.082 C 
ATOM     10  C   UNL     1      -2.823  -1.817  -6.304  0.00  0.00    -0.010 C 
ATOM     11  C   UNL     1      -6.421  -0.375  -4.859  0.00  0.00    +0.250 C 
ATOM     12  O   UNL     1      -7.166  -1.029  -5.564  0.00  0.00    -0.270 OA
ATOM     13  H   UNL     1      -1.282  -3.921  -6.489  0.00  0.00    -0.086 HD
ATOM     14  H   UNL     1      -2.365  -5.033  -7.036  0.00  0.00    -0.086 HD
ENDROOT
BRANCH  11  15
ATOM     15  C   UNL     1      -6.771   1.015  -4.506  0.00  0.00    +0.079 A 
ATOM     16  C   UNL     1      -6.477   1.511  -3.234  0.00  0.00    +0.017 A 
ATOM     17  C   UNL     1      -6.806   2.810  -2.910  0.00  0.00    +0.001 A 
ATOM     18  C   UNL     1      -7.427   3.626  -3.841  0.00  0.00    +0.004 A 
ATOM     19  C   UNL     1      -7.723   3.148  -5.102  0.00  0.00    +0.047 A 
ATOM     20  C   UNL     1      -7.395   1.845  -5.446  0.00  0.00    +0.144 A 
BRANCH  20  21
ATOM     21  O   UNL     1      -7.681   1.375  -6.687  0.00  0.00    -0.425 OA
BRANCH  21  22
ATOM     22  C   UNL     1      -6.701   1.385  -7.606  0.00  0.00    +0.309 C 
ATOM     23  O   UNL     1      -5.631   1.881  -7.344  0.00  0.00    -0.251 OA
ATOM     24  C   UNL     1      -6.937   0.777  -8.965  0.00  0.00    +0.136 C 
ENDBRANCH  21  22
ENDBRANCH  20  21
ENDBRANCH  11  15
BRANCH   1  26
ATOM     25  N   UNL     1      -0.641  -0.833  -3.062  0.00  0.00    -0.303 N 
ATOM     26  C   UNL     1      -1.963  -1.044  -2.902  0.00  0.00    +0.219 C 
ATOM     27  O   UNL     1      -2.385  -1.474  -1.849  0.00  0.00    -0.275 OA
ATOM     28  H   UNL     1      -0.306  -0.474  -3.898  0.00  0.00    +0.149 HD
BRANCH  25  29
ATOM     29  C   UNL     1       0.288  -1.146  -1.974  0.00  0.00    +0.161 C 
BRANCH  29  30
ATOM     30  C   UNL     1       1.429  -0.162  -1.989  0.00  0.00    +0.234 C 
ATOM     31  O   UNL     1       1.607   0.545  -2.958  0.00  0.00    -0.274 OA
ATOM     32  N   UNL     1       2.253  -0.069  -0.927  0.00  0.00    -0.309 N 
ATOM     33  H   UNL     1       2.156  -0.683  -0.182  0.00  0.00    +0.149 HD
BRANCH  32  34
ATOM     34  C   UNL     1       3.296   0.960  -0.897  0.00  0.00    +0.026 C 
ATOM     35  C   UNL     1       2.650   2.344  -0.986  0.00  0.00    +0.031 C 
ATOM     36  C   UNL     1       4.085   0.848   0.410  0.00  0.00    +0.031 C 
ATOM     37  C   UNL     1       4.242   0.762  -2.082  0.00  0.00    +0.031 C 
ENDBRANCH  32  34
ENDBRANCH  29  30
BRANCH  29  39
ATOM     38  C   UNL     1      -0.297  -3.575  -1.957  0.00  0.00    +0.009 C 
ATOM     39  C   UNL     1       0.833  -2.563  -2.160  0.00  0.00    +0.012 C 
ATOM     40  C   UNL     1       1.401  -2.709  -3.573  0.00  0.00    +0.009 C 
ENDBRANCH  29  39
ENDBRANCH  25  29
ENDBRANCH   1  26
TORSDOF 8
