REMARK  Name = ZINC13843795
REMARK  7 active torsions:
REMARK  status: ('A' for Active; 'I' for Inactive)
REMARK    1  A    between atoms: C_1  and  C_2
REMARK    2  A    between atoms: C_2  and  N_3
REMARK    3  A    between atoms: C_7  and  C_8
REMARK    4  A    between atoms: C_11  and  O_14
REMARK    5  A    between atoms: O_14  and  C_15
REMARK    6  A    between atoms: N_18  and  S_19
REMARK    7  A    between atoms: S_19  and  C_22
REMARK                            x       y       z     vdW  Elec       q    Type
REMARK                         _______ _______ _______ _____ _____    ______ ____
ROOT
ATOM      1  N   UNL     1       0.494  -1.459  -1.052  0.00  0.00    -0.245 N 
ATOM      2  C   UNL     1      -0.135  -1.357  -2.210  0.00  0.00    +0.259 C 
ATOM      3  O   UNL     1      -1.331  -1.138  -2.266  0.00  0.00    -0.269 OA
ATOM      4  C   UNL     1       0.677  -1.521  -3.431  0.00  0.00    +0.078 C 
ATOM      5  C   UNL     1       0.296  -1.465  -4.732  0.00  0.00    +0.028 C 
ATOM      6  S   UNL     1       2.298  -1.810  -2.736  0.00  0.00    -0.047 S 
ATOM      7  C   UNL     1       1.853  -1.702  -1.010  0.00  0.00    +0.189 C 
ATOM      8  N   UNL     1       2.623  -1.825   0.035  0.00  0.00    -0.105 NA
ENDROOT
BRANCH   5   9
ATOM      9  C   UNL     1       1.248  -1.821  -5.792  0.00  0.00    -0.024 A 
ATOM     10  C   UNL     1       1.007  -1.429  -7.114  0.00  0.00    +0.011 A 
ATOM     11  C   UNL     1       1.903  -1.765  -8.104  0.00  0.00    +0.046 A 
ATOM     12  C   UNL     1       3.046  -2.492  -7.792  0.00  0.00    +0.120 A 
ATOM     13  C   UNL     1       3.291  -2.884  -6.481  0.00  0.00    +0.046 A 
ATOM     14  C   UNL     1       2.404  -2.549  -5.483  0.00  0.00    +0.011 A 
BRANCH  12  15
ATOM     15  O   UNL     1       3.926  -2.821  -8.772  0.00  0.00    -0.495 OA
ATOM     16  C   UNL     1       5.080  -3.569  -8.383  0.00  0.00    +0.277 C 
ENDBRANCH  12  15
ENDBRANCH   5   9
BRANCH   8  17
ATOM     17  S   UNL     1       4.241  -2.118  -0.158  0.00  0.00    +0.107 S 
ATOM     18  O   UNL     1       4.354  -3.412  -0.735  0.00  0.00    -0.146 OA
ATOM     19  O   UNL     1       4.793  -0.961  -0.771  0.00  0.00    -0.146 OA
BRANCH  17  20
ATOM     20  C   UNL     1       4.949  -2.221   1.452  0.00  0.00    +0.150 A 
ATOM     21  C   UNL     1       5.110  -3.309   2.245  0.00  0.00    +0.037 A 
ATOM     22  C   UNL     1       5.699  -3.152   3.486  0.00  0.00    +0.010 A 
ATOM     23  C   UNL     1       6.096  -1.915   3.873  0.00  0.00    +0.047 A 
ATOM     24  S   UNL     1       5.645  -0.923   2.460  0.00  0.00    -0.076 S 
ENDBRANCH  17  20
ENDBRANCH   8  17
BRANCH   1  26
ATOM     25  C   UNL     1      -0.261   0.166   0.613  0.00  0.00    +0.025 C 
ATOM     26  C   UNL     1      -0.255  -1.307   0.198  0.00  0.00    +0.112 C 
ENDBRANCH   1  26
TORSDOF 5
