REMARK  Name = ZINC06492055
REMARK  7 active torsions:
REMARK  status: ('A' for Active; 'I' for Inactive)
REMARK    1  A    between atoms: C_1  and  C_2
REMARK    2  A    between atoms: C_2  and  O_3
REMARK    3  A    between atoms: O_3  and  C_4
REMARK    4  A    between atoms: C_4  and  C_6
REMARK    5  A    between atoms: C_9  and  N_12
REMARK    6  A    between atoms: C_16  and  C_17
REMARK    7  A    between atoms: C_22  and  O_23
REMARK                            x       y       z     vdW  Elec       q    Type
REMARK                         _______ _______ _______ _____ _____    ______ ____
ROOT
ATOM      1  N   UNL     1      -3.510   6.424  -0.168  0.00  0.00    -0.184 N 
ATOM      2  C   UNL     1      -2.642   5.399  -0.072  0.00  0.00    +0.272 C 
ATOM      3  O   UNL     1      -2.921   4.217  -0.005  0.00  0.00    -0.268 OA
ATOM      4  C   UNL     1      -1.288   5.984  -0.059  0.00  0.00    +0.102 C 
ATOM      5  C   UNL     1      -0.085   5.315   0.030  0.00  0.00    +0.030 C 
ATOM      6  C   UNL     1      -1.498   7.441  -0.169  0.00  0.00    +0.266 C 
ATOM      7  O   UNL     1      -0.635   8.298  -0.199  0.00  0.00    -0.268 OA
ATOM      8  N   UNL     1      -2.829   7.639  -0.230  0.00  0.00    -0.223 N 
ATOM      9  H   UNL     1      -3.255   8.508  -0.305  0.00  0.00    +0.174 HD
ENDROOT
BRANCH   5  10
ATOM     10  C   UNL     1      -0.067   3.876   0.294  0.00  0.00    +0.020 A 
ATOM     11  C   UNL     1      -0.948   3.318   1.232  0.00  0.00    +0.031 A 
ATOM     12  C   UNL     1      -0.928   1.962   1.470  0.00  0.00    +0.043 A 
ATOM     13  C   UNL     1      -0.033   1.145   0.794  0.00  0.00    +0.039 A 
ATOM     14  C   UNL     1       0.841   1.679  -0.133  0.00  0.00    +0.061 A 
ATOM     15  C   UNL     1       0.834   3.042  -0.392  0.00  0.00    +0.138 A 
ATOM     16 BR   UNL     1       2.049   0.550  -1.051  0.00  0.00    -0.046 Br
ATOM     17 CL   UNL     1      -2.023   1.272   2.627  0.00  0.00    -0.083 Cl
BRANCH  15  18
ATOM     18  O   UNL     1       1.692   3.567  -1.302  0.00  0.00    -0.505 OA
ATOM     19  H   UNL     1       1.341   3.595  -2.203  0.00  0.00    +0.292 HD
ENDBRANCH  15  18
ENDBRANCH   5  10
BRANCH   1  23
ATOM     20  C   UNL     1      -7.653   6.019  -0.287  0.00  0.00    +0.059 A 
ATOM     21  C   UNL     1      -7.070   7.288  -0.356  0.00  0.00    +0.017 A 
ATOM     22  C   UNL     1      -5.701   7.418  -0.316  0.00  0.00    +0.026 A 
ATOM     23  C   UNL     1      -4.896   6.288  -0.208  0.00  0.00    +0.056 A 
ATOM     24  C   UNL     1      -5.472   5.023  -0.146  0.00  0.00    +0.026 A 
ATOM     25  C   UNL     1      -6.841   4.886  -0.179  0.00  0.00    +0.017 A 
BRANCH  20  26
ATOM     26  C   UNL     1      -9.120   5.876  -0.329  0.00  0.00    +0.339 C 
ATOM     27  O   UNL     1      -9.824   6.861  -0.423  0.00  0.00    -0.245 OA
BRANCH  26  28
ATOM     28  O   UNL     1      -9.679   4.652  -0.263  0.00  0.00    -0.461 OA
BRANCH  28  30
ATOM     29  C   UNL     1     -11.576   3.126  -0.223  0.00  0.00    +0.048 C 
ATOM     30  C   UNL     1     -11.129   4.586  -0.310  0.00  0.00    +0.229 C 
ENDBRANCH  28  30
ENDBRANCH  26  28
ENDBRANCH  20  26
ENDBRANCH   1  23
TORSDOF 6
