REMARK  Name = ZINC65988389
REMARK  7 active torsions:
REMARK  status: ('A' for Active; 'I' for Inactive)
REMARK    1  A    between atoms: C_1  and  C_2
REMARK    2  A    between atoms: C_2  and  C_28
REMARK    3  A    between atoms: C_4  and  N_10
REMARK    4  A    between atoms: C_6  and  C_8
REMARK    5  A    between atoms: C_6  and  C_9
REMARK    6  A    between atoms: C_16  and  C_19
REMARK    7  A    between atoms: N_21  and  C_22
REMARK                            x       y       z     vdW  Elec       q    Type
REMARK                         _______ _______ _______ _____ _____    ______ ____
ROOT
ATOM      1  N   UNL     1      -4.310   0.479   2.708  0.00  0.00    -0.296 N 
ATOM      2  C   UNL     1      -4.546  -0.473   1.784  0.00  0.00    +0.302 C 
ATOM      3  O   UNL     1      -3.662  -0.813   1.022  0.00  0.00    -0.253 OA
ATOM      4  N   UNL     1      -5.762  -1.049   1.705  0.00  0.00    -0.286 N 
ATOM      5  C   UNL     1      -6.002  -2.168   0.783  0.00  0.00    +0.110 C 
ATOM      6  C   UNL     1      -6.598  -3.338   1.573  0.00  0.00    +0.032 C 
ATOM      7  C   UNL     1      -7.845  -2.861   2.320  0.00  0.00    +0.078 C 
ATOM      8  C   UNL     1      -7.459  -1.758   3.309  0.00  0.00    +0.032 C 
ATOM      9  C   UNL     1      -6.871  -0.575   2.544  0.00  0.00    +0.110 C 
ATOM     10  H   UNL     1      -5.033   0.802   3.267  0.00  0.00    +0.151 HD
ENDROOT
BRANCH   1  14
ATOM     11  C   UNL     1      -0.368   1.056   4.587  0.00  0.00    -0.010 C 
ATOM     12  C   UNL     1      -1.410   2.174   4.475  0.00  0.00    -0.072 C 
ATOM     13  C   UNL     1      -2.798   1.569   4.289  0.00  0.00    +0.009 C 
ATOM     14  C   UNL     1      -2.957   1.027   2.869  0.00  0.00    +0.072 C 
ATOM     15  C   UNL     1      -2.764   2.187   1.892  0.00  0.00    +0.009 C 
ATOM     16  C   UNL     1      -1.376   2.797   2.059  0.00  0.00    -0.072 C 
ATOM     17  N   UNL     1      -1.054   3.125   3.437  0.00  0.00    +0.386 N 
ATOM     18  C   UNL     1      -1.349   4.111   1.244  0.00  0.00    -0.010 C 
ATOM     19  C   UNL     1      -0.324   1.867   1.447  0.00  0.00    -0.010 C 
ATOM     20  C   UNL     1      -1.412   2.929   5.824  0.00  0.00    -0.010 C 
ATOM     21  H   UNL     1      -1.492   4.024   3.663  0.00  0.00    -0.084 HD
ATOM     22  H   UNL     1      -0.047   3.304   3.497  0.00  0.00    -0.084 HD
ENDBRANCH   1  14
BRANCH   7  23
ATOM     23  C   UNL     1      -8.454  -4.017   3.071  0.00  0.00    +0.216 C 
ATOM     24  O   UNL     1      -7.941  -5.115   3.013  0.00  0.00    -0.276 OA
ATOM     25  N   UNL     1      -9.568  -3.832   3.806  0.00  0.00    -0.312 N 
ATOM     26  H   UNL     1      -9.978  -2.954   3.852  0.00  0.00    +0.149 HD
BRANCH  25  27
ATOM     27  C   UNL     1     -10.160  -4.956   4.535  0.00  0.00    +0.073 C 
ATOM     28  C   UNL     1     -11.083  -5.741   3.601  0.00  0.00    +0.022 C 
ATOM     29  C   UNL     1     -11.701  -6.915   4.363  0.00  0.00    +0.002 C 
ATOM     30  C   UNL     1     -12.508  -6.385   5.550  0.00  0.00    +0.000 C 
ATOM     31  C   UNL     1     -11.584  -5.601   6.484  0.00  0.00    +0.002 C 
ATOM     32  C   UNL     1     -10.966  -4.426   5.722  0.00  0.00    +0.022 C 
ENDBRANCH  25  27
ENDBRANCH   7  23
TORSDOF 3
