REMARK  Name = ZINC36263969
REMARK  7 active torsions:
REMARK  status: ('A' for Active; 'I' for Inactive)
REMARK    1  A    between atoms: C_1  and  C_2
REMARK    2  A    between atoms: C_4  and  S_12
REMARK    3  A    between atoms: C_6  and  N_9
REMARK    4  A    between atoms: C_7  and  C_8
REMARK    5  A    between atoms: S_12  and  N_15
REMARK    6  A    between atoms: N_15  and  C_16
REMARK    7  A    between atoms: C_19  and  N_21
REMARK                            x       y       z     vdW  Elec       q    Type
REMARK                         _______ _______ _______ _____ _____    ______ ____
ROOT
ATOM      1  S   UNL     1      -0.559  -2.923  -2.687  0.00  0.00    +0.059 S 
ATOM      2  O   UNL     1      -1.287  -4.092  -2.335  0.00  0.00    -0.153 OA
ATOM      3  O   UNL     1      -1.060  -1.961  -3.606  0.00  0.00    -0.153 OA
ENDROOT
BRANCH   1   7
ATOM      4  C   UNL     1       0.515   1.460  -0.050  0.00  0.00    +0.044 C 
ATOM      5  C   UNL     1       0.258  -0.024  -0.027  0.00  0.00    -0.044 A 
ATOM      6  C   UNL     1       0.003  -0.700  -1.206  0.00  0.00    +0.032 A 
ATOM      7  C   UNL     1      -0.234  -2.062  -1.184  0.00  0.00    +0.108 A 
ATOM      8  C   UNL     1      -0.215  -2.748   0.016  0.00  0.00    +0.061 A 
ATOM      9  C   UNL     1       0.040  -2.072   1.194  0.00  0.00    +0.131 A 
ATOM     10  C   UNL     1       0.281  -0.711   1.173  0.00  0.00    -0.017 A 
ATOM     11  C   UNL     1       0.565   0.024   2.457  0.00  0.00    +0.046 C 
BRANCH   9  12
ATOM     12  N   UNL     1       0.059  -2.807   2.479  0.00  0.00    +0.057 N 
ATOM     13  O   UNL     1       0.514  -3.926   2.529  0.00  0.00    -0.126 OA
ATOM     14  O   UNL     1      -0.379  -2.288   3.479  0.00  0.00    -0.126 OA
ENDBRANCH   9  12
ENDBRANCH   1   7
BRANCH   1  15
ATOM     15  N   UNL     1       0.898  -3.434  -3.284  0.00  0.00    -0.189 NA
ATOM     16  H   UNL     1       1.229  -3.080  -4.125  0.00  0.00    +0.148 HD
BRANCH  15  17
ATOM     17  C   UNL     1       1.688  -4.420  -2.543  0.00  0.00    +0.061 C 
ATOM     18  C   UNL     1       2.517  -5.416  -3.356  0.00  0.00    +0.004 C 
ATOM     19  C   UNL     1       3.212  -4.286  -2.592  0.00  0.00    -0.055 C 
BRANCH  19  20
ATOM     20  N   UNL     1       3.963  -4.647  -1.383  0.00  0.00    +0.381 N 
ATOM     21  H   UNL     1       3.788  -5.614  -1.154  0.00  0.00    -0.090 HD
ATOM     22  H   UNL     1       4.950  -4.514  -1.548  0.00  0.00    -0.090 HD
ATOM     23  H   UNL     1       3.668  -4.062  -0.616  0.00  0.00    -0.090 HD
ENDBRANCH  19  20
ENDBRANCH  15  17
ENDBRANCH   1  15
TORSDOF 5
