REMARK  Name = ZINC16885784
REMARK  8 active torsions:
REMARK  status: ('A' for Active; 'I' for Inactive)
REMARK    1  A    between atoms: C_1  and  C_2
REMARK    2  A    between atoms: C_5  and  C_9
REMARK    3  A    between atoms: C_6  and  C_8
REMARK    4  A    between atoms: C_9  and  C_10
REMARK    5  A    between atoms: C_11  and  C_37
REMARK    6  A    between atoms: N_14  and  C_17
REMARK    7  A    between atoms: C_17  and  C_18
REMARK    8  A    between atoms: C_28  and  C_31
REMARK                            x       y       z     vdW  Elec       q    Type
REMARK                         _______ _______ _______ _____ _____    ______ ____
ROOT
ATOM      1  C   UNL     1      -1.180   1.495  -0.445  0.00  0.00    +0.042 A 
ATOM      2  C   UNL     1      -0.523   2.562  -0.987  0.00  0.00    +0.050 A 
ATOM      3  N   UNL     1      -0.726   2.894  -2.260  0.00  0.00    -0.220 NA
ATOM      4  C   UNL     1      -1.555   2.211  -3.023  0.00  0.00    +0.205 A 
ATOM      5  N   UNL     1      -2.237   1.138  -2.538  0.00  0.00    -0.276 N 
ATOM      6  C   UNL     1      -2.062   0.757  -1.254  0.00  0.00    +0.259 A 
ATOM      7  O   UNL     1      -2.661  -0.205  -0.804  0.00  0.00    -0.267 OA
ATOM      8  N   UNL     1      -1.734   2.588  -4.330  0.00  0.00    -0.264 N 
ATOM      9  C   UNL     1      -0.958   3.605  -4.871  0.00  0.00    +0.165 A 
ATOM     10  N   UNL     1      -0.972   4.105  -6.093  0.00  0.00    -0.225 NA
ATOM     11  C   UNL     1      -0.155   5.088  -6.442  0.00  0.00    +0.080 A 
ATOM     12  C   UNL     1       0.726   5.587  -5.523  0.00  0.00    +0.076 A 
ATOM     13  S   UNL     1       0.328   4.578  -4.101  0.00  0.00    -0.060 S 
ATOM     14  C   UNL     1       0.433   3.365  -0.143  0.00  0.00    +0.066 C 
ATOM     15  H   UNL     1      -2.402   2.144  -4.876  0.00  0.00    +0.157 HD
ENDROOT
BRANCH  11  16
ATOM     16  C   UNL     1      -0.191   5.638  -7.819  0.00  0.00    +0.001 A 
ATOM     17  C   UNL     1       0.670   6.672  -8.182  0.00  0.00    +0.010 A 
ATOM     18  C   UNL     1       0.634   7.177  -9.466  0.00  0.00    +0.001 A 
ATOM     19  C   UNL     1      -0.260   6.665 -10.389  0.00  0.00    +0.000 A 
ATOM     20  C   UNL     1      -1.121   5.642 -10.033  0.00  0.00    +0.001 A 
ATOM     21  C   UNL     1      -1.091   5.126  -8.753  0.00  0.00    +0.010 A 
ENDBRANCH  11  16
BRANCH   1  22
ATOM     22  C   UNL     1      -0.958   1.111   0.995  0.00  0.00    +0.077 C 
BRANCH  22  27
ATOM     23  C   UNL     1      -4.935   3.679   4.309  0.00  0.00    +0.044 C 
ATOM     24  C   UNL     1      -3.897   3.010   3.445  0.00  0.00    -0.050 A 
ATOM     25  C   UNL     1      -3.962   3.130   2.069  0.00  0.00    +0.003 A 
ATOM     26  C   UNL     1      -3.010   2.516   1.277  0.00  0.00    +0.004 A 
ATOM     27  C   UNL     1      -1.995   1.781   1.859  0.00  0.00    -0.040 A 
ATOM     28  C   UNL     1      -1.934   1.656   3.235  0.00  0.00    -0.047 A 
ATOM     29  C   UNL     1      -2.882   2.275   4.028  0.00  0.00    +0.007 A 
ATOM     30  C   UNL     1      -0.830   0.850   3.870  0.00  0.00    +0.044 C 
ENDBRANCH  22  27
ENDBRANCH   1  22
BRANCH   5  31
ATOM     31  C   UNL     1      -3.152   0.394  -3.407  0.00  0.00    +0.164 C 
BRANCH  31  32
ATOM     32  C   UNL     1      -2.522  -0.919  -3.793  0.00  0.00    -0.009 A 
ATOM     33  C   UNL     1      -2.849  -2.072  -3.104  0.00  0.00    +0.007 A 
ATOM     34  C   UNL     1      -2.272  -3.276  -3.458  0.00  0.00    +0.000 A 
ATOM     35  C   UNL     1      -1.367  -3.329  -4.502  0.00  0.00    +0.001 A 
ATOM     36  C   UNL     1      -1.039  -2.178  -5.192  0.00  0.00    +0.020 A 
ATOM     37  C   UNL     1      -1.621  -0.972  -4.842  0.00  0.00    +0.046 A 
ATOM     38 CL   UNL     1      -1.216   0.474  -5.713  0.00  0.00    -0.083 Cl
ENDBRANCH  31  32
ENDBRANCH   5  31
TORSDOF 5
