REMARK  Name = ZINC04873933
REMARK  10 active torsions:
REMARK  status: ('A' for Active; 'I' for Inactive)
REMARK    1  A    between atoms: C_1  and  C_2
REMARK    2  A    between atoms: C_3  and  N_27
REMARK    3  A    between atoms: C_4  and  C_26
REMARK    4  A    between atoms: N_5  and  C_7
REMARK    5  A    between atoms: C_7  and  C_8
REMARK    6  A    between atoms: C_8  and  C_9
REMARK    7  A    between atoms: C_9  and  C_10
REMARK    8  A    between atoms: N_12  and  C_13
REMARK    9  A    between atoms: C_14  and  C_24
REMARK   10  A    between atoms: C_19  and  C_23
REMARK                            x       y       z     vdW  Elec       q    Type
REMARK                         _______ _______ _______ _____ _____    ______ ____
ROOT
ATOM      1  C   UNL     1       2.712   3.933  -0.003  0.00  0.00    +0.218 C 
ATOM      2  O   UNL     1       3.641   3.152  -0.016  0.00  0.00    -0.275 OA
ATOM      3  N   UNL     1       1.446   3.473   0.007  0.00  0.00    -0.279 N 
ATOM      4  H   UNL     1       0.703   4.098   0.017  0.00  0.00    +0.155 HD
ENDROOT
BRANCH   3   5
ATOM      5  C   UNL     1       1.203   2.107   0.002  0.00  0.00    +0.090 A 
ATOM      6  C   UNL     1      -0.018   1.448   0.010  0.00  0.00    +0.084 A 
ATOM      7  C   UNL     1       0.002  -0.004   0.002  0.00  0.00    -0.018 A 
ATOM      8  C   UNL     1       1.233  -0.563  -0.013  0.00  0.00    -0.004 A 
ATOM      9  S   UNL     1       2.352   0.809  -0.016  0.00  0.00    -0.077 S 
ATOM     10  C   UNL     1       1.561  -2.023  -0.025  0.00  0.00    +0.046 C 
ATOM     11  C   UNL     1       0.290  -2.802  -0.394  0.00  0.00    -0.009 C 
ATOM     12  C   UNL     1      -0.872  -2.282   0.457  0.00  0.00    +0.008 C 
ATOM     13  C   UNL     1      -1.252  -0.869   0.011  0.00  0.00    +0.037 C 
ATOM     14  C   UNL     1       0.500  -4.293  -0.119  0.00  0.00    +0.008 C 
BRANCH   6  15
ATOM     15  C   UNL     1      -1.252   2.174   0.020  0.00  0.00    +0.102 C 
ATOM     16  N   UNL     1      -2.232   2.749   0.028  0.00  0.00    -0.191 NA
ENDBRANCH   6  15
ENDBRANCH   3   5
BRANCH   1  17
ATOM     17  C   UNL     1       2.976   5.417   0.002  0.00  0.00    +0.098 C 
BRANCH  17  18
ATOM     18  C   UNL     1       4.485   5.667  -0.011  0.00  0.00    +0.032 C 
BRANCH  18  19
ATOM     19  C   UNL     1       4.753   7.173  -0.006  0.00  0.00    +0.144 C 
BRANCH  19  24
ATOM     20  C   UNL     1       9.453   7.943   1.578  0.00  0.00    +0.070 C 
ATOM     21  C   UNL     1       8.246   7.748   0.697  0.00  0.00    +0.090 A 
ATOM     22  C   UNL     1       8.242   7.756  -0.702  0.00  0.00    +0.169 A 
ATOM     23  C   UNL     1       6.971   7.548  -1.116  0.00  0.00    +0.067 A 
ATOM     24  N   UNL     1       6.198   7.412  -0.018  0.00  0.00    -0.266 N 
ATOM     25  N   UNL     1       7.021   7.548   1.108  0.00  0.00    -0.174 NA
ATOM     26  C   UNL     1       6.502   7.479  -2.546  0.00  0.00    +0.067 C 
BRANCH  22  27
ATOM     27  N   UNL     1       9.420   7.958  -1.575  0.00  0.00    +0.060 N 
ATOM     28  O   UNL     1       9.732   9.081  -1.927  0.00  0.00    -0.126 OA
ATOM     29  O   UNL     1      10.078   7.000  -1.942  0.00  0.00    -0.126 OA
ENDBRANCH  22  27
ENDBRANCH  19  24
ENDBRANCH  18  19
ENDBRANCH  17  18
ENDBRANCH   1  17
TORSDOF 7
