REMARK  Name = ZINC34998419
REMARK  12 active torsions:
REMARK  status: ('A' for Active; 'I' for Inactive)
REMARK    1  A    between atoms: C_1  and  C_2
REMARK    2  A    between atoms: C_2  and  C_3
REMARK    3  A    between atoms: C_3  and  C_4
REMARK    4  A    between atoms: C_4  and  N_5
REMARK    5  A    between atoms: C_13  and  C_15
REMARK    6  A    between atoms: C_16  and  C_18
REMARK    7  A    between atoms: C_18  and  C_20
REMARK    8  A    between atoms: C_18  and  N_23
REMARK    9  A    between atoms: C_20  and  C_21
REMARK   10  A    between atoms: C_20  and  C_22
REMARK   11  A    between atoms: N_23  and  S_24
REMARK   12  A    between atoms: S_24  and  C_27
REMARK                            x       y       z     vdW  Elec       q    Type
REMARK                         _______ _______ _______ _____ _____    ______ ____
ROOT
ATOM      1  N   UNL     1       4.344  -1.972  -2.160  0.00  0.00    -0.299 N 
ATOM      2  C   UNL     1       4.368  -3.310  -2.325  0.00  0.00    +0.303 C 
ATOM      3  O   UNL     1       4.399  -4.041  -1.354  0.00  0.00    -0.253 OA
ATOM      4  N   UNL     1       4.359  -3.837  -3.566  0.00  0.00    -0.280 N 
ATOM      5  C   UNL     1       4.431  -2.967  -4.748  0.00  0.00    +0.128 C 
ATOM      6  C   UNL     1       3.232  -3.273  -5.655  0.00  0.00    +0.127 C 
ATOM      7  N   UNL     1       3.150  -4.728  -5.850  0.00  0.00    -0.297 N 
ATOM      8  C   UNL     1       3.079  -5.597  -4.667  0.00  0.00    +0.130 C 
ATOM      9  C   UNL     1       4.282  -5.291  -3.760  0.00  0.00    +0.092 C 
ATOM     10  C   UNL     1       4.096  -5.981  -2.407  0.00  0.00    +0.030 C 
ATOM     11  C   UNL     1       3.141  -5.254  -7.090  0.00  0.00    +0.235 C 
ATOM     12  O   UNL     1       2.958  -6.444  -7.243  0.00  0.00    -0.274 OA
ATOM     13  H   UNL     1       4.394  -1.388  -2.933  0.00  0.00    +0.150 HD
ENDROOT
BRANCH   1  14
ATOM     14  C   UNL     1       4.243  -1.401  -0.815  0.00  0.00    +0.106 C 
BRANCH  14  15
ATOM     15  C   UNL     1       4.235   0.126  -0.908  0.00  0.00    +0.018 C 
BRANCH  15  17
ATOM     16  C   UNL     1       4.122   2.249   0.403  0.00  0.00    +0.004 C 
ATOM     17  C   UNL     1       4.129   0.722   0.497  0.00  0.00    -0.002 C 
ENDBRANCH  15  17
ENDBRANCH  14  15
ENDBRANCH   1  14
BRANCH  11  18
ATOM     18  C   UNL     1       3.357  -4.366  -8.288  0.00  0.00    +0.165 C 
BRANCH  18  19
ATOM     19  C   UNL     1       2.039  -3.683  -8.661  0.00  0.00    +0.010 C 
ATOM     20  C   UNL     1       2.280  -2.706  -9.813  0.00  0.00    +0.009 C 
ATOM     21  C   UNL     1       1.022  -4.741  -9.094  0.00  0.00    +0.009 C 
ENDBRANCH  18  19
BRANCH  18  22
ATOM     22  N   UNL     1       3.826  -5.173  -9.417  0.00  0.00    -0.178 NA
ATOM     23  H   UNL     1       3.273  -5.892  -9.762  0.00  0.00    +0.149 HD
BRANCH  22  24
ATOM     24  S   UNL     1       5.300  -4.859 -10.104  0.00  0.00    +0.059 S 
ATOM     25  O   UNL     1       5.459  -5.789 -11.166  0.00  0.00    -0.153 OA
ATOM     26  O   UNL     1       5.362  -3.453 -10.306  0.00  0.00    -0.153 OA
BRANCH  24  27
ATOM     27  C   UNL     1       6.528  -5.249  -8.903  0.00  0.00    +0.105 A 
ATOM     28  C   UNL     1       6.959  -4.281  -8.015  0.00  0.00    +0.029 A 
ATOM     29  C   UNL     1       7.923  -4.587  -7.073  0.00  0.00    +0.017 A 
ATOM     30  C   UNL     1       8.456  -5.862  -7.018  0.00  0.00    +0.018 A 
ATOM     31  C   UNL     1       8.025  -6.831  -7.907  0.00  0.00    +0.017 A 
ATOM     32  C   UNL     1       7.057  -6.525  -8.845  0.00  0.00    +0.029 A 
ATOM     33 BR   UNL     1       9.775  -6.282  -5.729  0.00  0.00    -0.050 Br
ENDBRANCH  24  27
ENDBRANCH  22  24
ENDBRANCH  18  22
ENDBRANCH  11  18
TORSDOF 8
