REMARK  Name = ZINC36603098
REMARK  16 active torsions:
REMARK  status: ('A' for Active; 'I' for Inactive)
REMARK    1  A    between atoms: C_1  and  C_2
REMARK    2  A    between atoms: C_5  and  C_7
REMARK    3  A    between atoms: C_7  and  N_8
REMARK    4  A    between atoms: N_8  and  C_9
REMARK    5  A    between atoms: C_9  and  C_11
REMARK    6  A    between atoms: C_9  and  C_16
REMARK    7  A    between atoms: N_18  and  C_19
REMARK    8  A    between atoms: C_19  and  C_20
REMARK    9  A    between atoms: C_19  and  C_21
REMARK   10  A    between atoms: C_19  and  C_22
REMARK   11  A    between atoms: C_22  and  C_23
REMARK   12  A    between atoms: C_23  and  C_24
REMARK   13  A    between atoms: C_23  and  C_25
REMARK   14  A    between atoms: C_23  and  C_26
REMARK   15  A    between atoms: C_27  and  C_29
REMARK   16  A    between atoms: C_32  and  N_35
REMARK                            x       y       z     vdW  Elec       q    Type
REMARK                         _______ _______ _______ _____ _____    ______ ____
ROOT
ATOM      1  N   UNL     1       2.160  -1.324  -1.303  0.00  0.00    -0.272 N 
ATOM      2  C   UNL     1       1.491  -2.389  -1.787  0.00  0.00    +0.248 C 
ATOM      3  O   UNL     1       2.054  -3.180  -2.518  0.00  0.00    -0.270 OA
ENDROOT
BRANCH   2   4
ATOM      4  C   UNL     1       0.071  -2.594  -1.429  0.00  0.00    +0.037 A 
ATOM      5  C   UNL     1      -0.585  -1.674  -0.610  0.00  0.00    +0.015 A 
ATOM      6  C   UNL     1      -1.910  -1.872  -0.280  0.00  0.00    +0.033 A 
ATOM      7  C   UNL     1      -2.588  -2.979  -0.759  0.00  0.00    +0.126 A 
ATOM      8  C   UNL     1      -1.943  -3.894  -1.571  0.00  0.00    +0.033 A 
ATOM      9  C   UNL     1      -0.620  -3.706  -1.914  0.00  0.00    +0.015 A 
BRANCH   7  10
ATOM     10  N   UNL     1      -4.010  -3.184  -0.401  0.00  0.00    +0.056 N 
ATOM     11  O   UNL     1      -4.575  -2.386   0.309  0.00  0.00    -0.126 OA
ATOM     12  O   UNL     1      -4.604  -4.151  -0.818  0.00  0.00    -0.126 OA
ENDBRANCH   7  10
ENDBRANCH   2   4
BRANCH   1  13
ATOM     13  C   UNL     1       1.472  -0.350  -0.453  0.00  0.00    +0.183 C 
BRANCH  13  18
ATOM     14  C   UNL     1      -0.963  -2.819   3.210  0.00  0.00    +0.086 C 
ATOM     15  C   UNL     1       0.105  -2.051   2.475  0.00  0.00    +0.102 A 
ATOM     16  C   UNL     1       1.293  -1.674   2.982  0.00  0.00    +0.045 A 
ATOM     17  C   UNL     1       1.975  -0.982   1.955  0.00  0.00    +0.046 A 
ATOM     18  C   UNL     1       1.164  -0.977   0.882  0.00  0.00    +0.122 A 
ATOM     19  O   UNL     1       0.035  -1.631   1.201  0.00  0.00    -0.463 OA
ENDBRANCH  13  18
ENDBRANCH   1  13
BRANCH   1  20
ATOM     20  C   UNL     1       3.577  -1.140  -1.628  0.00  0.00    +0.229 C 
BRANCH  20  21
ATOM     21  C   UNL     1       4.401  -1.273  -0.373  0.00  0.00    +0.134 A 
ATOM     22  C   UNL     1       5.593  -1.890  -0.277  0.00  0.00    +0.047 A 
ATOM     23  C   UNL     1       6.004  -1.778   1.072  0.00  0.00    +0.041 A 
ATOM     24  C   UNL     1       5.039  -1.100   1.718  0.00  0.00    +0.195 A 
ATOM     25  O   UNL     1       4.073  -0.792   0.837  0.00  0.00    -0.465 OA
ENDBRANCH  20  21
BRANCH  20  26
ATOM     26  C   UNL     1       3.783   0.230  -2.221  0.00  0.00    +0.242 C 
ATOM     27  O   UNL     1       2.860   1.015  -2.268  0.00  0.00    -0.273 OA
ATOM     28  N   UNL     1       4.993   0.582  -2.699  0.00  0.00    -0.308 N 
ATOM     29  H   UNL     1       5.731  -0.046  -2.661  0.00  0.00    +0.149 HD
BRANCH  28  30
ATOM     30  C   UNL     1       5.193   1.914  -3.275  0.00  0.00    +0.030 C 
ATOM     31  C   UNL     1       4.419   2.022  -4.590  0.00  0.00    +0.031 C 
ATOM     32  C   UNL     1       4.687   2.975  -2.296  0.00  0.00    +0.031 C 
BRANCH  30  33
ATOM     33  C   UNL     1       6.684   2.136  -3.541  0.00  0.00    +0.031 C 
BRANCH  33  34
ATOM     34  C   UNL     1       7.503   1.503  -2.414  0.00  0.00    -0.036 C 
ATOM     35  C   UNL     1       7.815   0.047  -2.767  0.00  0.00    +0.010 C 
ATOM     36  C   UNL     1       8.810   2.277  -2.237  0.00  0.00    +0.010 C 
ATOM     37  C   UNL     1       6.701   1.552  -1.112  0.00  0.00    +0.010 C 
ENDBRANCH  33  34
ENDBRANCH  30  33
ENDBRANCH  28  30
ENDBRANCH  20  26
ENDBRANCH   1  20
TORSDOF 10
