REMARK  Name = ZINC16177332
REMARK  10 active torsions:
REMARK  status: ('A' for Active; 'I' for Inactive)
REMARK    1  A    between atoms: C_1  and  N_2
REMARK    2  A    between atoms: N_2  and  C_3
REMARK    3  A    between atoms: N_2  and  S_25
REMARK    4  A    between atoms: C_6  and  O_9
REMARK    5  A    between atoms: O_9  and  C_10
REMARK    6  A    between atoms: C_10  and  C_11
REMARK    7  A    between atoms: N_13  and  N_14
REMARK    8  A    between atoms: C_15  and  C_17
REMARK    9  A    between atoms: C_17  and  C_18
REMARK   10  A    between atoms: S_25  and  C_28
REMARK                            x       y       z     vdW  Elec       q    Type
REMARK                         _______ _______ _______ _____ _____    ______ ____
ROOT
ATOM      1  O   UNL     1      -0.119   6.895  -3.518  0.00  0.00    -0.483 OA
ENDROOT
BRANCH   1   5
ATOM      2  C   UNL     1      -0.700   3.153  -1.871  0.00  0.00    +0.051 A 
ATOM      3  C   UNL     1      -0.208   4.189  -1.087  0.00  0.00    +0.028 A 
ATOM      4  C   UNL     1      -0.009   5.438  -1.640  0.00  0.00    +0.047 A 
ATOM      5  C   UNL     1      -0.310   5.662  -2.975  0.00  0.00    +0.121 A 
ATOM      6  C   UNL     1      -0.807   4.630  -3.757  0.00  0.00    +0.047 A 
ATOM      7  C   UNL     1      -1.002   3.378  -3.207  0.00  0.00    +0.028 A 
BRANCH   2   9
ATOM      8  C   UNL     1      -1.883   0.973  -1.897  0.00  0.00    +0.157 C 
ATOM      9  N   UNL     1      -0.897   1.885  -1.312  0.00  0.00    -0.206 N 
BRANCH   9  10
ATOM     10  S   UNL     1      -0.017   1.417   0.010  0.00  0.00    +0.081 S 
ATOM     11  O   UNL     1       0.002  -0.004   0.002  0.00  0.00    -0.149 OA
ATOM     12  O   UNL     1       1.172   2.195   0.003  0.00  0.00    -0.149 OA
BRANCH  10  13
ATOM     13  C   UNL     1      -0.927   1.900   1.439  0.00  0.00    +0.146 A 
ATOM     14  C   UNL     1      -1.862   1.205   2.132  0.00  0.00    +0.036 A 
ATOM     15  C   UNL     1      -2.451   1.790   3.236  0.00  0.00    +0.010 A 
ATOM     16  C   UNL     1      -2.076   3.043   3.595  0.00  0.00    +0.047 A 
ATOM     17  S   UNL     1      -0.850   3.430   2.357  0.00  0.00    -0.077 S 
ENDBRANCH  10  13
ENDBRANCH   9  10
ENDBRANCH   2   9
ENDBRANCH   1   5
BRANCH   1  18
ATOM     18  C   UNL     1       0.395   7.911  -2.654  0.00  0.00    +0.326 C 
BRANCH  18  19
ATOM     19  C   UNL     1       0.540   9.198  -3.424  0.00  0.00    +0.267 C 
ATOM     20  O   UNL     1       0.233   9.241  -4.597  0.00  0.00    -0.271 OA
ATOM     21  N   UNL     1       1.010  10.302  -2.810  0.00  0.00    -0.232 N 
ATOM     22  H   UNL     1       1.255  10.267  -1.872  0.00  0.00    +0.173 HD
BRANCH  21  23
ATOM     23  N   UNL     1       1.144  11.499  -3.525  0.00  0.00    -0.234 N 
ATOM     24  C   UNL     1       1.615  12.602  -2.911  0.00  0.00    +0.233 C 
ATOM     25  O   UNL     1       1.922  12.559  -1.738  0.00  0.00    -0.274 OA
ATOM     26  H   UNL     1       0.899  11.533  -4.463  0.00  0.00    +0.173 HD
BRANCH  24  27
ATOM     27  C   UNL     1       1.759  13.889  -3.681  0.00  0.00    +0.132 C 
BRANCH  27  28
ATOM     28  C   UNL     1       2.301  14.961  -2.771  0.00  0.00    -0.038 A 
ATOM     29  C   UNL     1       1.433  15.763  -2.054  0.00  0.00    +0.005 A 
ATOM     30  C   UNL     1       1.930  16.742  -1.214  0.00  0.00    +0.020 A 
ATOM     31  C   UNL     1       3.296  16.927  -1.100  0.00  0.00    +0.041 A 
ATOM     32  C   UNL     1       4.164  16.128  -1.822  0.00  0.00    +0.020 A 
ATOM     33  C   UNL     1       3.667  15.145  -2.657  0.00  0.00    +0.005 A 
ATOM     34 CL   UNL     1       3.920  18.161  -0.051  0.00  0.00    -0.084 Cl
ENDBRANCH  27  28
ENDBRANCH  24  27
ENDBRANCH  21  23
ENDBRANCH  18  19
ENDBRANCH   1  18
TORSDOF 9
