REMARK  Name = ZINC25616167
REMARK  11 active torsions:
REMARK  status: ('A' for Active; 'I' for Inactive)
REMARK    1  A    between atoms: C_1  and  C_2
REMARK    2  A    between atoms: C_4  and  C_8
REMARK    3  A    between atoms: C_5  and  C_7
REMARK    4  A    between atoms: C_10  and  C_20
REMARK    5  A    between atoms: N_14  and  C_17
REMARK    6  A    between atoms: C_17  and  C_18
REMARK    7  A    between atoms: C_17  and  C_19
REMARK    8  A    between atoms: N_22  and  C_23
REMARK    9  A    between atoms: N_22  and  C_24
REMARK   10  A    between atoms: C_24  and  C_26
REMARK   11  A    between atoms: C_24  and  C_27
REMARK                            x       y       z     vdW  Elec       q    Type
REMARK                         _______ _______ _______ _____ _____    ______ ____
ROOT
ATOM      1  C   UNL     1       2.917   3.974   0.168  0.00  0.00    +0.077 A 
ATOM      2  C   UNL     1       3.464   2.699  -0.013  0.00  0.00    +0.042 A 
ATOM      3  C   UNL     1       2.730   1.584   0.371  0.00  0.00    +0.051 A 
ATOM      4  C   UNL     1       1.449   1.794   0.932  0.00  0.00    +0.051 A 
ATOM      5  C   UNL     1       0.446   0.932   1.423  0.00  0.00    +0.145 A 
ATOM      6  N   UNL     1      -0.559   1.654   1.831  0.00  0.00    -0.177 NA
ATOM      7  N   UNL     1      -0.275   3.011   1.641  0.00  0.00    -0.244 N 
ATOM      8  C   UNL     1       0.972   3.112   1.080  0.00  0.00    +0.160 A 
ATOM      9  N   UNL     1       1.716   4.140   0.696  0.00  0.00    -0.227 NA
ENDROOT
BRANCH   1  13
ATOM     10  C   UNL     1       6.622   6.992  -1.640  0.00  0.00    +0.086 C 
ATOM     11  C   UNL     1       5.340   6.474  -1.041  0.00  0.00    +0.103 A 
ATOM     12  C   UNL     1       5.039   5.181  -0.842  0.00  0.00    +0.054 A 
ATOM     13  C   UNL     1       3.700   5.164  -0.242  0.00  0.00    +0.041 A 
ATOM     14  C   UNL     1       3.323   6.467  -0.145  0.00  0.00    +0.111 A 
ATOM     15  O   UNL     1       4.315   7.231  -0.621  0.00  0.00    -0.464 OA
ATOM     16  C   UNL     1       2.013   6.967   0.407  0.00  0.00    +0.087 C 
ENDBRANCH   1  13
BRANCH   3  17
ATOM     17  C   UNL     1       3.272   0.219   0.197  0.00  0.00    +0.248 C 
ATOM     18  O   UNL     1       3.260  -0.563   1.128  0.00  0.00    -0.270 OA
ATOM     19  N   UNL     1       3.778  -0.159  -0.993  0.00  0.00    -0.294 N 
ATOM     20  C   UNL     1       3.891   0.813  -2.083  0.00  0.00    +0.133 C 
BRANCH  19  21
ATOM     21  C   UNL     1       4.215  -1.542  -1.197  0.00  0.00    +0.103 C 
ATOM     22  C   UNL     1       3.519  -2.121  -2.431  0.00  0.00    +0.033 C 
BRANCH  21  23
ATOM     23  C   UNL     1       5.708  -1.572  -1.403  0.00  0.00    -0.027 A 
ATOM     24  C   UNL     1       6.275  -0.874  -2.452  0.00  0.00    +0.005 A 
ATOM     25  C   UNL     1       7.645  -0.898  -2.638  0.00  0.00    +0.000 A 
ATOM     26  C   UNL     1       8.446  -1.627  -1.780  0.00  0.00    +0.000 A 
ATOM     27  C   UNL     1       7.879  -2.329  -0.733  0.00  0.00    +0.000 A 
ATOM     28  C   UNL     1       6.510  -2.302  -0.545  0.00  0.00    +0.005 A 
ENDBRANCH  21  23
ENDBRANCH  19  21
ENDBRANCH   3  17
BRANCH   7  29
ATOM     29  C   UNL     1      -1.158   4.130   1.979  0.00  0.00    +0.103 C 
ATOM     30  C   UNL     1      -2.469   3.998   1.202  0.00  0.00    +0.032 C 
ATOM     31  C   UNL     1      -1.452   4.112   3.481  0.00  0.00    +0.032 C 
ENDBRANCH   7  29
TORSDOF 5
