REMARK  Name = ZINC08606545
REMARK  10 active torsions:
REMARK  status: ('A' for Active; 'I' for Inactive)
REMARK    1  A    between atoms: C_1  and  C_2
REMARK    2  A    between atoms: C_2  and  O_3
REMARK    3  A    between atoms: O_3  and  C_4
REMARK    4  A    between atoms: C_6  and  C_11
REMARK    5  A    between atoms: C_9  and  O_10
REMARK    6  A    between atoms: C_14  and  C_30
REMARK    7  A    between atoms: N_21  and  C_22
REMARK    8  A    between atoms: C_22  and  C_23
REMARK    9  A    between atoms: C_23  and  C_24
REMARK   10  A    between atoms: C_35  and  O_36
REMARK                            x       y       z     vdW  Elec       q    Type
REMARK                         _______ _______ _______ _____ _____    ______ ____
ROOT
ATOM      1  C   UNL     1       0.608  -4.952  -0.025  0.00  0.00    +0.141 C 
ATOM      2  C   UNL     1       0.791  -5.594  -1.373  0.00  0.00    +0.035 A 
ATOM      3  C   UNL     1       1.008  -5.418  -2.744  0.00  0.00    +0.102 A 
ATOM      4  N   UNL     1       1.046  -6.615  -3.294  0.00  0.00    -0.173 NA
ATOM      5  N   UNL     1       0.874  -7.530  -2.407  0.00  0.00    -0.272 N 
ATOM      6  H   UNL     1       0.865  -8.483  -2.585  0.00  0.00    +0.189 HD
ATOM      7  C   UNL     1       0.708  -6.959  -1.177  0.00  0.00    +0.126 A 
ATOM      8  C   UNL     1       0.478  -7.213   0.249  0.00  0.00    +0.265 C 
ATOM      9  O   UNL     1       0.359  -8.316   0.748  0.00  0.00    -0.268 OA
ATOM     10  N   UNL     1       0.420  -6.053   0.929  0.00  0.00    -0.285 N 
ENDROOT
BRANCH   1  13
ATOM     11  C   UNL     1      -2.985  -3.795  -0.174  0.00  0.00    +0.162 A 
ATOM     12  C   UNL     1      -1.867  -4.614  -0.165  0.00  0.00    +0.055 A 
ATOM     13  C   UNL     1      -0.607  -4.060  -0.035  0.00  0.00    -0.019 A 
ATOM     14  C   UNL     1      -0.458  -2.691   0.086  0.00  0.00    +0.009 A 
ATOM     15  C   UNL     1      -1.570  -1.869   0.078  0.00  0.00    +0.049 A 
ATOM     16  C   UNL     1      -2.835  -2.417  -0.058  0.00  0.00    +0.158 A 
BRANCH  16  17
ATOM     17  O   UNL     1      -3.929  -1.609  -0.073  0.00  0.00    -0.503 OA
ATOM     18  H   UNL     1      -4.307  -1.442   0.802  0.00  0.00    +0.292 HD
ENDBRANCH  16  17
BRANCH  11  19
ATOM     19  O   UNL     1      -4.226  -4.338  -0.303  0.00  0.00    -0.489 OA
BRANCH  19  21
ATOM     20  C   UNL     1      -5.767  -6.182  -0.551  0.00  0.00    +0.048 C 
ATOM     21  C   UNL     1      -4.303  -5.760  -0.417  0.00  0.00    +0.226 C 
ENDBRANCH  19  21
ENDBRANCH  11  19
ENDBRANCH   1  13
BRANCH   3  22
ATOM     22  C   UNL     1       1.166  -4.121  -3.448  0.00  0.00    +0.044 A 
ATOM     23  C   UNL     1       1.234  -2.934  -2.723  0.00  0.00    +0.014 A 
ATOM     24  C   UNL     1       1.381  -1.731  -3.383  0.00  0.00    +0.001 A 
ATOM     25  C   UNL     1       1.462  -1.699  -4.764  0.00  0.00    +0.004 A 
ATOM     26  C   UNL     1       1.395  -2.871  -5.493  0.00  0.00    +0.046 A 
ATOM     27  C   UNL     1       1.254  -4.087  -4.843  0.00  0.00    +0.126 A 
BRANCH  27  28
ATOM     28  O   UNL     1       1.195  -5.240  -5.558  0.00  0.00    -0.506 OA
ATOM     29  H   UNL     1       0.300  -5.496  -5.819  0.00  0.00    +0.292 HD
ENDBRANCH  27  28
ENDBRANCH   3  22
BRANCH  10  30
ATOM     30  C   UNL     1       0.205  -5.911   2.371  0.00  0.00    +0.114 C 
BRANCH  30  31
ATOM     31  C   UNL     1      -1.295  -5.806   2.655  0.00  0.00    +0.054 C 
BRANCH  31  32
ATOM     32  C   UNL     1      -1.516  -5.660   4.139  0.00  0.00    -0.046 A 
ATOM     33  C   UNL     1      -1.675  -6.784   4.928  0.00  0.00    +0.004 A 
ATOM     34  C   UNL     1      -1.878  -6.650   6.289  0.00  0.00    +0.000 A 
ATOM     35  C   UNL     1      -1.922  -5.392   6.861  0.00  0.00    +0.000 A 
ATOM     36  C   UNL     1      -1.762  -4.269   6.072  0.00  0.00    +0.000 A 
ATOM     37  C   UNL     1      -1.555  -4.402   4.712  0.00  0.00    +0.004 A 
ENDBRANCH  31  32
ENDBRANCH  30  31
ENDBRANCH  10  30
TORSDOF 9
