REMARK  Name = ZINC20696405
REMARK  8 active torsions:
REMARK  status: ('A' for Active; 'I' for Inactive)
REMARK    1  A    between atoms: C_1  and  C_2
REMARK    2  A    between atoms: C_2  and  C_3
REMARK    3  A    between atoms: C_3  and  C_5
REMARK    4  A    between atoms: C_3  and  N_6
REMARK    5  A    between atoms: N_6  and  S_7
REMARK    6  A    between atoms: S_7  and  C_10
REMARK    7  A    between atoms: C_23  and  C_26
REMARK    8  A    between atoms: C_31  and  O_32
REMARK                            x       y       z     vdW  Elec       q    Type
REMARK                         _______ _______ _______ _____ _____    ______ ____
ROOT
ATOM      1  C   UNL     1       5.412   2.545  -1.326  0.00  0.00    +0.106 A 
ATOM      2  C   UNL     1       5.519   2.067  -2.619  0.00  0.00    +0.030 A 
ATOM      3  C   UNL     1       4.585   1.169  -3.096  0.00  0.00    +0.025 A 
ATOM      4  C   UNL     1       3.544   0.748  -2.278  0.00  0.00    +0.031 A 
ATOM      5  C   UNL     1       3.435   1.222  -0.980  0.00  0.00    -0.018 A 
ATOM      6  C   UNL     1       4.379   2.126  -0.512  0.00  0.00    +0.034 A 
ATOM      7  C   UNL     1       2.342   0.782  -0.045  0.00  0.00    +0.049 C 
ATOM      8  C   UNL     1       1.308   1.870   0.124  0.00  0.00    -0.023 C 
ATOM      9  C   UNL     1       0.109   1.347   0.210  0.00  0.00    -0.030 C 
ATOM     10  C   UNL     1       0.182  -0.165   0.117  0.00  0.00    +0.033 C 
ATOM     11  C   UNL     1       1.544  -0.417  -0.594  0.00  0.00    +0.029 C 
ATOM     12  C   UNL     1       1.308  -0.264  -2.099  0.00  0.00    +0.108 C 
ATOM     13  N   UNL     1       2.605  -0.161  -2.776  0.00  0.00    -0.336 N 
ATOM     14  H   UNL     1       2.819  -0.790  -3.653  0.00  0.00    +0.147 HD
ENDROOT
BRANCH  12  15
ATOM     15  C   UNL     1       0.559  -1.465  -2.617  0.00  0.00    +0.015 A 
ATOM     16  C   UNL     1      -0.777  -1.355  -2.952  0.00  0.00    +0.024 A 
ATOM     17  C   UNL     1      -1.464  -2.457  -3.427  0.00  0.00    +0.018 A 
ATOM     18  C   UNL     1      -0.816  -3.671  -3.569  0.00  0.00    +0.019 A 
ATOM     19  C   UNL     1       0.520  -3.785  -3.236  0.00  0.00    +0.047 A 
ATOM     20  C   UNL     1       1.212  -2.679  -2.764  0.00  0.00    +0.122 A 
ATOM     21 BR   UNL     1      -3.293  -2.304  -3.885  0.00  0.00    -0.050 Br
BRANCH  20  22
ATOM     22  O   UNL     1       2.528  -2.788  -2.442  0.00  0.00    -0.506 OA
ATOM     23  H   UNL     1       3.046  -3.752  -2.558  0.00  0.00    +0.292 HD
ENDBRANCH  20  22
ENDBRANCH  12  15
BRANCH   1  24
ATOM     24  S   UNL     1       6.600   3.693  -0.714  0.00  0.00    +0.059 S 
ATOM     25  O   UNL     1       7.156   4.345  -1.848  0.00  0.00    -0.153 OA
ATOM     26  O   UNL     1       5.970   4.406   0.341  0.00  0.00    -0.153 OA
BRANCH  24  27
ATOM     27  N   UNL     1       7.823   2.813  -0.028  0.00  0.00    -0.187 NA
ATOM     28  H   UNL     1       7.898   2.762   1.069  0.00  0.00    +0.148 HD
BRANCH  27  29
ATOM     29  C   UNL     1       8.656   1.942  -0.861  0.00  0.00    +0.073 C 
ATOM     30  C   UNL     1       8.101   0.517  -0.821  0.00  0.00    +0.025 C 
BRANCH  29  32
ATOM     31  C   UNL     1      10.688   3.346  -0.483  0.00  0.00    +0.005 C 
ATOM     32  C   UNL     1      10.090   1.946  -0.328  0.00  0.00    +0.017 C 
ENDBRANCH  29  32
ENDBRANCH  27  29
ENDBRANCH  24  27
ENDBRANCH   1  24
TORSDOF 6
