REMARK  Name = ZINC10220148
REMARK  9 active torsions:
REMARK  status: ('A' for Active; 'I' for Inactive)
REMARK    1  A    between atoms: C_1  and  C_2
REMARK    2  A    between atoms: C_2  and  C_3
REMARK    3  A    between atoms: C_2  and  C_4
REMARK    4  A    between atoms: C_4  and  C_6
REMARK    5  A    between atoms: C_4  and  N_21
REMARK    6  A    between atoms: C_13  and  C_14
REMARK    7  A    between atoms: C_13  and  N_70
REMARK    8  A    between atoms: C_22  and  C_24
REMARK    9  A    between atoms: C_24  and  C_25
REMARK                            x       y       z     vdW  Elec       q    Type
REMARK                         _______ _______ _______ _____ _____    ______ ____
ROOT
ATOM      1  C   UNL     1      -2.006   1.769   4.645  0.00  0.00    +0.162 C 
ENDROOT
BRANCH   1   2
ATOM      2  C   UNL     1      -1.241   1.347   3.417  0.00  0.00    +0.236 C 
ATOM      3  O   UNL     1      -1.343   0.213   2.999  0.00  0.00    -0.274 OA
ATOM      4  N   UNL     1      -0.443   2.230   2.784  0.00  0.00    -0.303 N 
ATOM      5  C   UNL     1       0.236   1.869   1.530  0.00  0.00    +0.089 C 
ATOM      6  C   UNL     1      -0.047   2.956   0.488  0.00  0.00    -0.059 C 
ATOM      7  C   UNL     1      -0.497   4.602   2.211  0.00  0.00    -0.059 C 
ATOM      8  C   UNL     1      -0.233   3.582   3.324  0.00  0.00    +0.089 C 
ATOM      9  N   UNL     1       0.352   4.266   1.047  0.00  0.00    +0.387 N 
ATOM     10  H   UNL     1       1.330   4.212   1.353  0.00  0.00    -0.081 HD
BRANCH   9  11
ATOM     11  C   UNL     1       0.229   5.314   0.014  0.00  0.00    +0.019 C 
BRANCH  11  12
ATOM     12  C   UNL     1      -1.195   5.419  -0.469  0.00  0.00    +0.199 C 
ATOM     13  O   UNL     1      -2.026   4.625  -0.083  0.00  0.00    -0.278 OA
ATOM     14  N   UNL     1      -1.545   6.396  -1.328  0.00  0.00    -0.303 N 
ATOM     15  C   UNL     1      -0.645   7.426  -1.869  0.00  0.00    +0.108 C 
ATOM     16  C   UNL     1      -1.487   8.336  -2.786  0.00  0.00    +0.020 C 
ATOM     17  C   UNL     1      -2.931   8.115  -2.261  0.00  0.00    +0.020 C 
ATOM     18  C   UNL     1      -2.896   6.614  -1.878  0.00  0.00    +0.108 C 
ENDBRANCH  11  12
ENDBRANCH   9  11
ENDBRANCH   1   2
BRANCH   1  19
ATOM     19  N   UNL     1      -2.130   0.630   5.558  0.00  0.00    -0.303 N 
ATOM     20  C   UNL     1      -2.303   0.840   6.878  0.00  0.00    +0.218 C 
ATOM     21  O   UNL     1      -2.354   1.972   7.310  0.00  0.00    -0.275 OA
ATOM     22  H   UNL     1      -2.089  -0.275   5.213  0.00  0.00    +0.149 HD
BRANCH  20  23
ATOM     23  C   UNL     1      -2.431  -0.331   7.817  0.00  0.00    +0.131 C 
BRANCH  23  24
ATOM     24  C   UNL     1      -2.613   0.172   9.226  0.00  0.00    -0.031 A 
ATOM     25  C   UNL     1      -1.539   0.298  10.052  0.00  0.00    +0.005 A 
ATOM     26  C   UNL     1      -1.688   0.762  11.357  0.00  0.00    +0.001 A 
ATOM     27  C   UNL     1      -2.912   1.102  11.845  0.00  0.00    +0.008 A 
ATOM     28  C   UNL     1      -4.045   0.985  11.022  0.00  0.00    -0.018 A 
ATOM     29  C   UNL     1      -3.893   0.518   9.692  0.00  0.00    -0.014 A 
ATOM     30  C   UNL     1      -5.026   0.398   8.870  0.00  0.00    +0.009 A 
ATOM     31  C   UNL     1      -6.251   0.737   9.358  0.00  0.00    +0.001 A 
ATOM     32  C   UNL     1      -6.400   1.200  10.664  0.00  0.00    +0.001 A 
ATOM     33  C   UNL     1      -5.326   1.326  11.490  0.00  0.00    +0.008 A 
ENDBRANCH  23  24
ENDBRANCH  20  23
ENDBRANCH   1  19
BRANCH   1  35
ATOM     34  C   UNL     1      -4.124   2.810   5.464  0.00  0.00    +0.009 C 
ATOM     35  C   UNL     1      -3.399   2.251   4.238  0.00  0.00    +0.012 C 
ATOM     36  C   UNL     1      -3.270   3.348   3.178  0.00  0.00    +0.009 C 
ENDBRANCH   1  35
TORSDOF 7
