REMARK  Name = ZINC21256951
REMARK  9 active torsions:
REMARK  status: ('A' for Active; 'I' for Inactive)
REMARK    1  A    between atoms: C_1  and  C_2
REMARK    2  A    between atoms: C_2  and  O_3
REMARK    3  A    between atoms: O_3  and  C_4
REMARK    4  A    between atoms: C_6  and  C_12
REMARK    5  A    between atoms: C_9  and  O_10
REMARK    6  A    between atoms: C_17  and  C_22
REMARK    7  A    between atoms: C_25  and  N_28
REMARK    8  A    between atoms: N_28  and  C_29
REMARK    9  A    between atoms: N_28  and  C_30
REMARK                            x       y       z     vdW  Elec       q    Type
REMARK                         _______ _______ _______ _____ _____    ______ ____
ROOT
ATOM      1  C   UNL     1       0.002  -0.004   0.002  0.00  0.00    +0.136 C 
ATOM      2  C   UNL     1       0.015   1.506   0.022  0.00  0.00    +0.036 C 
ATOM      3  C   UNL     1       1.108   2.286   0.013  0.00  0.00    +0.017 C 
ATOM      4  C   UNL     1       0.974   3.799   0.075  0.00  0.00    +0.059 C 
ATOM      5  C   UNL     1      -0.297   4.238  -0.649  0.00  0.00    +0.032 C 
ATOM      6  C   UNL     1      -1.487   3.571   0.052  0.00  0.00    +0.088 C 
ATOM      7  C   UNL     1      -1.275   2.087   0.045  0.00  0.00    +0.163 C 
ATOM      8  O   UNL     1      -2.246   1.357   0.064  0.00  0.00    -0.292 OA
ATOM      9  N   UNL     1       2.386   1.831  -0.035  0.00  0.00    -0.316 N 
ATOM     10  C   UNL     1       2.893   0.807   0.757  0.00  0.00    +0.052 A 
ATOM     11  C   UNL     1       3.926   1.011   1.655  0.00  0.00    +0.025 A 
ATOM     12  C   UNL     1       4.458  -0.072   2.335  0.00  0.00    +0.002 A 
ATOM     13  C   UNL     1       3.960  -1.344   2.119  0.00  0.00    +0.002 A 
ATOM     14  C   UNL     1       2.913  -1.546   1.237  0.00  0.00    +0.025 A 
ATOM     15  C   UNL     1       2.367  -0.462   0.568  0.00  0.00    +0.049 A 
ATOM     16  N   UNL     1       1.283  -0.609  -0.295  0.00  0.00    -0.331 N 
ATOM     17  H   UNL     1       3.104   2.280  -0.738  0.00  0.00    +0.152 HD
ATOM     18  H   UNL     1       1.413  -1.198  -1.216  0.00  0.00    +0.147 HD
ENDROOT
BRANCH   1  21
ATOM     19  C   UNL     1      -2.060  -1.665   2.698  0.00  0.00    +0.163 A 
ATOM     20  C   UNL     1      -1.638  -1.206   1.460  0.00  0.00    +0.055 A 
ATOM     21  C   UNL     1      -0.458  -0.496   1.350  0.00  0.00    -0.018 A 
ATOM     22  C   UNL     1       0.300  -0.230   2.476  0.00  0.00    +0.029 A 
ATOM     23  C   UNL     1      -0.118  -0.680   3.716  0.00  0.00    +0.086 A 
ATOM     24  C   UNL     1      -1.298  -1.398   3.831  0.00  0.00    +0.177 A 
ATOM     25 CL   UNL     1       0.836  -0.345   5.127  0.00  0.00    -0.080 Cl
BRANCH  24  26
ATOM     26  O   UNL     1      -1.710  -1.842   5.049  0.00  0.00    -0.502 OA
ATOM     27  H   UNL     1      -1.107  -1.631   5.944  0.00  0.00    +0.292 HD
ENDBRANCH  24  26
BRANCH  19  28
ATOM     28  O   UNL     1      -3.219  -2.368   2.805  0.00  0.00    -0.489 OA
BRANCH  28  30
ATOM     29  C   UNL     1      -5.213  -3.405   1.918  0.00  0.00    +0.048 C 
ATOM     30  C   UNL     1      -3.949  -2.604   1.600  0.00  0.00    +0.226 C 
ENDBRANCH  28  30
ENDBRANCH  19  28
ENDBRANCH   1  21
BRANCH   5  31
ATOM     31  C   UNL     1      -0.434   5.737  -0.576  0.00  0.00    -0.043 A 
ATOM     32  C   UNL     1      -0.527   6.362   0.654  0.00  0.00    +0.006 A 
ATOM     33  C   UNL     1      -0.647   7.736   0.724  0.00  0.00    +0.023 A 
ATOM     34  C   UNL     1      -0.686   8.489  -0.443  0.00  0.00    +0.029 A 
ATOM     35  C   UNL     1      -0.598   7.857  -1.677  0.00  0.00    +0.023 A 
ATOM     36  C   UNL     1      -0.472   6.483  -1.740  0.00  0.00    +0.006 A 
BRANCH  34  37
ATOM     37  N   UNL     1      -0.812   9.879  -0.376  0.00  0.00    -0.336 N 
ATOM     38  C   UNL     1      -0.853  10.671  -1.607  0.00  0.00    +0.129 C 
ATOM     39  C   UNL     1      -0.905  10.543   0.926  0.00  0.00    +0.129 C 
ENDBRANCH  34  37
ENDBRANCH   5  31
TORSDOF 6
