REMARK  Name = ZINC09559401
REMARK  9 active torsions:
REMARK  status: ('A' for Active; 'I' for Inactive)
REMARK    1  A    between atoms: C_1  and  C_2
REMARK    2  A    between atoms: C_2  and  N_52
REMARK    3  A    between atoms: C_6  and  C_8
REMARK    4  A    between atoms: C_8  and  N_9
REMARK    5  A    between atoms: C_10  and  C_12
REMARK    6  A    between atoms: C_12  and  C_14
REMARK    7  A    between atoms: C_12  and  N_20
REMARK    8  A    between atoms: N_20  and  S_21
REMARK    9  A    between atoms: S_21  and  C_24
REMARK                            x       y       z     vdW  Elec       q    Type
REMARK                         _______ _______ _______ _____ _____    ______ ____
ROOT
ATOM      1  C   UNL     1      -3.530   3.420   4.733  0.00  0.00    +0.192 C 
ENDROOT
BRANCH   1   2
ATOM      2  C   UNL     1      -2.771   4.706   4.936  0.00  0.00    -0.020 A 
ATOM      3  C   UNL     1      -3.425   5.919   4.832  0.00  0.00    +0.006 A 
ATOM      4  C   UNL     1      -2.729   7.098   5.022  0.00  0.00    +0.000 A 
ATOM      5  C   UNL     1      -1.377   7.065   5.308  0.00  0.00    +0.000 A 
ATOM      6  C   UNL     1      -0.722   5.852   5.407  0.00  0.00    +0.000 A 
ATOM      7  C   UNL     1      -1.418   4.672   5.221  0.00  0.00    +0.006 A 
ENDBRANCH   1   2
BRANCH   1   9
ATOM      8  N   UNL     1      -2.618   3.032   2.466  0.00  0.00    -0.315 N 
ATOM      9  C   UNL     1      -3.701   3.165   3.257  0.00  0.00    +0.236 C 
ATOM     10  O   UNL     1      -4.813   3.080   2.781  0.00  0.00    -0.274 OA
ATOM     11  H   UNL     1      -1.728   3.100   2.847  0.00  0.00    +0.149 HD
BRANCH   8  12
ATOM     12  C   UNL     1      -2.784   2.784   1.032  0.00  0.00    +0.089 C 
BRANCH  12  16
ATOM     13  C   UNL     1       0.135   0.824  -0.145  0.00  0.00    -0.078 C 
ATOM     14  C   UNL     1      -0.295   1.474  -1.473  0.00  0.00    -0.020 C 
ATOM     15  C   UNL     1      -1.555   2.300  -1.129  0.00  0.00    -0.016 C 
ATOM     16  C   UNL     1      -1.416   2.524   0.398  0.00  0.00    -0.051 C 
ATOM     17  N   UNL     1      -0.851   1.247   0.855  0.00  0.00    +0.382 N 
ATOM     18  H   UNL     1      -1.596   0.544   0.927  0.00  0.00    -0.081 HD
BRANCH  17  20
ATOM     19  C   UNL     1       0.742   2.614   2.144  0.00  0.00    -0.017 C 
ATOM     20  C   UNL     1      -0.196   1.406   2.190  0.00  0.00    -0.082 C 
ENDBRANCH  17  20
ENDBRANCH  12  16
ENDBRANCH   8  12
ENDBRANCH   1   9
BRANCH   1  21
ATOM     21  N   UNL     1      -4.847   3.526   5.366  0.00  0.00    -0.173 NA
ATOM     22  H   UNL     1      -5.586   3.930   4.884  0.00  0.00    +0.149 HD
BRANCH  21  23
ATOM     23  S   UNL     1      -5.074   2.955   6.904  0.00  0.00    +0.066 S 
ATOM     24  O   UNL     1      -6.429   3.224   7.240  0.00  0.00    -0.153 OA
ATOM     25  O   UNL     1      -4.527   1.645   6.936  0.00  0.00    -0.153 OA
BRANCH  23  26
ATOM     26  C   UNL     1      -4.084   3.942   7.977  0.00  0.00    +0.143 A 
ATOM     27  C   UNL     1      -4.407   5.090   8.621  0.00  0.00    +0.037 A 
ATOM     28  C   UNL     1      -3.460   5.696   9.425  0.00  0.00    +0.025 A 
ATOM     29  C   UNL     1      -2.232   5.130   9.537  0.00  0.00    +0.057 A 
ATOM     30  S   UNL     1      -2.393   3.692   8.491  0.00  0.00    -0.062 S 
ATOM     31 BR   UNL     1      -0.739   5.713  10.539  0.00  0.00    -0.043 Br
ENDBRANCH  23  26
ENDBRANCH  21  23
ENDBRANCH   1  21
TORSDOF 8
