REMARK  Name = ZINC16567842
REMARK  9 active torsions:
REMARK  status: ('A' for Active; 'I' for Inactive)
REMARK    1  A    between atoms: C_1  and  C_2
REMARK    2  A    between atoms: C_2  and  C_4
REMARK    3  A    between atoms: C_2  and  N_27
REMARK    4  A    between atoms: C_7  and  S_18
REMARK    5  A    between atoms: N_8  and  C_9
REMARK    6  A    between atoms: C_12  and  N_15
REMARK    7  A    between atoms: S_18  and  C_19
REMARK    8  A    between atoms: C_19  and  C_20
REMARK    9  A    between atoms: N_30  and  C_31
REMARK                            x       y       z     vdW  Elec       q    Type
REMARK                         _______ _______ _______ _____ _____    ______ ____
ROOT
ATOM      1  C   UNL     1       1.298  -6.668  -1.734  0.00  0.00    +0.159 A 
ATOM      2  N   UNL     1       1.308  -6.375  -0.464  0.00  0.00    -0.131 NA
ATOM      3  N   UNL     1       1.302  -5.099  -0.304  0.00  0.00    -0.122 NA
ATOM      4  C   UNL     1       1.288  -4.502  -1.473  0.00  0.00    +0.196 A 
ATOM      5  N   UNL     1       1.279  -5.485  -2.424  0.00  0.00    -0.273 N 
ENDROOT
BRANCH   5   6
ATOM      6  C   UNL     1       1.258  -5.317  -3.817  0.00  0.00    +0.050 A 
ATOM      7  C   UNL     1       0.162  -5.748  -4.553  0.00  0.00    +0.028 A 
ATOM      8  C   UNL     1       0.142  -5.576  -5.923  0.00  0.00    +0.035 A 
ATOM      9  C   UNL     1       1.216  -4.986  -6.563  0.00  0.00    +0.126 A 
ATOM     10  C   UNL     1       2.311  -4.561  -5.833  0.00  0.00    +0.035 A 
ATOM     11  C   UNL     1       2.335  -4.725  -4.462  0.00  0.00    +0.028 A 
BRANCH   9  12
ATOM     12  N   UNL     1       1.194  -4.809  -8.033  0.00  0.00    +0.056 N 
ATOM     13  O   UNL     1       2.140  -4.290  -8.598  0.00  0.00    -0.126 OA
ATOM     14  O   UNL     1       0.230  -5.183  -8.677  0.00  0.00    -0.126 OA
ENDBRANCH   9  12
ENDBRANCH   5   6
BRANCH   1  16
ATOM     15  C   UNL     1      -0.090  -8.675  -2.177  0.00  0.00    +0.036 C 
ATOM     16  C   UNL     1       1.299  -8.051  -2.331  0.00  0.00    +0.140 C 
BRANCH  16  17
ATOM     17  N   UNL     1       2.287  -8.882  -1.637  0.00  0.00    -0.290 N 
ATOM     18  C   UNL     1       2.835  -9.942  -2.263  0.00  0.00    +0.304 C 
ATOM     19  O   UNL     1       2.510 -10.209  -3.404  0.00  0.00    -0.252 OA
ATOM     20  N   UNL     1       3.744 -10.706  -1.625  0.00  0.00    -0.267 N 
ATOM     21  H   UNL     1       2.546  -8.669  -0.727  0.00  0.00    +0.151 HD
ATOM     22  H   UNL     1       4.051 -10.456  -0.740  0.00  0.00    +0.156 HD
BRANCH  20  23
ATOM     23  C   UNL     1       4.244 -11.861  -2.240  0.00  0.00    +0.070 A 
ATOM     24  C   UNL     1       4.431 -11.891  -3.616  0.00  0.00    +0.026 A 
ATOM     25  C   UNL     1       4.930 -13.029  -4.219  0.00  0.00    +0.002 A 
ATOM     26  C   UNL     1       5.232 -14.142  -3.457  0.00  0.00    +0.003 A 
ATOM     27  C   UNL     1       5.043 -14.119  -2.088  0.00  0.00    +0.040 A 
ATOM     28  C   UNL     1       4.549 -12.981  -1.476  0.00  0.00    +0.145 A 
ATOM     29  F   UNL     1       4.363 -12.959  -0.138  0.00  0.00    -0.204 F 
ENDBRANCH  20  23
ENDBRANCH  16  17
ENDBRANCH   1  16
BRANCH   4  30
ATOM     30  S   UNL     1       1.276  -2.764  -1.762  0.00  0.00    -0.081 S 
BRANCH  30  31
ATOM     31  C   UNL     1       1.290  -2.162  -0.055  0.00  0.00    +0.112 C 
BRANCH  31  32
ATOM     32  C   UNL     1       1.281  -0.655  -0.054  0.00  0.00    -0.037 A 
ATOM     33  C   UNL     1       0.080   0.029  -0.042  0.00  0.00    +0.007 A 
ATOM     34  C   UNL     1       0.071   1.411  -0.040  0.00  0.00    +0.038 A 
ATOM     35  C   UNL     1       1.266   2.111  -0.051  0.00  0.00    +0.123 A 
ATOM     36  C   UNL     1       2.469   1.425  -0.064  0.00  0.00    +0.038 A 
ATOM     37  C   UNL     1       2.475   0.043  -0.065  0.00  0.00    +0.007 A 
ATOM     38  F   UNL     1       1.259   3.462  -0.050  0.00  0.00    -0.205 F 
ENDBRANCH  31  32
ENDBRANCH  30  31
ENDBRANCH   4  30
TORSDOF 8
