REMARK  Name = ZINC03363062
REMARK  11 active torsions:
REMARK  status: ('A' for Active; 'I' for Inactive)
REMARK    1  A    between atoms: C_1  and  C_2
REMARK    2  A    between atoms: C_7  and  N_8
REMARK    3  A    between atoms: C_9  and  C_28
REMARK    4  A    between atoms: C_12  and  S_13
REMARK    5  A    between atoms: S_13  and  C_14
REMARK    6  A    between atoms: C_14  and  C_15
REMARK    7  A    between atoms: C_15  and  C_17
REMARK    8  A    between atoms: C_18  and  C_27
REMARK    9  A    between atoms: C_19  and  C_24
REMARK   10  A    between atoms: C_20  and  C_23
REMARK   11  A    between atoms: C_24  and  C_26
REMARK                            x       y       z     vdW  Elec       q    Type
REMARK                         _______ _______ _______ _____ _____    ______ ____
ROOT
ATOM      1  N   UNL     1      -2.206   0.923   0.002  0.00  0.00    -0.270 N 
ATOM      2  C   UNL     1      -2.952   1.337   1.085  0.00  0.00    +0.169 A 
ATOM      3  N   UNL     1      -3.874   2.152   0.629  0.00  0.00    -0.128 NA
ATOM      4  N   UNL     1      -3.759   2.277  -0.645  0.00  0.00    -0.122 NA
ATOM      5  C   UNL     1      -2.752   1.552  -1.082  0.00  0.00    +0.197 A 
ENDROOT
BRANCH   1  12
ATOM      6  C   UNL     1       0.398   2.025   0.333  0.00  0.00    +0.046 C 
ATOM      7  C   UNL     1       0.175   0.544   0.168  0.00  0.00    -0.026 A 
ATOM      8  C   UNL     1       1.252  -0.322   0.170  0.00  0.00    +0.005 A 
ATOM      9  C   UNL     1       1.049  -1.681   0.018  0.00  0.00    +0.000 A 
ATOM     10  C   UNL     1      -0.232  -2.178  -0.138  0.00  0.00    +0.002 A 
ATOM     11  C   UNL     1      -1.312  -1.318  -0.141  0.00  0.00    +0.026 A 
ATOM     12  C   UNL     1      -1.111   0.048   0.011  0.00  0.00    +0.053 A 
ENDBRANCH   1  12
BRANCH   2  13
ATOM     13  C   UNL     1      -2.751   0.937   2.493  0.00  0.00    +0.022 A 
ATOM     14  C   UNL     1      -1.953  -0.166   2.822  0.00  0.00    +0.031 A 
ATOM     15  C   UNL     1      -1.790  -0.500   4.150  0.00  0.00    +0.111 A 
ATOM     16  N   UNL     1      -2.380   0.197   5.102  0.00  0.00    -0.263 NA
ATOM     17  C   UNL     1      -3.144   1.240   4.836  0.00  0.00    +0.111 A 
ATOM     18  C   UNL     1      -3.358   1.647   3.536  0.00  0.00    +0.031 A 
ENDBRANCH   2  13
BRANCH   5  19
ATOM     19  S   UNL     1      -2.211   1.413  -2.753  0.00  0.00    -0.078 S 
BRANCH  19  20
ATOM     20  C   UNL     1      -3.404   2.509  -3.561  0.00  0.00    +0.158 C 
BRANCH  20  21
ATOM     21  C   UNL     1      -3.126   2.549  -5.042  0.00  0.00    +0.190 C 
ATOM     22  O   UNL     1      -2.212   1.899  -5.506  0.00  0.00    -0.290 OA
BRANCH  21  23
ATOM     23  C   UNL     1      -3.933   3.343  -5.893  0.00  0.00    +0.087 A 
ATOM     24  C   UNL     1      -3.786   3.473  -7.256  0.00  0.00    -0.012 A 
ATOM     25  C   UNL     1      -4.800   4.356  -7.693  0.00  0.00    +0.041 A 
ATOM     26  C   UNL     1      -5.522   4.735  -6.571  0.00  0.00    +0.024 A 
ATOM     27  N   UNL     1      -4.999   4.127  -5.499  0.00  0.00    -0.355 N 
ATOM     28  H   UNL     1      -5.319   4.222  -4.588  0.00  0.00    +0.166 HD
ATOM     29  C   UNL     1      -6.700   5.676  -6.561  0.00  0.00    +0.064 C 
ATOM     30  C   UNL     1      -2.747   2.802  -8.116  0.00  0.00    +0.047 C 
BRANCH  25  31
ATOM     31  C   UNL     1      -5.040   4.791  -9.073  0.00  0.00    +0.162 C 
ATOM     32  O   UNL     1      -4.544   5.821  -9.479  0.00  0.00    -0.292 OA
ATOM     33  C   UNL     1      -5.904   3.960  -9.986  0.00  0.00    +0.091 C 
ENDBRANCH  25  31
ENDBRANCH  21  23
ENDBRANCH  20  21
ENDBRANCH  19  20
ENDBRANCH   5  19
TORSDOF 7
