REMARK  Name = ZINC10149590
REMARK  10 active torsions:
REMARK  status: ('A' for Active; 'I' for Inactive)
REMARK    1  A    between atoms: C_1  and  C_2
REMARK    2  A    between atoms: C_2  and  C_3
REMARK    3  A    between atoms: C_4  and  C_25
REMARK    4  A    between atoms: C_6  and  N_11
REMARK    5  A    between atoms: C_7  and  C_8
REMARK    6  A    between atoms: C_12  and  C_14
REMARK    7  A    between atoms: C_19  and  O_20
REMARK    8  A    between atoms: O_20  and  C_21
REMARK    9  A    between atoms: C_21  and  C_22
REMARK   10  A    between atoms: C_21  and  C_23
REMARK                            x       y       z     vdW  Elec       q    Type
REMARK                         _______ _______ _______ _____ _____    ______ ____
ROOT
ATOM      1  N   UNL     1      -1.214  -2.055  -0.663  0.00  0.00    -0.275 N 
ATOM      2  C   UNL     1      -1.245  -0.725  -0.443  0.00  0.00    +0.252 C 
ATOM      3  O   UNL     1      -2.309  -0.136  -0.430  0.00  0.00    -0.270 OA
ATOM      4  H   UNL     1      -0.366  -2.525  -0.674  0.00  0.00    +0.156 HD
ENDROOT
BRANCH   2   5
ATOM      5  C   UNL     1       0.011   0.015  -0.220  0.00  0.00    +0.080 A 
ATOM      6  C   UNL     1       1.235  -0.658  -0.235  0.00  0.00    +0.032 A 
ATOM      7  C   UNL     1       2.406   0.040  -0.025  0.00  0.00    +0.019 A 
ATOM      8  C   UNL     1       2.373   1.407   0.201  0.00  0.00    +0.019 A 
ATOM      9  C   UNL     1       1.170   2.084   0.217  0.00  0.00    +0.047 A 
ATOM     10  C   UNL     1      -0.017   1.397   0.008  0.00  0.00    +0.133 A 
ATOM     11 BR   UNL     1       4.062  -0.873  -0.045  0.00  0.00    -0.050 Br
BRANCH  10  12
ATOM     12  O   UNL     1      -1.199   2.063   0.019  0.00  0.00    -0.489 OA
BRANCH  12  13
ATOM     13  C   UNL     1      -1.142   3.486   0.131  0.00  0.00    +0.167 C 
ATOM     14  C   UNL     1      -2.405   4.097  -0.478  0.00  0.00    +0.051 C 
ATOM     15  C   UNL     1      -1.047   3.878   1.607  0.00  0.00    +0.051 C 
ENDBRANCH  12  13
ENDBRANCH  10  12
ENDBRANCH   2   5
BRANCH   1  19
ATOM     16  C   UNL     1      -3.920  -4.570  -1.297  0.00  0.00    -0.024 A 
ATOM     17  C   UNL     1      -4.898  -3.649  -1.220  0.00  0.00    -0.008 A 
ATOM     18  S   UNL     1      -4.014  -2.139  -0.891  0.00  0.00    -0.078 S 
ATOM     19  C   UNL     1      -2.394  -2.750  -0.872  0.00  0.00    +0.085 A 
ATOM     20  C   UNL     1      -2.565  -4.109  -1.113  0.00  0.00    +0.068 A 
ATOM     21  C   UNL     1      -6.384  -3.849  -1.371  0.00  0.00    +0.052 C 
BRANCH  20  22
ATOM     22  C   UNL     1      -1.424  -5.028  -1.176  0.00  0.00    +0.244 C 
ATOM     23  O   UNL     1      -1.033  -5.582  -0.166  0.00  0.00    -0.270 OA
ATOM     24  N   UNL     1      -0.809  -5.258  -2.353  0.00  0.00    -0.325 N 
ATOM     25  H   UNL     1      -1.121  -4.816  -3.158  0.00  0.00    +0.145 HD
ATOM     26  H   UNL     1      -0.055  -5.866  -2.395  0.00  0.00    +0.145 HD
ENDBRANCH  20  22
BRANCH  16  28
ATOM     27  C   UNL     1      -4.442  -6.749  -0.235  0.00  0.00    +0.009 C 
ATOM     28  C   UNL     1      -4.227  -6.021  -1.563  0.00  0.00    +0.033 C 
ENDBRANCH  16  28
ENDBRANCH   1  19
TORSDOF 6
