REMARK  Name = ZINC09186342
REMARK  6 active torsions:
REMARK  status: ('A' for Active; 'I' for Inactive)
REMARK    1  A    between atoms: C_8  and  C_12
REMARK    2  A    between atoms: C_12  and  C_13
REMARK    3  A    between atoms: C_13  and  N_14
REMARK    4  A    between atoms: C_15  and  C_17
REMARK    5  A    between atoms: C_17  and  O_18
REMARK    6  A    between atoms: O_18  and  C_19
REMARK                            x       y       z     vdW  Elec       q    Type
REMARK                         _______ _______ _______ _____ _____    ______ ____
ROOT
ATOM      1  N   UNL     1      -0.288   1.272  -2.443  0.00  0.00    -0.312 N 
ATOM      2  C   UNL     1      -0.742   1.585  -1.213  0.00  0.00    +0.251 C 
ATOM      3  O   UNL     1      -1.736   2.268  -1.088  0.00  0.00    -0.272 OA
ATOM      4  H   UNL     1       0.507   0.726  -2.543  0.00  0.00    +0.149 HD
ENDROOT
BRANCH   1   5
ATOM      5  C   UNL     1      -0.997   1.758  -3.630  0.00  0.00    +0.109 C 
BRANCH   5   6
ATOM      6  C   UNL     1      -0.281   1.264  -4.889  0.00  0.00    +0.056 C 
BRANCH   6  14
ATOM      7  C   UNL     1      -0.980   5.291  -8.400  0.00  0.00    +0.022 A 
ATOM      8  C   UNL     1      -1.784   4.204  -8.665  0.00  0.00    +0.027 A 
ATOM      9  C   UNL     1      -1.722   3.080  -7.849  0.00  0.00    +0.047 A 
ATOM     10  C   UNL     1      -0.840   3.068  -6.753  0.00  0.00    +0.004 A 
ATOM     11  C   UNL     1      -0.028   4.176  -6.500  0.00  0.00    +0.030 A 
ATOM     12  C   UNL     1      -0.104   5.279  -7.322  0.00  0.00    +0.042 A 
ATOM     13 CL   UNL     1       0.898   6.660  -7.008  0.00  0.00    -0.084 Cl
ATOM     14  C   UNL     1      -1.010   1.763  -6.110  0.00  0.00    -0.021 A 
ATOM     15  C   UNL     1      -1.942   1.099  -6.810  0.00  0.00    +0.087 A 
ATOM     16  N   UNL     1      -2.379   1.869  -7.853  0.00  0.00    -0.360 N 
ATOM     17  H   UNL     1      -3.052   1.603  -8.499  0.00  0.00    +0.165 HD
ENDBRANCH   6  14
ENDBRANCH   5   6
ENDBRANCH   1   5
BRANCH   2  18
ATOM     18  C   UNL     1      -0.013   1.086   0.008  0.00  0.00    +0.324 C 
BRANCH  18  19
ATOM     19  O   UNL     1      -0.682   1.547   1.184  0.00  0.00    -0.481 OA
BRANCH  19  20
ATOM     20  C   UNL     1      -0.149   1.183   2.378  0.00  0.00    +0.143 A 
ATOM     21  C   UNL     1       0.992   0.398   2.412  0.00  0.00    +0.094 A 
ATOM     22  C   UNL     1       1.537   0.026   3.631  0.00  0.00    +0.143 A 
ATOM     23  C   UNL     1       0.920   0.450   4.823  0.00  0.00    +0.023 A 
ATOM     24  C   UNL     1      -0.232   1.243   4.772  0.00  0.00    +0.035 A 
ATOM     25  C   UNL     1      -0.753   1.605   3.562  0.00  0.00    +0.083 A 
ATOM     26 CL   UNL     1      -2.178   2.594   3.498  0.00  0.00    -0.080 Cl
ATOM     27  C   UNL     1       1.502   0.049   6.106  0.00  0.00    -0.027 A 
ATOM     28  C   UNL     1       2.620  -0.720   6.095  0.00  0.00    +0.041 A 
ATOM     29  C   UNL     1       3.186  -1.108   4.859  0.00  0.00    +0.341 A 
ATOM     30  O   UNL     1       4.190  -1.797   4.859  0.00  0.00    -0.245 OA
ATOM     31  O   UNL     1       2.649  -0.738   3.688  0.00  0.00    -0.422 OA
ATOM     32  C   UNL     1       3.055  -1.021   7.513  0.00  0.00    +0.043 C 
ATOM     33  C   UNL     1       1.824  -0.703   8.388  0.00  0.00    +0.010 C 
ATOM     34  C   UNL     1       1.077   0.339   7.526  0.00  0.00    +0.036 C 
ENDBRANCH  19  20
ENDBRANCH  18  19
ENDBRANCH   2  18
TORSDOF 6
