REMARK  Name = ZINC58430063
REMARK  8 active torsions:
REMARK  status: ('A' for Active; 'I' for Inactive)
REMARK    1  A    between atoms: C_1  and  N_2
REMARK    2  A    between atoms: C_6  and  C_7
REMARK    3  A    between atoms: C_7  and  C_8
REMARK    4  A    between atoms: C_7  and  C_24
REMARK    5  A    between atoms: C_7  and  O_28
REMARK    6  A    between atoms: C_8  and  C_9
REMARK    7  A    between atoms: C_14  and  C_17
REMARK    8  A    between atoms: C_20  and  O_23
REMARK                            x       y       z     vdW  Elec       q    Type
REMARK                         _______ _______ _______ _____ _____    ______ ____
ROOT
ATOM      1  C   UNL     1      -0.113  -0.674   5.134  0.00  0.00    +0.219 C 
ATOM      2  O   UNL     1      -0.515   0.468   5.200  0.00  0.00    -0.275 OA
ATOM      3  N   UNL     1       0.114  -1.375   6.263  0.00  0.00    -0.301 N 
ATOM      4  C   UNL     1       0.607  -2.758   6.199  0.00  0.00    +0.108 C 
ATOM      5  C   UNL     1      -0.329  -3.653   7.017  0.00  0.00    +0.027 C 
ATOM      6  C   UNL     1      -0.451  -3.094   8.436  0.00  0.00    +0.022 C 
ATOM      7  C   UNL     1      -1.053  -1.688   8.383  0.00  0.00    +0.027 C 
ATOM      8  C   UNL     1      -0.119  -0.769   7.581  0.00  0.00    +0.108 C 
ENDROOT
BRANCH   6   9
ATOM      9  C   UNL     1      -1.345  -3.992   9.254  0.00  0.00    -0.044 A 
ATOM     10  C   UNL     1      -2.652  -4.208   8.860  0.00  0.00    +0.007 A 
ATOM     11  C   UNL     1      -3.473  -5.029   9.608  0.00  0.00    +0.045 A 
ATOM     12  C   UNL     1      -2.984  -5.638  10.755  0.00  0.00    +0.117 A 
ATOM     13  C   UNL     1      -1.672  -5.420  11.147  0.00  0.00    +0.045 A 
ATOM     14  C   UNL     1      -0.853  -4.602  10.393  0.00  0.00    +0.007 A 
BRANCH  12  15
ATOM     15  O   UNL     1      -3.790  -6.447  11.492  0.00  0.00    -0.507 OA
ATOM     16  H   UNL     1      -3.765  -7.376  11.226  0.00  0.00    +0.292 HD
ENDBRANCH  12  15
ENDBRANCH   6   9
BRANCH   1  17
ATOM     17  C   UNL     1       0.131  -1.310   3.790  0.00  0.00    +0.148 C 
BRANCH  17  18
ATOM     18  C   UNL     1      -0.141  -0.288   2.685  0.00  0.00    +0.227 C 
BRANCH  18  24
ATOM     19  C   UNL     1      -0.844   2.634   1.931  0.00  0.00    +0.150 C 
ATOM     20  N   UNL     1       0.401   2.194   2.564  0.00  0.00    -0.335 N 
ATOM     21  C   UNL     1       1.452   2.991   2.932  0.00  0.00    +0.106 A 
ATOM     22  C   UNL     1       2.382   2.184   3.474  0.00  0.00    +0.130 A 
ATOM     23  N   UNL     1       1.914   0.928   3.440  0.00  0.00    -0.237 NA
ATOM     24  C   UNL     1       0.725   0.927   2.900  0.00  0.00    +0.151 A 
ENDBRANCH  18  24
BRANCH  18  25
ATOM     25  C   UNL     1       0.182  -0.909   1.325  0.00  0.00    +0.426 C 
ATOM     26  F   UNL     1       1.514  -1.336   1.311  0.00  0.00    -0.167 F 
ATOM     27  F   UNL     1      -0.661  -2.003   1.100  0.00  0.00    -0.167 F 
ATOM     28  F   UNL     1      -0.013   0.043   0.319  0.00  0.00    -0.167 F 
ENDBRANCH  18  25
BRANCH  18  29
ATOM     29  O   UNL     1      -1.517   0.096   2.719  0.00  0.00    -0.373 OA
ATOM     30  H   UNL     1      -1.792   0.498   3.554  0.00  0.00    +0.211 HD
ENDBRANCH  18  29
ENDBRANCH  17  18
ENDBRANCH   1  17
TORSDOF 7
