REMARK  Name = ZINC07729679
REMARK  6 active torsions:
REMARK  status: ('A' for Active; 'I' for Inactive)
REMARK    1  A    between atoms: C_6  and  C_7
REMARK    2  A    between atoms: C_10  and  S_13
REMARK    3  A    between atoms: N_11  and  N_12
REMARK    4  A    between atoms: S_13  and  C_14
REMARK    5  A    between atoms: C_14  and  C_15
REMARK    6  A    between atoms: C_18  and  C_20
REMARK                            x       y       z     vdW  Elec       q    Type
REMARK                         _______ _______ _______ _____ _____    ______ ____
ROOT
ATOM      1  C   UNL     1      -1.266  -0.763   0.011  0.00  0.00    +0.182 A 
ATOM      2  N   UNL     1      -2.458  -0.289   0.293  0.00  0.00    -0.127 NA
ATOM      3  N   UNL     1      -3.335  -1.224   0.203  0.00  0.00    -0.121 NA
ATOM      4  C   UNL     1      -2.757  -2.353  -0.142  0.00  0.00    +0.209 A 
ATOM      5  N   UNL     1      -1.422  -2.099  -0.281  0.00  0.00    -0.224 N 
ENDROOT
BRANCH   1  11
ATOM      6  C   UNL     1      -0.017   1.392   0.010  0.00  0.00    +0.014 A 
ATOM      7  C   UNL     1       1.169   2.095   0.002  0.00  0.00    +0.039 A 
ATOM      8  C   UNL     1       2.379   1.418  -0.013  0.00  0.00    +0.123 A 
ATOM      9  C   UNL     1       2.403   0.033  -0.021  0.00  0.00    +0.039 A 
ATOM     10  C   UNL     1       1.223  -0.680  -0.014  0.00  0.00    +0.014 A 
ATOM     11  C   UNL     1       0.002  -0.004   0.002  0.00  0.00    +0.021 A 
ATOM     12  F   UNL     1       3.538   2.112  -0.021  0.00  0.00    -0.205 F 
ENDBRANCH   1  11
BRANCH   5  13
ATOM     13  N   UNL     1      -0.445  -2.986  -0.635  0.00  0.00    -0.295 N 
ATOM     14  H   UNL     1      -0.053  -3.434   0.179  0.00  0.00    +0.163 HD
ATOM     15  H   UNL     1      -0.796  -3.668  -1.290  0.00  0.00    +0.163 HD
ENDBRANCH   5  13
BRANCH   4  16
ATOM     16  S   UNL     1      -3.556  -3.904  -0.385  0.00  0.00    -0.078 S 
BRANCH  16  17
ATOM     17  C   UNL     1      -5.305  -3.554  -0.052  0.00  0.00    +0.133 C 
BRANCH  17  18
ATOM     18  C   UNL     1      -6.112  -4.815  -0.227  0.00  0.00    +0.059 A 
ATOM     19  C   UNL     1      -6.635  -5.123  -1.441  0.00  0.00    +0.071 A 
ATOM     20  S   UNL     1      -7.458  -6.666  -1.065  0.00  0.00    -0.075 S 
ATOM     21  C   UNL     1      -7.016  -6.732   0.667  0.00  0.00    +0.109 A 
ATOM     22  N   UNL     1      -6.306  -5.619   0.794  0.00  0.00    -0.243 NA
BRANCH  21  23
ATOM     23  C   UNL     1      -7.348  -7.753   1.682  0.00  0.00    +0.014 A 
ATOM     24  C   UNL     1      -8.108  -8.872   1.346  0.00  0.00    +0.018 A 
ATOM     25  C   UNL     1      -8.390  -9.784   2.302  0.00  0.00    +0.046 A 
ATOM     26  S   UNL     1      -7.586  -9.093   3.737  0.00  0.00    -0.104 S 
ATOM     27  C   UNL     1      -6.912  -7.626   2.974  0.00  0.00    +0.055 A 
ENDBRANCH  21  23
ENDBRANCH  17  18
ENDBRANCH  16  17
ENDBRANCH   4  16
TORSDOF 6
