REMARK  Name = ZINC02450633
REMARK  7 active torsions:
REMARK  status: ('A' for Active; 'I' for Inactive)
REMARK    1  A    between atoms: C_4  and  C_7
REMARK    2  A    between atoms: C_7  and  C_8
REMARK    3  A    between atoms: C_13  and  C_14
REMARK    4  A    between atoms: C_13  and  N_60
REMARK    5  A    between atoms: C_15  and  C_25
REMARK    6  A    between atoms: N_27  and  N_28
REMARK    7  A    between atoms: C_29  and  C_30
REMARK                            x       y       z     vdW  Elec       q    Type
REMARK                         _______ _______ _______ _____ _____    ______ ____
ROOT
ATOM      1  C   UNL     1       8.282   3.576  -0.056  0.00  0.00    +0.063 A 
ATOM      2  C   UNL     1       7.223   2.713  -0.050  0.00  0.00    +0.170 A 
ATOM      3  N   UNL     1       7.698   1.456  -0.055  0.00  0.00    -0.124 NA
ATOM      4  N   UNL     1       8.985   1.481  -0.071  0.00  0.00    -0.058 NA
ATOM      5  N   UNL     1       9.402   2.820  -0.069  0.00  0.00    -0.194 N 
ATOM      6  C   UNL     1      10.722   3.283  -0.079  0.00  0.00    +0.240 A 
ATOM      7  C   UNL     1      11.925   2.445  -0.093  0.00  0.00    +0.206 A 
ATOM      8  N   UNL     1      12.969   3.227  -0.100  0.00  0.00    -0.032 NA
ATOM      9  O   UNL     1      12.508   4.567  -0.091  0.00  0.00    -0.239 OA
ATOM     10  N   UNL     1      11.092   4.532  -0.083  0.00  0.00    -0.027 NA
ATOM     11  N   UNL     1      11.949   1.055  -0.099  0.00  0.00    -0.337 N 
ATOM     12  H   UNL     1      11.117   0.556  -0.092  0.00  0.00    +0.144 HD
ATOM     13  H   UNL     1      12.797   0.585  -0.108  0.00  0.00    +0.144 HD
ENDROOT
BRANCH   2  14
ATOM     14  C   UNL     1       5.799   3.097  -0.035  0.00  0.00    +0.285 C 
ATOM     15  O   UNL     1       5.485   4.272  -0.027  0.00  0.00    -0.267 OA
ATOM     16  N   UNL     1       4.845   2.145  -0.031  0.00  0.00    -0.202 N 
ATOM     17  H   UNL     1       5.094   1.208  -0.038  0.00  0.00    +0.178 HD
BRANCH  16  18
ATOM     18  N   UNL     1       3.492   2.509  -0.017  0.00  0.00    -0.187 NA
ATOM     19  C   UNL     1       2.573   1.593  -0.013  0.00  0.00    +0.141 C 
BRANCH  19  20
ATOM     20  C   UNL     1       1.149   1.976   0.002  0.00  0.00    +0.032 A 
ATOM     21  C   UNL     1      -0.013   1.076   0.008  0.00  0.00    +0.050 A 
ATOM     22  C   UNL     1      -1.096   1.869   0.017  0.00  0.00    +0.195 A 
ATOM     23  O   UNL     1      -0.701   3.151   0.026  0.00  0.00    -0.470 OA
ATOM     24  C   UNL     1       0.636   3.238   0.013  0.00  0.00    +0.204 A 
ENDBRANCH  19  20
ENDBRANCH  16  18
ENDBRANCH   2  14
BRANCH   1  25
ATOM     25  C   UNL     1       8.214   5.082  -0.050  0.00  0.00    -0.020 C 
BRANCH  25  31
ATOM     26  C   UNL     1       7.014   6.751  -3.798  0.00  0.00    -0.010 C 
ATOM     27  C   UNL     1       7.993   7.522  -2.909  0.00  0.00    -0.015 C 
ATOM     28  C   UNL     1       7.878   7.013  -1.470  0.00  0.00    -0.078 C 
ATOM     29  C   UNL     1       7.224   4.811  -2.242  0.00  0.00    -0.078 C 
ATOM     30  C   UNL     1       7.320   5.254  -3.703  0.00  0.00    -0.015 C 
ATOM     31  N   UNL     1       8.208   5.572  -1.443  0.00  0.00    +0.383 N 
ATOM     32  H   UNL     1       9.142   5.437  -1.849  0.00  0.00    -0.081 HD
BRANCH  26  33
ATOM     33  C   UNL     1       7.167   7.215  -5.248  0.00  0.00    +0.038 C 
BRANCH  33  37
ATOM     34  C   UNL     1       4.202   5.320  -7.670  0.00  0.00    +0.000 A 
ATOM     35  C   UNL     1       3.929   6.534  -7.067  0.00  0.00    +0.000 A 
ATOM     36  C   UNL     1       4.889   7.147  -6.284  0.00  0.00    +0.003 A 
ATOM     37  C   UNL     1       6.121   6.546  -6.102  0.00  0.00    -0.047 A 
ATOM     38  C   UNL     1       6.395   5.335  -6.710  0.00  0.00    +0.003 A 
ATOM     39  C   UNL     1       5.434   4.720  -7.489  0.00  0.00    +0.000 A 
ENDBRANCH  33  37
ENDBRANCH  26  33
ENDBRANCH  25  31
ENDBRANCH   1  25
TORSDOF 7
