REMARK  Name = ZINC36309212
REMARK  13 active torsions:
REMARK  status: ('A' for Active; 'I' for Inactive)
REMARK    1  A    between atoms: C_1  and  O_2
REMARK    2  A    between atoms: O_2  and  C_3
REMARK    3  A    between atoms: C_3  and  C_4
REMARK    4  A    between atoms: C_4  and  C_6
REMARK    5  A    between atoms: C_4  and  O_36
REMARK    6  A    between atoms: C_6  and  N_7
REMARK    7  A    between atoms: N_7  and  C_8
REMARK    8  A    between atoms: N_7  and  C_14
REMARK    9  A    between atoms: C_8  and  C_9
REMARK   10  A    between atoms: C_14  and  C_15
REMARK   11  A    between atoms: C_25  and  C_27
REMARK   12  A    between atoms: C_27  and  O_28
REMARK   13  A    between atoms: O_28  and  C_29
REMARK                            x       y       z     vdW  Elec       q    Type
REMARK                         _______ _______ _______ _____ _____    ______ ____
ROOT
ATOM      1  C   UNL     1       1.548  -6.321   3.143  0.00  0.00    +0.200 C 
ATOM      2  O   UNL     1       1.130  -6.809   2.115  0.00  0.00    -0.278 OA
ATOM      3  N   UNL     1       1.922  -7.118   4.163  0.00  0.00    -0.292 N 
ATOM      4  C   UNL     1       2.425  -6.537   5.418  0.00  0.00    +0.113 C 
ATOM      5  C   UNL     1       1.435  -6.884   6.541  0.00  0.00    +0.061 C 
ATOM      6  C   UNL     1       1.026  -8.313   6.394  0.00  0.00    -0.004 A 
ATOM      7  C   UNL     1       1.170  -9.117   5.305  0.00  0.00    -0.014 A 
ATOM      8  C   UNL     1       0.692 -10.421   5.423  0.00  0.00    +0.013 A 
ATOM      9  C   UNL     1       0.124 -10.832   6.580  0.00  0.00    +0.046 A 
ATOM     10  S   UNL     1       0.237  -9.361   7.588  0.00  0.00    -0.101 S 
ATOM     11  C   UNL     1       1.828  -8.579   4.041  0.00  0.00    +0.144 C 
ENDROOT
BRANCH   1  12
ATOM     12  C   UNL     1       1.650  -4.824   3.280  0.00  0.00    +0.019 C 
BRANCH  12  13
ATOM     13  N   UNL     1       1.185  -4.186   2.041  0.00  0.00    +0.392 N 
ATOM     14  H   UNL     1       1.698  -4.560   1.257  0.00  0.00    -0.080 HD
BRANCH  13  15
ATOM     15  C   UNL     1       1.406  -2.736   2.124  0.00  0.00    -0.044 C 
BRANCH  15  16
ATOM     16  C   UNL     1       2.909  -2.448   2.115  0.00  0.00    +0.124 C 
BRANCH  16  17
ATOM     17  O   UNL     1       3.491  -2.917   3.333  0.00  0.00    -0.391 OA
ATOM     18  H   UNL     1       3.127  -2.504   4.127  0.00  0.00    +0.210 HD
ENDBRANCH  16  17
BRANCH  16  19
ATOM     19  C   UNL     1       3.139  -0.941   1.986  0.00  0.00    +0.188 C 
BRANCH  19  21
ATOM     20  C   UNL     1       4.863   0.704   1.734  0.00  0.00    +0.194 C 
ATOM     21  O   UNL     1       4.538  -0.681   1.861  0.00  0.00    -0.381 OA
ENDBRANCH  19  21
ENDBRANCH  16  19
ENDBRANCH  15  16
ENDBRANCH  13  15
BRANCH  13  22
ATOM     22  C   UNL     1      -0.248  -4.453   1.861  0.00  0.00    -0.002 C 
BRANCH  22  23
ATOM     23  C   UNL     1      -0.694  -3.919   0.524  0.00  0.00    +0.089 A 
ATOM     24  C   UNL     1      -0.779  -4.627  -0.617  0.00  0.00    +0.042 A 
ATOM     25  C   UNL     1      -1.237  -3.738  -1.617  0.00  0.00    +0.041 A 
ATOM     26  C   UNL     1      -1.405  -2.541  -1.027  0.00  0.00    +0.195 A 
ATOM     27  O   UNL     1      -1.080  -2.658   0.271  0.00  0.00    -0.470 OA
ENDBRANCH  22  23
ENDBRANCH  13  22
ENDBRANCH  12  13
ENDBRANCH   1  12
BRANCH  11  28
ATOM     28  C   UNL     1       3.228  -9.178   3.895  0.00  0.00    +0.256 C 
BRANCH  28  29
ATOM     29  O   UNL     1       3.971  -8.951   5.095  0.00  0.00    -0.490 OA
BRANCH  29  30
ATOM     30  C   UNL     1       5.244  -9.424   5.131  0.00  0.00    +0.123 A 
ATOM     31  C   UNL     1       5.770 -10.088   4.033  0.00  0.00    +0.046 A 
ATOM     32  C   UNL     1       7.064 -10.569   4.071  0.00  0.00    +0.006 A 
ATOM     33  C   UNL     1       7.838 -10.389   5.203  0.00  0.00    +0.038 A 
ATOM     34  C   UNL     1       7.316  -9.726   6.301  0.00  0.00    +0.127 A 
ATOM     35  C   UNL     1       6.022  -9.238   6.264  0.00  0.00    +0.084 A 
ATOM     36  F   UNL     1       8.073  -9.550   7.406  0.00  0.00    -0.205 F 
ENDBRANCH  29  30
ENDBRANCH  28  29
ENDBRANCH  11  28
TORSDOF 12
