REMARK  Name = ZINC43973046
REMARK  8 active torsions:
REMARK  status: ('A' for Active; 'I' for Inactive)
REMARK    1  A    between atoms: C_1  and  C_2
REMARK    2  A    between atoms: C_4  and  C_8
REMARK    3  A    between atoms: C_5  and  C_7
REMARK    4  A    between atoms: C_8  and  N_9
REMARK    5  A    between atoms: C_12  and  C_15
REMARK    6  A    between atoms: C_15  and  N_16
REMARK    7  A    between atoms: N_19  and  C_20
REMARK    8  A    between atoms: C_20  and  C_21
REMARK                            x       y       z     vdW  Elec       q    Type
REMARK                         _______ _______ _______ _____ _____    ______ ____
ROOT
ATOM      1  N   UNL     1      -1.055  -3.911   1.769  0.00  0.00    +0.382 N 
ATOM      2  C   UNL     1       0.368  -4.040   2.107  0.00  0.00    -0.078 C 
ATOM      3  C   UNL     1       0.514  -4.384   3.591  0.00  0.00    -0.014 C 
ATOM      4  C   UNL     1      -0.202  -5.708   3.875  0.00  0.00    +0.003 C 
ATOM      5  C   UNL     1      -1.668  -5.585   3.450  0.00  0.00    -0.014 C 
ATOM      6  C   UNL     1      -1.734  -5.197   1.972  0.00  0.00    -0.078 C 
ATOM      7  H   UNL     1      -1.477  -3.212   2.362  0.00  0.00    -0.081 HD
ENDROOT
BRANCH   1   8
ATOM      8  C   UNL     1      -1.188  -3.505   0.364  0.00  0.00    -0.040 C 
BRANCH   8  12
ATOM      9  C   UNL     1       1.873   0.367  -0.898  0.00  0.00    +0.086 C 
ATOM     10  C   UNL     1       0.719  -0.445  -0.369  0.00  0.00    +0.102 A 
ATOM     11  C   UNL     1       0.610  -1.784  -0.423  0.00  0.00    +0.046 A 
ATOM     12  C   UNL     1      -0.622  -2.119   0.186  0.00  0.00    -0.023 A 
ATOM     13  C   UNL     1      -1.191  -0.965   0.574  0.00  0.00    +0.104 A 
ATOM     14  O   UNL     1      -0.372   0.046   0.241  0.00  0.00    -0.465 OA
ATOM     15  C   UNL     1      -2.521  -0.828   1.271  0.00  0.00    +0.086 C 
ENDBRANCH   8  12
ENDBRANCH   1   8
BRANCH   4  16
ATOM     16  C   UNL     1      -0.128  -6.018   5.372  0.00  0.00    +0.109 C 
BRANCH  16  17
ATOM     17  N   UNL     1      -0.707  -7.339   5.626  0.00  0.00    -0.299 N 
ATOM     18  C   UNL     1      -0.750  -7.826   6.882  0.00  0.00    +0.300 C 
ATOM     19  O   UNL     1      -0.308  -7.169   7.804  0.00  0.00    -0.253 OA
ATOM     20  N   UNL     1      -1.284  -9.041   7.115  0.00  0.00    -0.295 N 
ATOM     21  H   UNL     1      -1.060  -7.864   4.890  0.00  0.00    +0.150 HD
ATOM     22  H   UNL     1      -1.637  -9.566   6.380  0.00  0.00    +0.151 HD
BRANCH  20  23
ATOM     23  C   UNL     1      -1.331  -9.571   8.481  0.00  0.00    +0.141 C 
BRANCH  23  24
ATOM     24  C   UNL     1      -1.970 -10.935   8.469  0.00  0.00    -0.030 A 
ATOM     25  C   UNL     1      -3.339 -11.058   8.616  0.00  0.00    +0.006 A 
ATOM     26  C   UNL     1      -3.926 -12.310   8.605  0.00  0.00    +0.020 A 
ATOM     27  C   UNL     1      -3.143 -13.439   8.447  0.00  0.00    +0.041 A 
ATOM     28  C   UNL     1      -1.772 -13.316   8.301  0.00  0.00    +0.020 A 
ATOM     29  C   UNL     1      -1.188 -12.063   8.306  0.00  0.00    +0.006 A 
ATOM     30 CL   UNL     1      -3.879 -15.011   8.434  0.00  0.00    -0.084 Cl
ENDBRANCH  23  24
ENDBRANCH  20  23
ENDBRANCH  16  17
ENDBRANCH   4  16
TORSDOF 6
