REMARK  Name = ZINC36545790
REMARK  18 active torsions:
REMARK  status: ('A' for Active; 'I' for Inactive)
REMARK    1  A    between atoms: C_1  and  C_2
REMARK    2  A    between atoms: C_2  and  C_3
REMARK    3  A    between atoms: C_2  and  C_4
REMARK    4  A    between atoms: C_2  and  C_5
REMARK    5  A    between atoms: C_5  and  C_6
REMARK    6  A    between atoms: C_6  and  C_7
REMARK    7  A    between atoms: C_6  and  C_8
REMARK    8  A    between atoms: C_6  and  N_9
REMARK    9  A    between atoms: C_10  and  C_12
REMARK   10  A    between atoms: C_12  and  C_14
REMARK   11  A    between atoms: C_12  and  N_23
REMARK   12  A    between atoms: C_15  and  O_22
REMARK   13  A    between atoms: C_17  and  O_21
REMARK   14  A    between atoms: C_19  and  O_20
REMARK   15  A    between atoms: N_23  and  C_24
REMARK   16  A    between atoms: C_31  and  C_33
REMARK   17  A    between atoms: C_33  and  C_34
REMARK   18  A    between atoms: C_34  and  S_35
REMARK                            x       y       z     vdW  Elec       q    Type
REMARK                         _______ _______ _______ _____ _____    ______ ____
ROOT
ATOM      1  C   UNL     1       4.729   1.062  -4.945  0.00  0.00    +0.204 C 
ENDROOT
BRANCH   1   2
ATOM      2  C   UNL     1       4.422  -0.320  -5.462  0.00  0.00    +0.065 A 
ATOM      3  C   UNL     1       5.122  -1.413  -4.975  0.00  0.00    +0.129 A 
ATOM      4  C   UNL     1       4.839  -2.685  -5.451  0.00  0.00    +0.091 A 
ATOM      5  C   UNL     1       3.857  -2.863  -6.413  0.00  0.00    +0.124 A 
ATOM      6  C   UNL     1       3.156  -1.769  -6.900  0.00  0.00    +0.091 A 
ATOM      7  C   UNL     1       3.436  -0.498  -6.421  0.00  0.00    +0.129 A 
BRANCH   7   8
ATOM      8  O   UNL     1       2.746   0.573  -6.894  0.00  0.00    -0.506 OA
ATOM      9  H   UNL     1       3.148   0.989  -7.669  0.00  0.00    +0.292 HD
ENDBRANCH   7   8
BRANCH   5  10
ATOM     10  O   UNL     1       3.580  -4.109  -6.880  0.00  0.00    -0.507 OA
ATOM     11  H   UNL     1       2.896  -4.574  -6.380  0.00  0.00    +0.292 HD
ENDBRANCH   5  10
BRANCH   3  12
ATOM     12  O   UNL     1       6.084  -1.239  -4.032  0.00  0.00    -0.506 OA
ATOM     13  H   UNL     1       5.774  -1.369  -3.125  0.00  0.00    +0.292 HD
ENDBRANCH   3  12
ENDBRANCH   1   2
BRANCH   1  15
ATOM     14  N   UNL     1       3.112   0.894  -3.080  0.00  0.00    -0.308 N 
ATOM     15  C   UNL     1       4.375   1.141  -3.482  0.00  0.00    +0.239 C 
ATOM     16  O   UNL     1       5.226   1.428  -2.667  0.00  0.00    -0.273 OA
ATOM     17  H   UNL     1       2.432   0.665  -3.732  0.00  0.00    +0.149 HD
BRANCH  14  18
ATOM     18  C   UNL     1       2.768   0.971  -1.658  0.00  0.00    +0.030 C 
ATOM     19  C   UNL     1       3.108   2.364  -1.126  0.00  0.00    +0.031 C 
ATOM     20  C   UNL     1       3.565  -0.080  -0.883  0.00  0.00    +0.031 C 
BRANCH  18  21
ATOM     21  C   UNL     1       1.271   0.709  -1.481  0.00  0.00    +0.031 C 
BRANCH  21  23
ATOM     22  C   UNL     1       0.448   0.615  -3.838  0.00  0.00    +0.010 C 
ATOM     23  C   UNL     1       0.490   1.459  -2.563  0.00  0.00    -0.036 C 
ATOM     24  C   UNL     1       1.179   2.793  -2.856  0.00  0.00    +0.010 C 
ATOM     25  C   UNL     1      -0.936   1.718  -2.075  0.00  0.00    +0.010 C 
ENDBRANCH  21  23
ENDBRANCH  18  21
ENDBRANCH  14  18
ENDBRANCH   1  15
BRANCH   1  26
ATOM     26  N   UNL     1       6.156   1.342  -5.117  0.00  0.00    -0.254 N 
ATOM     27  C   UNL     1       6.732   1.189  -6.327  0.00  0.00    +0.222 C 
ATOM     28  O   UNL     1       6.068   0.820  -7.272  0.00  0.00    -0.275 OA
BRANCH  26  29
ATOM     29  C   UNL     1       6.923   1.768  -4.027  0.00  0.00    +0.056 A 
ATOM     30  C   UNL     1       7.718   0.862  -3.338  0.00  0.00    +0.025 A 
ATOM     31  C   UNL     1       8.473   1.285  -2.262  0.00  0.00    +0.002 A 
ATOM     32  C   UNL     1       8.438   2.611  -1.869  0.00  0.00    +0.002 A 
ATOM     33  C   UNL     1       7.648   3.517  -2.552  0.00  0.00    +0.022 A 
ATOM     34  C   UNL     1       6.894   3.101  -3.634  0.00  0.00    +0.062 A 
ATOM     35 CL   UNL     1       5.909   4.240  -4.496  0.00  0.00    -0.082 Cl
ENDBRANCH  26  29
BRANCH  27  36
ATOM     36  C   UNL     1       8.200   1.477  -6.504  0.00  0.00    +0.107 C 
BRANCH  36  37
ATOM     37  C   UNL     1       8.597   1.227  -7.960  0.00  0.00    +0.075 C 
BRANCH  37  38
ATOM     38  S   UNL     1      10.364   1.574  -8.174  0.00  0.00    -0.178 S 
ATOM     39  H   UNL     1      10.591   1.321  -9.476  0.00  0.00    +0.102 HD
ENDBRANCH  37  38
ENDBRANCH  36  37
ENDBRANCH  27  36
ENDBRANCH   1  26
TORSDOF 13
