REMARK  Name = ZINC20700705
REMARK  6 active torsions:
REMARK  status: ('A' for Active; 'I' for Inactive)
REMARK    1  A    between atoms: C_4  and  O_7
REMARK    2  A    between atoms: O_7  and  C_8
REMARK    3  A    between atoms: C_8  and  C_9
REMARK    4  A    between atoms: C_9  and  O_10
REMARK    5  A    between atoms: O_10  and  C_11
REMARK    6  A    between atoms: C_18  and  C_27
REMARK                            x       y       z     vdW  Elec       q    Type
REMARK                         _______ _______ _______ _____ _____    ______ ____
ROOT
ATOM      1  C   UNL     1      -1.497   6.566   1.676  0.00  0.00    +0.142 A 
ATOM      2  C   UNL     1      -2.869   6.500   1.819  0.00  0.00    +0.047 A 
ATOM      3  C   UNL     1      -3.559   5.380   1.391  0.00  0.00    +0.004 A 
ATOM      4  C   UNL     1      -2.871   4.333   0.811  0.00  0.00    +0.006 A 
ATOM      5  C   UNL     1      -1.501   4.394   0.654  0.00  0.00    -0.016 A 
ATOM      6  C   UNL     1      -0.786   5.508   1.096  0.00  0.00    +0.074 A 
ATOM      7  N   UNL     1       0.600   5.638   1.000  0.00  0.00    -0.334 N 
ATOM      8  C   UNL     1       1.317   4.566   0.290  0.00  0.00    +0.106 C 
ATOM      9  C   UNL     1       0.659   3.258   0.679  0.00  0.00    +0.029 C 
ATOM     10  C   UNL     1      -0.744   3.305  -0.002  0.00  0.00    +0.049 C 
ATOM     11  C   UNL     1      -1.183   1.889   0.031  0.00  0.00    -0.023 C 
ATOM     12  C   UNL     1      -0.105   1.112   0.020  0.00  0.00    -0.030 C 
ATOM     13  C   UNL     1       1.159   1.974   0.006  0.00  0.00    +0.033 C 
ATOM     14  H   UNL     1       1.159   6.486   1.422  0.00  0.00    +0.147 HD
ENDROOT
BRANCH   8  15
ATOM     15  C   UNL     1       1.209   4.772  -1.199  0.00  0.00    -0.009 A 
ATOM     16  C   UNL     1       0.155   5.498  -1.722  0.00  0.00    +0.007 A 
ATOM     17  C   UNL     1       0.056   5.687  -3.088  0.00  0.00    +0.000 A 
ATOM     18  C   UNL     1       1.011   5.151  -3.932  0.00  0.00    +0.001 A 
ATOM     19  C   UNL     1       2.065   4.425  -3.410  0.00  0.00    +0.020 A 
ATOM     20  C   UNL     1       2.168   4.240  -2.043  0.00  0.00    +0.046 A 
ATOM     21 CL   UNL     1       3.495   3.335  -1.386  0.00  0.00    -0.083 Cl
ENDBRANCH   8  15
BRANCH   1  22
ATOM     22  O   UNL     1      -0.829   7.671   2.103  0.00  0.00    -0.487 OA
BRANCH  22  23
ATOM     23  C   UNL     1      -1.610   8.716   2.686  0.00  0.00    +0.270 C 
BRANCH  23  24
ATOM     24  C   UNL     1      -0.692   9.867   3.102  0.00  0.00    +0.270 C 
BRANCH  24  25
ATOM     25  O   UNL     1      -0.095  10.445   1.940  0.00  0.00    -0.489 OA
BRANCH  25  29
ATOM     26  C   UNL     1       2.484  13.610   2.534  0.00  0.00    +0.000 A 
ATOM     27  C   UNL     1       2.232  13.156   1.252  0.00  0.00    +0.004 A 
ATOM     28  C   UNL     1       1.369  12.096   1.050  0.00  0.00    +0.045 A 
ATOM     29  C   UNL     1       0.755  11.488   2.135  0.00  0.00    +0.121 A 
ATOM     30  C   UNL     1       1.004  11.949   3.420  0.00  0.00    +0.045 A 
ATOM     31  C   UNL     1       1.873  13.005   3.616  0.00  0.00    +0.004 A 
ENDBRANCH  25  29
ENDBRANCH  24  25
ENDBRANCH  23  24
ENDBRANCH  22  23
ENDBRANCH   1  22
TORSDOF 6
