REMARK  Name = ZINC65081224
REMARK  6 active torsions:
REMARK  status: ('A' for Active; 'I' for Inactive)
REMARK    1  A    between atoms: C_1  and  C_2
REMARK    2  A    between atoms: C_7  and  C_8
REMARK    3  A    between atoms: C_8  and  N_9
REMARK    4  A    between atoms: C_10  and  C_12
REMARK    5  A    between atoms: C_24  and  C_34
REMARK    6  A    between atoms: N_26  and  C_27
REMARK                            x       y       z     vdW  Elec       q    Type
REMARK                         _______ _______ _______ _____ _____    ______ ____
ROOT
ATOM      1  C   UNL     1      -2.982   1.611   4.282  0.00  0.00    +0.092 C 
ATOM      2  C   UNL     1      -2.980   2.368   5.613  0.00  0.00    +0.016 C 
ATOM      3  C   UNL     1      -4.398   2.848   5.930  0.00  0.00    +0.020 C 
ATOM      4  C   UNL     1      -5.325   1.635   6.064  0.00  0.00    +0.107 C 
ATOM      5  N   UNL     1      -5.222   0.824   4.844  0.00  0.00    -0.309 N 
ATOM      6  C   UNL     1      -3.893   0.385   4.397  0.00  0.00    +0.119 C 
ATOM      7  C   UNL     1      -6.354   0.479   4.130  0.00  0.00    +0.164 A 
ATOM      8  N   UNL     1      -7.612   0.782   4.372  0.00  0.00    -0.205 NA
ATOM      9  C   UNL     1      -8.612   0.372   3.582  0.00  0.00    +0.173 A 
ATOM     10  C   UNL     1      -8.256  -0.402   2.474  0.00  0.00    +0.082 A 
ATOM     11  S   UNL     1      -6.489  -0.488   2.632  0.00  0.00    -0.049 S 
ATOM     12  C   UNL     1      -9.398  -0.740   1.767  0.00  0.00    +0.076 A 
ATOM     13  N   UNL     1     -10.432  -0.219   2.376  0.00  0.00    -0.169 NA
ATOM     14  N   UNL     1      -9.994   0.478   3.505  0.00  0.00    -0.213 N 
ATOM     15  C   UNL     1      -9.441  -1.568   0.508  0.00  0.00    +0.069 C 
ENDROOT
BRANCH  14  16
ATOM     16  C   UNL     1     -10.813   1.169   4.407  0.00  0.00    +0.070 A 
ATOM     17  C   UNL     1     -10.488   1.201   5.758  0.00  0.00    +0.028 A 
ATOM     18  C   UNL     1     -11.296   1.882   6.646  0.00  0.00    +0.005 A 
ATOM     19  C   UNL     1     -12.429   2.533   6.194  0.00  0.00    +0.038 A 
ATOM     20  C   UNL     1     -12.757   2.503   4.849  0.00  0.00    +0.125 A 
ATOM     21  C   UNL     1     -11.947   1.828   3.954  0.00  0.00    +0.066 A 
ATOM     22  F   UNL     1     -13.865   3.140   4.410  0.00  0.00    -0.205 F 
ENDBRANCH  14  16
BRANCH   1  24
ATOM     23  N   UNL     1      -1.338   0.477   2.823  0.00  0.00    -0.311 N 
ATOM     24  C   UNL     1      -1.579   1.167   3.955  0.00  0.00    +0.218 C 
ATOM     25  O   UNL     1      -0.668   1.431   4.710  0.00  0.00    -0.275 OA
ATOM     26  H   UNL     1      -2.067   0.266   2.219  0.00  0.00    +0.149 HD
BRANCH  23  27
ATOM     27  C   UNL     1       0.025   0.045   2.504  0.00  0.00    +0.139 C 
BRANCH  27  34
ATOM     28  C   UNL     1      -0.018   1.503   0.010  0.00  0.00    +0.044 C 
ATOM     29  C   UNL     1       0.002  -0.004   0.002  0.00  0.00    -0.046 A 
ATOM     30  C   UNL     1       0.006  -0.689  -1.199  0.00  0.00    +0.003 A 
ATOM     31  C   UNL     1       0.025  -2.071  -1.207  0.00  0.00    +0.000 A 
ATOM     32  C   UNL     1       0.040  -2.768  -0.013  0.00  0.00    +0.000 A 
ATOM     33  C   UNL     1       0.037  -2.084   1.188  0.00  0.00    +0.005 A 
ATOM     34  C   UNL     1       0.023  -0.702   1.195  0.00  0.00    -0.027 A 
ENDBRANCH  27  34
ENDBRANCH  23  27
ENDBRANCH   1  24
TORSDOF 4
