REMARK  Name = ZINC30961462
REMARK  13 active torsions:
REMARK  status: ('A' for Active; 'I' for Inactive)
REMARK    1  A    between atoms: C_1  and  C_2
REMARK    2  A    between atoms: C_2  and  C_3
REMARK    3  A    between atoms: C_2  and  C_4
REMARK    4  A    between atoms: C_4  and  C_6
REMARK    5  A    between atoms: C_4  and  N_23
REMARK    6  A    between atoms: N_8  and  N_9
REMARK    7  A    between atoms: C_10  and  C_11
REMARK    8  A    between atoms: C_13  and  C_20
REMARK    9  A    between atoms: C_14  and  O_19
REMARK   10  A    between atoms: C_15  and  O_17
REMARK   11  A    between atoms: O_17  and  C_18
REMARK   12  A    between atoms: C_20  and  C_21
REMARK   13  A    between atoms: C_24  and  C_26
REMARK                            x       y       z     vdW  Elec       q    Type
REMARK                         _______ _______ _______ _____ _____    ______ ____
ROOT
ATOM      1  C   UNL     1      -0.873  -0.291   0.289  0.00  0.00    +0.253 C 
ATOM      2  O   UNL     1      -0.940  -1.274   0.996  0.00  0.00    -0.272 OA
ATOM      3  N   UNL     1      -1.858  -0.028  -0.593  0.00  0.00    -0.205 N 
ATOM      4  H   UNL     1      -1.842   0.907  -1.173  0.00  0.00    +0.177 HD
ENDROOT
BRANCH   3   5
ATOM      5  N   UNL     1      -2.902  -0.944  -0.771  0.00  0.00    -0.188 NA
ATOM      6  C   UNL     1      -3.776  -0.757  -1.712  0.00  0.00    +0.138 C 
BRANCH   6   7
ATOM      7  C   UNL     1      -3.429   0.060  -2.889  0.00  0.00    -0.002 A 
ATOM      8  C   UNL     1      -2.107   0.462  -3.097  0.00  0.00    +0.017 A 
ATOM      9  C   UNL     1      -1.784   1.226  -4.199  0.00  0.00    +0.002 A 
ATOM     10  C   UNL     1      -2.768   1.597  -5.103  0.00  0.00    +0.162 A 
ATOM     11  C   UNL     1      -4.088   1.200  -4.902  0.00  0.00    +0.162 A 
ATOM     12  C   UNL     1      -4.419   0.429  -3.803  0.00  0.00    +0.059 A 
BRANCH  11  13
ATOM     13  O   UNL     1      -5.051   1.566  -5.790  0.00  0.00    -0.491 OA
ATOM     14  C   UNL     1      -6.398   1.214  -5.468  0.00  0.00    +0.277 C 
ENDBRANCH  11  13
BRANCH  10  15
ATOM     15  O   UNL     1      -2.444   2.349  -6.187  0.00  0.00    -0.503 OA
ATOM     16  H   UNL     1      -3.224   2.644  -6.905  0.00  0.00    +0.292 HD
ENDBRANCH  10  15
BRANCH   9  17
ATOM     17  C   UNL     1      -0.357   1.659  -4.421  0.00  0.00    +0.065 C 
BRANCH  17  18
ATOM     18  C   UNL     1      -0.160   3.043  -3.859  0.00  0.00    -0.030 C 
ATOM     19  C   UNL     1       0.744   3.252  -2.933  0.00  0.00    +0.004 C 
ENDBRANCH  17  18
ENDBRANCH   9  17
ENDBRANCH   6   7
ENDBRANCH   3   5
BRANCH   1  20
ATOM     20  C   UNL     1       0.310   0.636   0.396  0.00  0.00    +0.163 C 
BRANCH  20  21
ATOM     21  N   UNL     1       1.430  -0.072   1.021  0.00  0.00    -0.300 N 
ATOM     22  C   UNL     1       2.696   0.326   0.784  0.00  0.00    +0.245 C 
ATOM     23  O   UNL     1       2.908   1.273   0.052  0.00  0.00    -0.270 OA
ATOM     24  H   UNL     1       1.238  -0.929   1.683  0.00  0.00    +0.150 HD
BRANCH  22  25
ATOM     25  C   UNL     1       3.826  -0.388   1.414  0.00  0.00    +0.038 A 
ATOM     26  C   UNL     1       3.585  -1.473   2.260  0.00  0.00    +0.014 A 
ATOM     27  C   UNL     1       4.643  -2.139   2.841  0.00  0.00    +0.022 A 
ATOM     28  C   UNL     1       5.943  -1.728   2.596  0.00  0.00    +0.059 A 
ATOM     29  C   UNL     1       6.188  -0.649   1.762  0.00  0.00    +0.060 A 
ATOM     30  C   UNL     1       5.137   0.022   1.170  0.00  0.00    +0.034 A 
ATOM     31 CL   UNL     1       7.821  -0.141   1.460  0.00  0.00    -0.082 Cl
ATOM     32 CL   UNL     1       7.269  -2.568   3.337  0.00  0.00    -0.082 Cl
ENDBRANCH  22  25
ENDBRANCH  20  21
BRANCH  20  34
ATOM     33  C   UNL     1       1.159   2.746   1.431  0.00  0.00    +0.009 C 
ATOM     34  C   UNL     1      -0.067   1.848   1.250  0.00  0.00    +0.012 C 
ATOM     35  C   UNL     1      -1.179   2.636   0.555  0.00  0.00    +0.009 C 
ENDBRANCH  20  34
ENDBRANCH   1  20
TORSDOF 10
