REMARK  Name = ZINC02335664
REMARK  9 active torsions:
REMARK  status: ('A' for Active; 'I' for Inactive)
REMARK    1  A    between atoms: C_1  and  C_2
REMARK    2  A    between atoms: C_2  and  C_3
REMARK    3  A    between atoms: C_2  and  C_4
REMARK    4  A    between atoms: C_2  and  C_5
REMARK    5  A    between atoms: C_10  and  N_11
REMARK    6  A    between atoms: C_12  and  C_14
REMARK    7  A    between atoms: C_14  and  S_15
REMARK    8  A    between atoms: S_15  and  C_16
REMARK    9  A    between atoms: N_29  and  C_30
REMARK                            x       y       z     vdW  Elec       q    Type
REMARK                         _______ _______ _______ _____ _____    ______ ____
ROOT
ATOM      1  S   UNL     1      -2.832   2.189  -0.388  0.00  0.00    -0.078 S 
ENDROOT
BRANCH   1   2
ATOM      2  C   UNL     1      -1.962   2.648   1.074  0.00  0.00    +0.173 A 
ATOM      3  N   UNL     1      -2.636   3.042   2.135  0.00  0.00    -0.216 NA
ATOM      4  C   UNL     1      -2.005   3.398   3.248  0.00  0.00    +0.117 A 
ATOM      5  C   UNL     1      -0.605   3.370   3.355  0.00  0.00    +0.076 A 
ATOM      6  C   UNL     1      -0.053   3.792   4.644  0.00  0.00    -0.023 A 
ATOM      7  C   UNL     1      -0.934   4.163   5.594  0.00  0.00    -0.004 A 
ATOM      8  S   UNL     1      -2.528   3.977   4.843  0.00  0.00    -0.073 S 
ATOM      9  C   UNL     1      -0.626   4.631   6.984  0.00  0.00    +0.043 C 
ATOM     10  C   UNL     1       0.834   4.276   7.303  0.00  0.00    +0.005 C 
ATOM     11  C   UNL     1       1.713   4.714   6.128  0.00  0.00    +0.005 C 
ATOM     12  C   UNL     1       1.448   3.817   4.918  0.00  0.00    +0.037 C 
ATOM     13  C   UNL     1       0.101   2.933   2.189  0.00  0.00    +0.263 A 
ATOM     14  O   UNL     1       1.319   2.876   2.189  0.00  0.00    -0.267 OA
ATOM     15  N   UNL     1      -0.599   2.586   1.093  0.00  0.00    -0.290 N 
ATOM     16  C   UNL     1       0.117   2.138  -0.104  0.00  0.00    +0.154 C 
ENDBRANCH   1   2
BRANCH   1  17
ATOM     17  C   UNL     1      -4.535   2.464   0.161  0.00  0.00    +0.173 C 
BRANCH  17  19
ATOM     18  N   UNL     1      -6.814   2.256  -0.778  0.00  0.00    -0.285 N 
ATOM     19  C   UNL     1      -5.485   2.127  -0.959  0.00  0.00    +0.227 C 
ATOM     20  O   UNL     1      -5.053   1.738  -2.024  0.00  0.00    -0.275 OA
ATOM     21  H   UNL     1      -7.164   2.482   0.098  0.00  0.00    +0.155 HD
BRANCH  18  27
ATOM     22  C   UNL     1      -9.047   2.307  -1.697  0.00  0.00    -0.021 A 
ATOM     23  C   UNL     1      -9.908   2.117  -2.760  0.00  0.00    +0.006 A 
ATOM     24  C   UNL     1      -9.418   1.686  -3.979  0.00  0.00    +0.000 A 
ATOM     25  C   UNL     1      -8.066   1.444  -4.138  0.00  0.00    +0.002 A 
ATOM     26  C   UNL     1      -7.199   1.636  -3.080  0.00  0.00    +0.023 A 
ATOM     27  C   UNL     1      -7.689   2.064  -1.853  0.00  0.00    +0.037 A 
BRANCH  22  29
ATOM     28  C   UNL     1     -11.091   3.003  -0.477  0.00  0.00    +0.015 C 
ATOM     29  C   UNL     1      -9.581   2.778  -0.368  0.00  0.00    -0.011 C 
ATOM     30  C   UNL     1      -9.299   1.719   0.699  0.00  0.00    +0.015 C 
ATOM     31  C   UNL     1      -8.896   4.089   0.021  0.00  0.00    +0.015 C 
ENDBRANCH  22  29
ENDBRANCH  18  27
ENDBRANCH  17  19
ENDBRANCH   1  17
TORSDOF 5
