REMARK  Name = ZINC48135041
REMARK  12 active torsions:
REMARK  status: ('A' for Active; 'I' for Inactive)
REMARK    1  A    between atoms: C_1  and  C_2
REMARK    2  A    between atoms: C_5  and  N_8
REMARK    3  A    between atoms: N_8  and  C_9
REMARK    4  A    between atoms: C_9  and  C_10
REMARK    5  A    between atoms: C_9  and  C_11
REMARK    6  A    between atoms: C_9  and  C_12
REMARK    7  A    between atoms: C_18  and  C_21
REMARK    8  A    between atoms: C_21  and  N_22
REMARK    9  A    between atoms: C_24  and  C_27
REMARK   10  A    between atoms: C_27  and  C_28
REMARK   11  A    between atoms: C_27  and  C_29
REMARK   12  A    between atoms: C_27  and  N_30
REMARK                            x       y       z     vdW  Elec       q    Type
REMARK                         _______ _______ _______ _____ _____    ______ ____
ROOT
ATOM      1  C   UNL     1       0.215  -6.303   1.037  0.00  0.00    +0.238 C 
ATOM      2  O   UNL     1       0.772  -7.025   1.837  0.00  0.00    -0.273 OA
ATOM      3  N   UNL     1      -0.270  -6.816  -0.111  0.00  0.00    -0.299 N 
ATOM      4  C   UNL     1      -0.828  -5.937  -1.147  0.00  0.00    +0.108 C 
ATOM      5  C   UNL     1      -0.126  -6.233  -2.476  0.00  0.00    +0.019 C 
ATOM      6  C   UNL     1      -0.243  -7.727  -2.789  0.00  0.00    +0.008 C 
ATOM      7  C   UNL     1       0.445  -8.536  -1.688  0.00  0.00    +0.028 C 
ATOM      8  C   UNL     1      -0.245  -8.265  -0.353  0.00  0.00    +0.113 C 
ENDROOT
BRANCH   1   9
ATOM      9  C   UNL     1       0.067  -4.831   1.326  0.00  0.00    +0.103 C 
ATOM     10  C   UNL     1       1.130  -4.049   0.552  0.00  0.00    +0.041 C 
ATOM     11  C   UNL     1       0.244  -4.586   2.826  0.00  0.00    +0.041 C 
BRANCH   9  12
ATOM     12  N   UNL     1      -1.266  -4.385   0.912  0.00  0.00    -0.331 N 
ATOM     13  H   UNL     1      -1.358  -3.703   0.229  0.00  0.00    +0.147 HD
BRANCH  12  18
ATOM     14  C   UNL     1      -5.883  -6.643   3.308  0.00  0.00    +0.044 C 
ATOM     15  C   UNL     1      -4.656  -6.043   2.671  0.00  0.00    -0.050 A 
ATOM     16  C   UNL     1      -4.780  -4.960   1.819  0.00  0.00    +0.005 A 
ATOM     17  C   UNL     1      -3.658  -4.408   1.234  0.00  0.00    +0.023 A 
ATOM     18  C   UNL     1      -2.403  -4.941   1.503  0.00  0.00    +0.028 A 
ATOM     19  C   UNL     1      -2.282  -6.028   2.359  0.00  0.00    +0.023 A 
ATOM     20  C   UNL     1      -3.408  -6.572   2.945  0.00  0.00    +0.005 A 
ENDBRANCH  12  18
ENDBRANCH   9  12
ENDBRANCH   1   9
BRANCH   7  21
ATOM     21  C   UNL     1       0.357 -10.027  -2.018  0.00  0.00    +0.150 C 
BRANCH  21  22
ATOM     22  N   UNL     1       1.121 -10.303  -3.237  0.00  0.00    -0.251 N 
ATOM     23  C   UNL     1       2.110 -11.218  -3.363  0.00  0.00    +0.132 A 
ATOM     24  C   UNL     1       2.535 -11.140  -4.646  0.00  0.00    +0.071 A 
ATOM     25  N   UNL     1       1.795 -10.194  -5.234  0.00  0.00    -0.136 NA
ATOM     26  N   UNL     1       0.963  -9.722  -4.375  0.00  0.00    -0.065 NA
BRANCH  24  27
ATOM     27  C   UNL     1       3.627 -11.958  -5.285  0.00  0.00    -0.030 C 
ATOM     28  C   UNL     1       3.782 -11.547  -6.750  0.00  0.00    -0.004 C 
ATOM     29  C   UNL     1       4.945 -11.716  -4.545  0.00  0.00    -0.004 C 
BRANCH  27  30
ATOM     30  N   UNL     1       3.279 -13.383  -5.210  0.00  0.00    +0.385 N 
ATOM     31  H   UNL     1       2.410 -13.543  -5.698  0.00  0.00    -0.089 HD
ATOM     32  H   UNL     1       4.011 -13.931  -5.638  0.00  0.00    -0.089 HD
ATOM     33  H   UNL     1       3.177 -13.655  -4.244  0.00  0.00    -0.089 HD
ENDBRANCH  27  30
ENDBRANCH  24  27
ENDBRANCH  21  22
ENDBRANCH   7  21
TORSDOF 7
