REMARK  Name = ZINC12891773
REMARK  12 active torsions:
REMARK  status: ('A' for Active; 'I' for Inactive)
REMARK    1  A    between atoms: C_1  and  C_2
REMARK    2  A    between atoms: C_2  and  N_3
REMARK    3  A    between atoms: C_5  and  C_17
REMARK    4  A    between atoms: N_19  and  C_20
REMARK    5  A    between atoms: C_20  and  C_22
REMARK    6  A    between atoms: C_20  and  C_25
REMARK    7  A    between atoms: C_22  and  C_23
REMARK    8  A    between atoms: C_22  and  C_24
REMARK    9  A    between atoms: N_27  and  C_28
REMARK   10  A    between atoms: C_28  and  C_29
REMARK   11  A    between atoms: C_34  and  C_35
REMARK   12  A    between atoms: C_34  and  N_68
REMARK                            x       y       z     vdW  Elec       q    Type
REMARK                         _______ _______ _______ _____ _____    ______ ____
ROOT
ATOM      1  C   UNL     1      -2.819  -2.867  -0.477  0.00  0.00    +0.250 C 
ATOM      2  O   UNL     1      -1.806  -3.539  -0.513  0.00  0.00    -0.270 OA
ATOM      3  N   UNL     1      -2.733  -1.524  -0.395  0.00  0.00    -0.300 N 
ATOM      4  H   UNL     1      -3.541  -0.988  -0.366  0.00  0.00    +0.150 HD
ENDROOT
BRANCH   1   7
ATOM      5  N   UNL     1      -6.509  -3.325  -0.523  0.00  0.00    -0.346 N 
ATOM      6  C   UNL     1      -5.292  -2.767  -0.477  0.00  0.00    +0.103 A 
ATOM      7  C   UNL     1      -4.137  -3.518  -0.523  0.00  0.00    +0.100 A 
ATOM      8  C   UNL     1      -4.244  -4.983  -0.613  0.00  0.00    +0.202 A 
ATOM      9  O   UNL     1      -3.252  -5.691  -0.652  0.00  0.00    -0.286 OA
ATOM     10  C   UNL     1      -5.599  -5.559  -0.653  0.00  0.00    +0.050 A 
ATOM     11  C   UNL     1      -6.703  -4.688  -0.606  0.00  0.00    +0.056 A 
ATOM     12  C   UNL     1      -7.989  -5.216  -0.644  0.00  0.00    +0.076 A 
ATOM     13  C   UNL     1      -8.176  -6.584  -0.726  0.00  0.00    +0.168 A 
ATOM     14  C   UNL     1      -7.075  -7.447  -0.772  0.00  0.00    +0.167 A 
ATOM     15  C   UNL     1      -5.794  -6.939  -0.736  0.00  0.00    +0.063 A 
ATOM     16  O   UNL     1      -7.534  -8.731  -0.850  0.00  0.00    -0.453 OA
ATOM     17  C   UNL     1      -8.912  -8.672  -0.438  0.00  0.00    +0.466 C 
ATOM     18  O   UNL     1      -9.315  -7.332  -0.775  0.00  0.00    -0.453 OA
BRANCH   5  20
ATOM     19  C   UNL     1      -8.176  -2.333   0.966  0.00  0.00    +0.027 C 
ATOM     20  C   UNL     1      -7.684  -2.451  -0.478  0.00  0.00    +0.118 C 
ENDBRANCH   5  20
ENDBRANCH   1   7
BRANCH   3  21
ATOM     21  C   UNL     1      -1.421  -0.875  -0.349  0.00  0.00    +0.162 C 
BRANCH  21  22
ATOM     22  C   UNL     1      -1.546   0.463   0.334  0.00  0.00    +0.234 C 
ATOM     23  O   UNL     1      -2.636   0.978   0.463  0.00  0.00    -0.274 OA
ATOM     24  N   UNL     1      -0.445   1.089   0.796  0.00  0.00    -0.315 N 
ATOM     25  H   UNL     1       0.433   0.716   0.624  0.00  0.00    +0.149 HD
BRANCH  24  26
ATOM     26  C   UNL     1      -0.576   2.333   1.557  0.00  0.00    +0.089 C 
BRANCH  26  27
ATOM     27  C   UNL     1       0.793   2.743   2.104  0.00  0.00    -0.051 C 
ATOM     28  C   UNL     1       0.671   4.033   2.952  0.00  0.00    -0.016 C 
ATOM     29  C   UNL     1       1.911   3.916   3.880  0.00  0.00    -0.020 C 
ATOM     30  C   UNL     1       2.009   2.398   4.142  0.00  0.00    -0.078 C 
ATOM     31  N   UNL     1       1.285   1.723   3.052  0.00  0.00    +0.382 N 
ATOM     32  H   UNL     1       0.487   1.209   3.442  0.00  0.00    -0.081 HD
BRANCH  31  33
ATOM     33  C   UNL     1       2.184   0.767   2.355  0.00  0.00    -0.082 C 
ATOM     34  C   UNL     1       2.753  -0.226   3.370  0.00  0.00    -0.017 C 
ENDBRANCH  31  33
ENDBRANCH  26  27
ENDBRANCH  24  26
ENDBRANCH  21  22
BRANCH  21  35
ATOM     35  C   UNL     1      -0.901  -0.674  -1.774  0.00  0.00    +0.012 C 
ATOM     36  C   UNL     1      -0.614  -2.036  -2.409  0.00  0.00    +0.009 C 
ATOM     37  C   UNL     1      -1.955   0.063  -2.602  0.00  0.00    +0.009 C 
ENDBRANCH  21  35
ENDBRANCH   3  21
TORSDOF 8
