REMARK  Name = ZINC03329807
REMARK  5 active torsions:
REMARK  status: ('A' for Active; 'I' for Inactive)
REMARK    1  A    between atoms: C_4  and  N_58
REMARK    2  A    between atoms: C_7  and  C_8
REMARK    3  A    between atoms: C_7  and  N_58
REMARK    4  A    between atoms: N_10  and  C_11
REMARK    5  A    between atoms: N_10  and  C_17
REMARK                            x       y       z     vdW  Elec       q    Type
REMARK                         _______ _______ _______ _____ _____    ______ ____
ROOT
ATOM      1  C   UNL     1      -0.246   0.580  -4.805  0.00  0.00    +0.199 C 
ATOM      2  O   UNL     1       0.953   0.404  -4.758  0.00  0.00    -0.278 OA
ATOM      3  N   UNL     1      -0.921   0.322  -5.942  0.00  0.00    -0.297 N 
ENDROOT
BRANCH   3   4
ATOM      4  C   UNL     1      -2.348   0.640  -6.035  0.00  0.00    +0.076 C 
ATOM      5  C   UNL     1      -3.148  -0.651  -6.218  0.00  0.00    +0.022 C 
ATOM      6  C   UNL     1      -4.638  -0.319  -6.316  0.00  0.00    +0.002 C 
ATOM      7  C   UNL     1      -4.878   0.604  -7.512  0.00  0.00    +0.000 C 
ATOM      8  C   UNL     1      -4.079   1.895  -7.329  0.00  0.00    +0.002 C 
ATOM      9  C   UNL     1      -2.588   1.563  -7.232  0.00  0.00    +0.022 C 
ENDBRANCH   3   4
BRANCH   3  10
ATOM     10  C   UNL     1      -0.229  -0.277  -7.086  0.00  0.00    +0.076 C 
ATOM     11  C   UNL     1       0.345  -1.636  -6.680  0.00  0.00    +0.022 C 
ATOM     12  C   UNL     1       1.068  -2.262  -7.874  0.00  0.00    +0.002 C 
ATOM     13  C   UNL     1       2.206  -1.341  -8.320  0.00  0.00    +0.000 C 
ATOM     14  C   UNL     1       1.633   0.018  -8.726  0.00  0.00    +0.002 C 
ATOM     15  C   UNL     1       0.909   0.644  -7.532  0.00  0.00    +0.022 C 
ENDBRANCH   3  10
BRANCH   1  16
ATOM     16  C   UNL     1      -0.981   1.087  -3.591  0.00  0.00    +0.015 C 
BRANCH  16  17
ATOM     17  N   UNL     1      -0.043   1.163  -2.455  0.00  0.00    +0.387 N 
ATOM     18  H   UNL     1       0.338   0.228  -2.267  0.00  0.00    -0.085 HD
ATOM     19  H   UNL     1       0.724   1.803  -2.691  0.00  0.00    -0.085 HD
BRANCH  17  23
ATOM     20  C   UNL     1      -0.721   3.204   1.238  0.00  0.00    -0.000 C 
ATOM     21  C   UNL     1      -0.708   1.674   1.248  0.00  0.00    -0.002 C 
ATOM     22  C   UNL     1       0.004   1.162  -0.006  0.00  0.00    -0.016 C 
ATOM     23  C   UNL     1      -0.736   1.657  -1.250  0.00  0.00    -0.071 C 
ATOM     24  C   UNL     1      -0.750   3.187  -1.260  0.00  0.00    -0.016 C 
ATOM     25  C   UNL     1      -1.461   3.699  -0.006  0.00  0.00    -0.002 C 
ENDBRANCH  17  23
ENDBRANCH  16  17
ENDBRANCH   1  16
TORSDOF 5
