REMARK  Name = ZINC41771125
REMARK  8 active torsions:
REMARK  status: ('A' for Active; 'I' for Inactive)
REMARK    1  A    between atoms: C_1  and  C_2
REMARK    2  A    between atoms: C_2  and  C_3
REMARK    3  A    between atoms: C_3  and  C_4
REMARK    4  A    between atoms: C_4  and  N_5
REMARK    5  A    between atoms: N_10  and  C_13
REMARK    6  A    between atoms: C_13  and  C_14
REMARK    7  A    between atoms: C_23  and  C_25
REMARK    8  A    between atoms: C_25  and  C_26
REMARK                            x       y       z     vdW  Elec       q    Type
REMARK                         _______ _______ _______ _____ _____    ______ ____
ROOT
ATOM      1  C   UNL     1       5.094  -2.301  -4.816  0.00  0.00    -0.012 A 
ATOM      2  C   UNL     1       5.916  -1.549  -4.042  0.00  0.00    +0.098 A 
ATOM      3  C   UNL     1       6.545  -0.409  -4.587  0.00  0.00    +0.338 A 
ATOM      4  O   UNL     1       7.280   0.258  -3.881  0.00  0.00    -0.245 OA
ATOM      5  O   UNL     1       6.352  -0.040  -5.863  0.00  0.00    -0.422 OA
ATOM      6  C   UNL     1       5.547  -0.745  -6.687  0.00  0.00    +0.140 A 
ATOM      7  C   UNL     1       4.894  -1.895  -6.211  0.00  0.00    +0.024 A 
ATOM      8  C   UNL     1       4.063  -2.630  -7.063  0.00  0.00    +0.032 A 
ATOM      9  C   UNL     1       3.896  -2.221  -8.368  0.00  0.00    +0.045 A 
ATOM     10  C   UNL     1       4.546  -1.088  -8.837  0.00  0.00    -0.026 A 
ATOM     11  C   UNL     1       5.359  -0.348  -8.004  0.00  0.00    +0.052 A 
ATOM     12 CL   UNL     1       2.866  -3.129  -9.431  0.00  0.00    -0.083 Cl
ENDROOT
BRANCH  10  13
ATOM     13  C   UNL     1       4.352  -0.655 -10.268  0.00  0.00    +0.033 C 
ATOM     14  C   UNL     1       5.241  -1.501 -11.181  0.00  0.00    +0.009 C 
ENDBRANCH  10  13
BRANCH   1  15
ATOM     15  C   UNL     1       4.411  -3.524  -4.260  0.00  0.00    +0.154 C 
BRANCH  15  21
ATOM     16  N   UNL     1       1.425  -2.500  -2.470  0.00  0.00    -0.218 N 
ATOM     17  C   UNL     1       0.837  -2.757  -3.659  0.00  0.00    +0.310 C 
ATOM     18  O   UNL     1      -0.339  -2.647  -3.936  0.00  0.00    -0.264 OA
ATOM     19  C   UNL     1       1.945  -3.209  -4.563  0.00  0.00    +0.310 C 
ATOM     20  O   UNL     1       1.855  -3.541  -5.726  0.00  0.00    -0.264 OA
ATOM     21  N   UNL     1       3.064  -3.168  -3.808  0.00  0.00    -0.213 N 
ATOM     22  C   UNL     1       2.741  -2.742  -2.576  0.00  0.00    +0.318 C 
ATOM     23  O   UNL     1       3.539  -2.596  -1.671  0.00  0.00    -0.252 OA
BRANCH  16  24
ATOM     24  C   UNL     1       0.739  -2.027  -1.265  0.00  0.00    +0.118 C 
BRANCH  24  25
ATOM     25  C   UNL     1       0.718  -0.497  -1.257  0.00  0.00    +0.019 C 
BRANCH  25  27
ATOM     26  C   UNL     1      -0.019   1.526   0.010  0.00  0.00    +0.004 C 
ATOM     27  C   UNL     1       0.002  -0.004   0.002  0.00  0.00    -0.002 C 
ENDBRANCH  25  27
ENDBRANCH  24  25
ENDBRANCH  16  24
ENDBRANCH  15  21
ENDBRANCH   1  15
TORSDOF 6
