REMARK  Name = ZINC36095455
REMARK  13 active torsions:
REMARK  status: ('A' for Active; 'I' for Inactive)
REMARK    1  A    between atoms: C_1  and  C_2
REMARK    2  A    between atoms: C_2  and  N_3
REMARK    3  A    between atoms: N_3  and  C_4
REMARK    4  A    between atoms: N_3  and  C_26
REMARK    5  A    between atoms: C_4  and  C_5
REMARK    6  A    between atoms: C_5  and  C_6
REMARK    7  A    between atoms: C_6  and  N_7
REMARK    8  A    between atoms: N_7  and  C_8
REMARK    9  A    between atoms: C_14  and  C_17
REMARK   10  A    between atoms: C_17  and  O_19
REMARK   11  A    between atoms: O_19  and  C_20
REMARK   12  A    between atoms: C_20  and  C_21
REMARK   13  A    between atoms: C_24  and  O_25
REMARK                            x       y       z     vdW  Elec       q    Type
REMARK                         _______ _______ _______ _____ _____    ______ ____
ROOT
ATOM      1  C   UNL     1       5.501  -4.206  -0.249  0.00  0.00    +0.101 C 
ATOM      2  C   UNL     1       6.120  -5.496   0.106  0.00  0.00    +0.114 C 
ATOM      3  N   UNL     1       5.696  -6.676   0.460  0.00  0.00    -0.365 N 
ATOM      4  C   UNL     1       4.258  -6.952   0.575  0.00  0.00    +0.116 C 
ATOM      5  C   UNL     1       3.922  -8.181  -0.276  0.00  0.00    +0.022 C 
ATOM      6  C   UNL     1       4.821  -9.347   0.143  0.00  0.00    +0.018 C 
ATOM      7  C   UNL     1       6.286  -8.977  -0.100  0.00  0.00    +0.117 C 
ATOM      8  C   UNL     1       6.648  -7.759   0.746  0.00  0.00    +0.131 C 
ATOM      9  C   UNL     1       7.439  -4.855  -0.118  0.00  0.00    +0.247 C 
ATOM     10  O   UNL     1       8.601  -5.207  -0.049  0.00  0.00    -0.282 OA
ATOM     11  C   UNL     1       6.739  -3.618  -0.462  0.00  0.00    +0.189 C 
ENDROOT
BRANCH   1  12
ATOM     12  N   UNL     1       4.207  -3.762  -0.341  0.00  0.00    -0.339 N 
ATOM     13  H   UNL     1       3.473  -4.363  -0.139  0.00  0.00    +0.146 HD
BRANCH  12  14
ATOM     14  C   UNL     1       3.933  -2.379  -0.741  0.00  0.00    +0.103 C 
BRANCH  14  15
ATOM     15  C   UNL     1       2.421  -2.145  -0.763  0.00  0.00    +0.037 C 
BRANCH  15  16
ATOM     16  C   UNL     1       2.135  -0.701  -1.182  0.00  0.00    +0.106 C 
BRANCH  16  17
ATOM     17  N   UNL     1       0.688  -0.476  -1.203  0.00  0.00    -0.330 N 
BRANCH  17  18
ATOM     18  C   UNL     1      -0.038  -0.713  -2.373  0.00  0.00    +0.030 A 
ATOM     19  C   UNL     1       0.609  -1.166  -3.515  0.00  0.00    +0.023 A 
ATOM     20  C   UNL     1      -0.112  -1.399  -4.669  0.00  0.00    +0.002 A 
ATOM     21  C   UNL     1      -1.477  -1.181  -4.689  0.00  0.00    +0.000 A 
ATOM     22  C   UNL     1      -2.125  -0.730  -3.554  0.00  0.00    +0.002 A 
ATOM     23  C   UNL     1      -1.411  -0.500  -2.395  0.00  0.00    +0.023 A 
ENDBRANCH  17  18
BRANCH  17  25
ATOM     24  C   UNL     1      -0.019   1.526   0.010  0.00  0.00    +0.024 C 
ATOM     25  C   UNL     1       0.002  -0.004   0.002  0.00  0.00    +0.102 C 
ENDBRANCH  17  25
ENDBRANCH  16  17
ENDBRANCH  15  16
ENDBRANCH  14  15
ENDBRANCH  12  14
ENDBRANCH   1  12
BRANCH   7  26
ATOM     26  C   UNL     1       7.168 -10.138   0.281  0.00  0.00    +0.312 C 
ATOM     27  O   UNL     1       8.003 -10.004   1.144  0.00  0.00    -0.250 OA
BRANCH  26  28
ATOM     28  O   UNL     1       7.026 -11.320  -0.337  0.00  0.00    -0.465 OA
BRANCH  28  29
ATOM     29  C   UNL     1       7.896 -12.377   0.075  0.00  0.00    +0.229 C 
ATOM     30  C   UNL     1       7.587 -13.637  -0.736  0.00  0.00    +0.048 C 
ENDBRANCH  28  29
ENDBRANCH  26  28
ENDBRANCH   7  26
BRANCH  11  31
ATOM     31  O   UNL     1       7.143  -2.382  -0.841  0.00  0.00    -0.502 OA
ATOM     32  H   UNL     1       8.103  -2.283  -0.900  0.00  0.00    +0.292 HD
ENDBRANCH  11  31
TORSDOF 11
