REMARK  Name = ZINC39632021
REMARK  15 active torsions:
REMARK  status: ('A' for Active; 'I' for Inactive)
REMARK    1  A    between atoms: C_1  and  C_2
REMARK    2  A    between atoms: C_2  and  C_3
REMARK    3  A    between atoms: C_3  and  C_5
REMARK    4  A    between atoms: C_3  and  C_6
REMARK    5  A    between atoms: C_6  and  C_7
REMARK    6  A    between atoms: C_11  and  C_20
REMARK    7  A    between atoms: N_22  and  C_23
REMARK    8  A    between atoms: C_23  and  C_25
REMARK    9  A    between atoms: C_23  and  C_26
REMARK   10  A    between atoms: C_26  and  C_27
REMARK   11  A    between atoms: C_27  and  C_28
REMARK   12  A    between atoms: C_28  and  C_29
REMARK   13  A    between atoms: C_29  and  C_30
REMARK   14  A    between atoms: C_29  and  C_31
REMARK   15  A    between atoms: C_29  and  O_32
REMARK                            x       y       z     vdW  Elec       q    Type
REMARK                         _______ _______ _______ _____ _____    ______ ____
ROOT
ATOM      1  C   UNL     1      -2.944  -2.580  -0.267  0.00  0.00    +0.216 C 
ATOM      2  O   UNL     1      -3.890  -1.823  -0.205  0.00  0.00    -0.276 OA
ATOM      3  N   UNL     1      -3.150  -3.909  -0.369  0.00  0.00    -0.300 N 
ATOM      4  C   UNL     1      -2.131  -4.982  -0.449  0.00  0.00    +0.121 C 
ATOM      5  C   UNL     1      -2.705  -6.129   0.413  0.00  0.00    +0.100 C 
ATOM      6  C   UNL     1      -4.224  -5.891   0.423  0.00  0.00    -0.004 C 
ATOM      7  C   UNL     1      -4.446  -4.626  -0.419  0.00  0.00    +0.115 C 
ATOM      8  C   UNL     1      -4.714  -5.661   1.849  0.00  0.00    -0.010 C 
ATOM      9  C   UNL     1      -6.235  -5.483   1.839  0.00  0.00    -0.082 C 
ATOM     10  N   UNL     1      -6.865  -6.681   1.272  0.00  0.00    +0.379 N 
ATOM     11  C   UNL     1      -6.461  -6.843  -0.130  0.00  0.00    -0.082 C 
ATOM     12  C   UNL     1      -4.950  -7.078  -0.204  0.00  0.00    -0.010 C 
ATOM     13  H   UNL     1      -6.579  -7.492   1.799  0.00  0.00    -0.086 HD
ATOM     14  H   UNL     1      -7.869  -6.587   1.322  0.00  0.00    -0.086 HD
ENDROOT
BRANCH   5  15
ATOM     15  C   UNL     1      -2.385  -7.464  -0.210  0.00  0.00    +0.218 C 
ATOM     16  O   UNL     1      -2.305  -7.566  -1.416  0.00  0.00    -0.275 OA
ATOM     17  N   UNL     1      -2.188  -8.543   0.573  0.00  0.00    -0.312 N 
ATOM     18  H   UNL     1      -2.252  -8.461   1.537  0.00  0.00    +0.149 HD
BRANCH  17  19
ATOM     19  C   UNL     1      -1.876  -9.840  -0.033  0.00  0.00    +0.070 C 
ATOM     20  C   UNL     1      -0.371  -9.935  -0.290  0.00  0.00    +0.028 C 
BRANCH  19  21
ATOM     21  C   UNL     1      -2.303 -10.962   0.917  0.00  0.00    +0.022 C 
BRANCH  21  22
ATOM     22  C   UNL     1      -3.824 -10.944   1.077  0.00  0.00    +0.005 C 
BRANCH  22  23
ATOM     23  C   UNL     1      -4.250 -12.065   2.026  0.00  0.00    +0.034 C 
BRANCH  23  24
ATOM     24  C   UNL     1      -5.772 -12.048   2.186  0.00  0.00    +0.061 C 
ATOM     25  C   UNL     1      -6.187 -13.086   3.229  0.00  0.00    +0.041 C 
ATOM     26  C   UNL     1      -6.221 -10.658   2.642  0.00  0.00    +0.041 C 
BRANCH  24  27
ATOM     27  O   UNL     1      -6.386 -12.359   0.933  0.00  0.00    -0.389 OA
ATOM     28  H   UNL     1      -6.146 -13.228   0.583  0.00  0.00    +0.210 HD
ENDBRANCH  24  27
ENDBRANCH  23  24
ENDBRANCH  22  23
ENDBRANCH  21  22
ENDBRANCH  19  21
ENDBRANCH  17  19
ENDBRANCH   5  15
BRANCH   1  29
ATOM     29  C   UNL     1      -1.539  -2.036  -0.231  0.00  0.00    +0.099 C 
BRANCH  29  30
ATOM     30  C   UNL     1      -1.586  -0.511  -0.113  0.00  0.00    -0.006 C 
ATOM     31  C   UNL     1      -2.206  -0.122   1.230  0.00  0.00    +0.008 C 
BRANCH  30  33
ATOM     32  C   UNL     1      -0.222   1.579  -0.209  0.00  0.00    +0.004 C 
ATOM     33  C   UNL     1      -0.166   0.051  -0.201  0.00  0.00    +0.000 C 
ENDBRANCH  30  33
ENDBRANCH  29  30
ENDBRANCH   1  29
TORSDOF 10
