REMARK  Name = ZINC59336490
REMARK  7 active torsions:
REMARK  status: ('A' for Active; 'I' for Inactive)
REMARK    1  A    between atoms: C_1  and  C_2
REMARK    2  A    between atoms: C_2  and  C_3
REMARK    3  A    between atoms: C_9  and  C_12
REMARK    4  A    between atoms: C_12  and  O_14
REMARK    5  A    between atoms: O_14  and  C_15
REMARK    6  A    between atoms: C_15  and  C_16
REMARK    7  A    between atoms: C_24  and  C_26
REMARK                            x       y       z     vdW  Elec       q    Type
REMARK                         _______ _______ _______ _____ _____    ______ ____
ROOT
ATOM      1  C   UNL     1       3.025  -2.824   7.585  0.00  0.00    +0.253 C 
ATOM      2  O   UNL     1       2.774  -1.649   7.421  0.00  0.00    -0.272 OA
ATOM      3  N   UNL     1       3.729  -3.218   8.665  0.00  0.00    -0.296 N 
ATOM      4  C   UNL     1       4.046  -4.638   8.873  0.00  0.00    +0.127 C 
ATOM      5  C   UNL     1       5.565  -4.782   9.031  0.00  0.00    +0.127 C 
ATOM      6  N   UNL     1       6.030  -3.800  10.020  0.00  0.00    -0.292 N 
ATOM      7  C   UNL     1       5.713  -2.380   9.812  0.00  0.00    +0.127 C 
ATOM      8  C   UNL     1       4.199  -2.235   9.651  0.00  0.00    +0.127 C 
ATOM      9  C   UNL     1       6.734  -4.194  11.100  0.00  0.00    +0.282 C 
ATOM     10  O   UNL     1       7.198  -3.365  11.860  0.00  0.00    -0.267 OA
ENDROOT
BRANCH   9  11
ATOM     11  C   UNL     1       6.942  -5.623  11.358  0.00  0.00    +0.189 A 
ATOM     12  C   UNL     1       7.529  -6.160  12.468  0.00  0.00    +0.054 A 
ATOM     13  C   UNL     1       7.517  -7.554  12.296  0.00  0.00    +0.042 A 
ATOM     14  C   UNL     1       6.930  -7.802  11.104  0.00  0.00    +0.196 A 
ATOM     15  O   UNL     1       6.581  -6.636  10.545  0.00  0.00    -0.458 OA
ENDBRANCH   9  11
BRANCH   1  16
ATOM     16  C   UNL     1       2.550  -3.843   6.582  0.00  0.00    +0.327 C 
BRANCH  16  17
ATOM     17  O   UNL     1       1.832  -3.184   5.537  0.00  0.00    -0.455 OA
BRANCH  17  18
ATOM     18  C   UNL     1       1.338  -3.956   4.556  0.00  0.00    +0.312 C 
ATOM     19  O   UNL     1       1.510  -5.152   4.584  0.00  0.00    -0.250 OA
BRANCH  18  26
ATOM     20  C   UNL     1       0.598  -0.507   1.304  0.00  0.00    +0.215 C 
ATOM     21  O   UNL     1       1.063   0.284   2.098  0.00  0.00    -0.276 OA
ATOM     22  N   UNL     1       0.748  -1.831   1.505  0.00  0.00    -0.301 N 
ATOM     23  C   UNL     1       0.195  -2.800   0.549  0.00  0.00    +0.108 C 
ATOM     24  C   UNL     1      -0.688  -3.794   1.310  0.00  0.00    +0.020 C 
ATOM     25  C   UNL     1       0.121  -4.423   2.446  0.00  0.00    +0.018 C 
ATOM     26  C   UNL     1       0.570  -3.332   3.420  0.00  0.00    +0.115 C 
ATOM     27  C   UNL     1       1.472  -2.332   2.680  0.00  0.00    +0.122 C 
BRANCH  20  29
ATOM     28  C   UNL     1      -0.173   1.522   0.104  0.00  0.00    +0.013 C 
ATOM     29  C   UNL     1      -0.147  -0.008   0.093  0.00  0.00    +0.092 C 
ENDBRANCH  20  29
ENDBRANCH  18  26
ENDBRANCH  17  18
ENDBRANCH  16  17
ENDBRANCH   1  16
TORSDOF 6
