REMARK  Name = ZINC14197229
REMARK  8 active torsions:
REMARK  status: ('A' for Active; 'I' for Inactive)
REMARK    1  A    between atoms: C_1  and  C_2
REMARK    2  A    between atoms: C_2  and  C_4
REMARK    3  A    between atoms: C_2  and  O_24
REMARK    4  A    between atoms: N_9  and  C_12
REMARK    5  A    between atoms: C_12  and  C_14
REMARK    6  A    between atoms: C_12  and  C_21
REMARK    7  A    between atoms: O_24  and  C_25
REMARK    8  A    between atoms: C_28  and  C_31
REMARK                            x       y       z     vdW  Elec       q    Type
REMARK                         _______ _______ _______ _____ _____    ______ ____
ROOT
ATOM      1  C   UNL     1      -3.348  -2.904   0.135  0.00  0.00    +0.256 C 
ATOM      2  O   UNL     1      -2.959  -3.568  -0.802  0.00  0.00    -0.272 OA
ATOM      3  N   UNL     1      -3.623  -1.596  -0.034  0.00  0.00    -0.296 N 
ATOM      4  C   UNL     1      -3.389  -0.936  -1.327  0.00  0.00    +0.123 C 
ATOM      5  C   UNL     1      -2.563   0.332  -1.084  0.00  0.00    +0.104 C 
ATOM      6  N   UNL     1      -3.234   1.163  -0.075  0.00  0.00    -0.285 NA
ATOM      7  C   UNL     1      -3.310   0.472   1.219  0.00  0.00    +0.104 C 
ATOM      8  C   UNL     1      -4.167  -0.790   1.070  0.00  0.00    +0.123 C 
ENDROOT
BRANCH   1  10
ATOM      9  C   UNL     1      -2.460  -3.006   2.448  0.00  0.00    +0.062 C 
ATOM     10  C   UNL     1      -3.524  -3.543   1.489  0.00  0.00    +0.256 C 
BRANCH  10  11
ATOM     11  O   UNL     1      -3.385  -4.960   1.369  0.00  0.00    -0.480 OA
BRANCH  11  12
ATOM     12  C   UNL     1      -3.992  -5.721   2.316  0.00  0.00    +0.122 A 
ATOM     13  C   UNL     1      -4.005  -7.104   2.189  0.00  0.00    +0.047 A 
ATOM     14  C   UNL     1      -4.614  -7.880   3.150  0.00  0.00    +0.022 A 
ATOM     15  C   UNL     1      -5.230  -7.274   4.248  0.00  0.00    +0.052 A 
ATOM     16  C   UNL     1      -5.219  -5.881   4.369  0.00  0.00    +0.022 A 
ATOM     17  C   UNL     1      -4.603  -5.113   3.406  0.00  0.00    +0.047 A 
BRANCH  15  18
ATOM     18  C   UNL     1      -5.870  -8.076   5.246  0.00  0.00    +0.099 C 
ATOM     19  N   UNL     1      -6.378  -8.713   6.038  0.00  0.00    -0.191 NA
ENDBRANCH  15  18
ENDBRANCH  11  12
ENDBRANCH  10  11
ENDBRANCH   1  10
BRANCH   6  20
ATOM     20  C   UNL     1      -2.567   2.465   0.062  0.00  0.00    +0.174 C 
BRANCH  20  21
ATOM     21  C   UNL     1      -2.598   3.187  -1.261  0.00  0.00    -0.021 A 
ATOM     22  C   UNL     1      -3.770   3.238  -1.992  0.00  0.00    +0.007 A 
ATOM     23  C   UNL     1      -3.801   3.905  -3.203  0.00  0.00    +0.020 A 
ATOM     24  C   UNL     1      -2.655   4.512  -3.687  0.00  0.00    +0.041 A 
ATOM     25  C   UNL     1      -1.482   4.456  -2.957  0.00  0.00    +0.020 A 
ATOM     26  C   UNL     1      -1.454   3.793  -1.744  0.00  0.00    +0.007 A 
ATOM     27 CL   UNL     1      -2.691   5.343  -5.211  0.00  0.00    -0.084 Cl
ENDBRANCH  20  21
BRANCH  20  28
ATOM     28  C   UNL     1      -3.283   3.289   1.101  0.00  0.00    +0.232 C 
ATOM     29  O   UNL     1      -4.427   3.024   1.402  0.00  0.00    -0.274 OA
ATOM     30  N   UNL     1      -2.649   4.317   1.699  0.00  0.00    -0.328 N 
ATOM     31  H   UNL     1      -3.171   4.918   2.458  0.00  0.00    +0.145 HD
ATOM     32  H   UNL     1      -1.610   4.555   1.429  0.00  0.00    +0.145 HD
ENDBRANCH  20  28
ENDBRANCH   6  20
TORSDOF 7
