REMARK  Name = ZINC16459683
REMARK  20 active torsions:
REMARK  status: ('A' for Active; 'I' for Inactive)
REMARK    1  A    between atoms: C_1  and  C_2
REMARK    2  A    between atoms: C_2  and  C_3
REMARK    3  A    between atoms: C_8  and  N_9
REMARK    4  A    between atoms: N_12  and  C_13
REMARK    5  A    between atoms: N_12  and  C_17
REMARK    6  A    between atoms: C_13  and  C_14
REMARK    7  A    between atoms: C_14  and  O_15
REMARK    8  A    between atoms: O_15  and  C_16
REMARK    9  A    between atoms: C_17  and  C_18
REMARK   10  A    between atoms: C_20  and  C_23
REMARK   11  A    between atoms: N_25  and  C_26
REMARK   12  A    between atoms: C_26  and  C_28
REMARK   13  A    between atoms: C_26  and  C_29
REMARK   14  A    between atoms: C_29  and  C_30
REMARK   15  A    between atoms: C_30  and  C_31
REMARK   16  A    between atoms: C_31  and  N_76
REMARK   17  A    between atoms: C_32  and  C_33
REMARK   18  A    between atoms: C_32  and  N_76
REMARK   19  A    between atoms: C_34  and  C_35
REMARK   20  A    between atoms: C_34  and  N_76
REMARK                            x       y       z     vdW  Elec       q    Type
REMARK                         _______ _______ _______ _____ _____    ______ ____
ROOT
ATOM      1  C   UNL     1      -2.798   2.978  -4.547  0.00  0.00    +0.096 A 
ATOM      2  N   UNL     1      -2.143   2.531  -3.507  0.00  0.00    -0.238 NA
ATOM      3  C   UNL     1      -2.545   1.416  -2.895  0.00  0.00    +0.133 A 
ATOM      4  C   UNL     1      -3.648   0.777  -3.402  0.00  0.00    +0.080 A 
ATOM      5  S   UNL     1      -4.067   1.812  -4.731  0.00  0.00    -0.078 S 
ENDROOT
BRANCH   3   6
ATOM      6  C   UNL     1      -1.829   0.887  -1.723  0.00  0.00    +0.263 C 
ATOM      7  O   UNL     1      -2.215  -0.131  -1.182  0.00  0.00    -0.269 OA
ATOM      8  N   UNL     1      -0.744   1.532  -1.249  0.00  0.00    -0.307 N 
ATOM      9  H   UNL     1      -0.436   2.344  -1.680  0.00  0.00    +0.149 HD
BRANCH   8  10
ATOM     10  C   UNL     1      -0.031   1.006  -0.082  0.00  0.00    +0.070 C 
ATOM     11  C   UNL     1      -0.706   1.506   1.197  0.00  0.00    +0.028 C 
BRANCH  10  12
ATOM     12  C   UNL     1       1.421   1.485  -0.113  0.00  0.00    +0.020 C 
BRANCH  12  13
ATOM     13  C   UNL     1       2.132   0.883  -1.327  0.00  0.00    -0.017 C 
BRANCH  13  14
ATOM     14  C   UNL     1       3.584   1.362  -1.358  0.00  0.00    -0.079 C 
BRANCH  14  15
ATOM     15  N   UNL     1       4.292   0.658  -2.448  0.00  0.00    +0.379 N 
ATOM     16  H   UNL     1       4.020  -0.332  -2.438  0.00  0.00    -0.082 HD
BRANCH  15  17
ATOM     17  C   UNL     1       3.921   1.245  -3.753  0.00  0.00    -0.082 C 
ATOM     18  C   UNL     1       4.486   0.363  -4.869  0.00  0.00    -0.017 C 
ENDBRANCH  15  17
BRANCH  15  19
ATOM     19  C   UNL     1       5.753   0.756  -2.247  0.00  0.00    -0.082 C 
ATOM     20  C   UNL     1       6.164  -0.227  -1.148  0.00  0.00    -0.017 C 
ENDBRANCH  15  19
ENDBRANCH  14  15
ENDBRANCH  13  14
ENDBRANCH  12  13
ENDBRANCH  10  12
ENDBRANCH   8  10
ENDBRANCH   3   6
BRANCH   1  21
ATOM     21  C   UNL     1      -2.518   4.204  -5.379  0.00  0.00    +0.172 C 
BRANCH  21  25
ATOM     22  N   UNL     1       0.543   3.611  -7.328  0.00  0.00    -0.269 N 
ATOM     23  C   UNL     1      -0.284   3.935  -6.314  0.00  0.00    +0.307 C 
ATOM     24  O   UNL     1       0.174   4.304  -5.250  0.00  0.00    -0.252 OA
ATOM     25  N   UNL     1      -1.619   3.851  -6.481  0.00  0.00    -0.277 N 
ATOM     26  H   UNL     1       0.178   3.370  -8.194  0.00  0.00    +0.156 HD
BRANCH  22  32
ATOM     27  C   UNL     1       2.749   2.829  -7.922  0.00  0.00    -0.026 A 
ATOM     28  C   UNL     1       4.116   2.842  -7.726  0.00  0.00    +0.005 A 
ATOM     29  C   UNL     1       4.668   3.642  -6.742  0.00  0.00    +0.000 A 
ATOM     30  C   UNL     1       3.853   4.432  -5.953  0.00  0.00    +0.002 A 
ATOM     31  C   UNL     1       2.485   4.428  -6.148  0.00  0.00    +0.023 A 
ATOM     32  C   UNL     1       1.928   3.621  -7.131  0.00  0.00    +0.038 A 
BRANCH  27  34
ATOM     33  C   UNL     1       1.958   2.777 -10.272  0.00  0.00    +0.009 C 
ATOM     34  C   UNL     1       2.149   1.956  -8.995  0.00  0.00    +0.033 C 
ENDBRANCH  27  34
ENDBRANCH  22  32
BRANCH  25  35
ATOM     35  C   UNL     1      -2.171   3.406  -7.763  0.00  0.00    +0.138 C 
BRANCH  35  36
ATOM     36  C   UNL     1      -2.392   4.618  -8.670  0.00  0.00    +0.178 C 
BRANCH  36  37
ATOM     37  O   UNL     1      -1.132   5.213  -8.987  0.00  0.00    -0.381 OA
ATOM     38  C   UNL     1      -1.227   6.359  -9.835  0.00  0.00    +0.194 C 
ENDBRANCH  36  37
ENDBRANCH  35  36
ENDBRANCH  25  35
ENDBRANCH  21  25
ENDBRANCH   1  21
TORSDOF 15
