REMARK  Name = ZINC41586383
REMARK  9 active torsions:
REMARK  status: ('A' for Active; 'I' for Inactive)
REMARK    1  A    between atoms: C_1  and  C_2
REMARK    2  A    between atoms: C_2  and  O_3
REMARK    3  A    between atoms: O_3  and  C_4
REMARK    4  A    between atoms: C_4  and  C_6
REMARK    5  A    between atoms: N_11  and  C_13
REMARK    6  A    between atoms: C_13  and  C_14
REMARK    7  A    between atoms: C_15  and  O_33
REMARK    8  A    between atoms: C_17  and  C_32
REMARK    9  A    between atoms: C_22  and  C_23
REMARK                            x       y       z     vdW  Elec       q    Type
REMARK                         _______ _______ _______ _____ _____    ______ ____
ROOT
ATOM      1  C   UNL     1       2.735  -6.426   4.839  0.00  0.00    +0.020 A 
ATOM      2  C   UNL     1       4.089  -6.718   4.893  0.00  0.00    +0.122 A 
ATOM      3  C   UNL     1       4.653  -7.254   6.047  0.00  0.00    +0.050 A 
ATOM      4  C   UNL     1       3.873  -7.499   7.142  0.00  0.00    -0.033 A 
ATOM      5  C   UNL     1       2.508  -7.210   7.102  0.00  0.00    +0.071 A 
ATOM      6  C   UNL     1       1.929  -6.664   5.945  0.00  0.00    +0.145 A 
ATOM      7  O   UNL     1       0.608  -6.466   6.146  0.00  0.00    -0.451 OA
ATOM      8  C   UNL     1       0.226  -6.841   7.390  0.00  0.00    +0.176 C 
ATOM      9  C   UNL     1      -1.029  -6.769   7.899  0.00  0.00    +0.058 C 
ATOM     10  C   UNL     1       1.419  -7.352   8.085  0.00  0.00    +0.232 C 
ATOM     11  O   UNL     1       1.492  -7.784   9.222  0.00  0.00    -0.283 OA
ATOM     12  C   UNL     1       4.485  -8.079   8.390  0.00  0.00    +0.045 C 
ENDROOT
BRANCH   9  13
ATOM     13  C   UNL     1      -2.103  -6.139   7.118  0.00  0.00    -0.020 A 
ATOM     14  C   UNL     1      -1.870  -5.734   5.798  0.00  0.00    +0.008 A 
ATOM     15  C   UNL     1      -2.883  -5.146   5.072  0.00  0.00    +0.002 A 
ATOM     16  C   UNL     1      -4.129  -4.954   5.644  0.00  0.00    +0.020 A 
ATOM     17  C   UNL     1      -4.369  -5.351   6.949  0.00  0.00    +0.042 A 
ATOM     18  C   UNL     1      -3.367  -5.948   7.687  0.00  0.00    +0.028 A 
ATOM     19 CL   UNL     1      -5.935  -5.104   7.655  0.00  0.00    -0.084 Cl
ENDBRANCH   9  13
BRANCH   2  20
ATOM     20  O   UNL     1       4.872  -6.479   3.810  0.00  0.00    -0.506 OA
ATOM     21  H   UNL     1       5.262  -5.594   3.795  0.00  0.00    +0.292 HD
ENDBRANCH   2  20
BRANCH   1  22
ATOM     22  C   UNL     1       2.138  -5.846   3.583  0.00  0.00    -0.036 C 
BRANCH  22  27
ATOM     23  C   UNL     1       1.509  -2.287   2.574  0.00  0.00    +0.081 C 
ATOM     24  C   UNL     1       2.954  -1.780   2.603  0.00  0.00    +0.011 C 
ATOM     25  C   UNL     1       3.691  -2.435   3.775  0.00  0.00    -0.018 C 
ATOM     26  C   UNL     1       3.612  -3.957   3.634  0.00  0.00    -0.078 C 
ATOM     27  N   UNL     1       2.207  -4.380   3.640  0.00  0.00    +0.383 N 
ATOM     28  C   UNL     1       1.510  -3.814   2.478  0.00  0.00    -0.064 C 
ATOM     29  H   UNL     1       1.762  -4.058   4.486  0.00  0.00    -0.081 HD
BRANCH  23  30
ATOM     30  C   UNL     1       0.797  -1.708   1.379  0.00  0.00    +0.308 C 
ATOM     31  O   UNL     1       0.336  -2.441   0.537  0.00  0.00    -0.251 OA
BRANCH  30  32
ATOM     32  O   UNL     1       0.675  -0.377   1.250  0.00  0.00    -0.465 OA
BRANCH  32  34
ATOM     33  C   UNL     1      -0.051   1.631   0.118  0.00  0.00    +0.048 C 
ATOM     34  C   UNL     1      -0.012   0.102   0.092  0.00  0.00    +0.229 C 
ENDBRANCH  32  34
ENDBRANCH  30  32
ENDBRANCH  23  30
ENDBRANCH  22  27
ENDBRANCH   1  22
TORSDOF 7
