REMARK  Name = ZINC16024529
REMARK  7 active torsions:
REMARK  status: ('A' for Active; 'I' for Inactive)
REMARK    1  A    between atoms: C_1  and  C_2
REMARK    2  A    between atoms: C_7  and  C_8
REMARK    3  A    between atoms: C_17  and  C_20
REMARK    4  A    between atoms: C_20  and  C_21
REMARK    5  A    between atoms: C_24  and  O_28
REMARK    6  A    between atoms: C_25  and  O_27
REMARK    7  A    between atoms: N_31  and  C_34
REMARK                            x       y       z     vdW  Elec       q    Type
REMARK                         _______ _______ _______ _____ _____    ______ ____
ROOT
ATOM      1  C   UNL     1      -0.018   1.503   0.010  0.00  0.00    +0.044 C 
ATOM      2  C   UNL     1       0.002  -0.004   0.002  0.00  0.00    -0.046 A 
ATOM      3  C   UNL     1       0.006  -0.686  -1.202  0.00  0.00    +0.004 A 
ATOM      4  C   UNL     1       0.024  -2.069  -1.209  0.00  0.00    +0.008 A 
ATOM      5  C   UNL     1       0.039  -2.765  -0.021  0.00  0.00    +0.004 A 
ATOM      6  C   UNL     1       0.036  -2.090   1.196  0.00  0.00    +0.042 A 
ATOM      7  C   UNL     1       0.023  -0.697   1.195  0.00  0.00    -0.026 A 
ATOM      8  C   UNL     1       0.025   0.056   2.500  0.00  0.00    +0.046 C 
ATOM      9  N   UNL     1       0.055  -3.001   2.254  0.00  0.00    -0.283 N 
ATOM     10  C   UNL     1       0.070  -4.278   1.825  0.00  0.00    +0.243 C 
ATOM     11  O   UNL     1       0.088  -5.274   2.516  0.00  0.00    -0.273 OA
ATOM     12  C   UNL     1       0.061  -4.227   0.321  0.00  0.00    +0.136 C 
ATOM     13  C   UNL     1       1.290  -4.927  -0.271  0.00  0.00    +0.122 C 
ATOM     14  C   UNL     1       0.785  -6.345  -0.657  0.00  0.00    +0.107 C 
ATOM     15  C   UNL     1      -0.699  -6.367  -0.233  0.00  0.00    +0.072 C 
ATOM     16  N   UNL     1      -1.111  -4.931  -0.234  0.00  0.00    -0.295 NA
ATOM     17  C   UNL     1       0.889  -6.354  -2.165  0.00  0.00    +0.227 C 
ATOM     18  O   UNL     1       0.582  -7.282  -2.883  0.00  0.00    -0.275 OA
ATOM     19  N   UNL     1       1.372  -5.179  -2.584  0.00  0.00    -0.238 N 
ATOM     20  C   UNL     1       1.644  -4.294  -1.598  0.00  0.00    +0.228 C 
ATOM     21  O   UNL     1       2.094  -3.178  -1.744  0.00  0.00    -0.275 OA
ATOM     22  H   UNL     1       0.056  -2.745   3.189  0.00  0.00    +0.155 HD
ATOM     23  H   UNL     1      -1.924  -4.793   0.347  0.00  0.00    +0.124 HD
ENDROOT
BRANCH  19  24
ATOM     24  C   UNL     1       1.595  -4.874  -4.000  0.00  0.00    +0.084 C 
ATOM     25  C   UNL     1       0.282  -5.043  -4.791  0.00  0.00    +0.023 C 
ATOM     26  C   UNL     1       0.730  -5.640  -6.148  0.00  0.00    +0.002 C 
ATOM     27  C   UNL     1       1.866  -6.610  -5.736  0.00  0.00    +0.002 C 
ATOM     28  C   UNL     1       2.602  -5.870  -4.601  0.00  0.00    +0.023 C 
ENDBRANCH  19  24
BRANCH  15  29
ATOM     29  C   UNL     1      -1.532  -7.146  -1.252  0.00  0.00    +0.054 C 
BRANCH  29  30
ATOM     30  C   UNL     1      -2.951  -7.260  -0.759  0.00  0.00    -0.042 A 
ATOM     31  C   UNL     1      -3.324  -8.333   0.029  0.00  0.00    +0.007 A 
ATOM     32  C   UNL     1      -4.624  -8.442   0.485  0.00  0.00    +0.049 A 
ATOM     33  C   UNL     1      -5.558  -7.474   0.151  0.00  0.00    +0.158 A 
ATOM     34  C   UNL     1      -5.184  -6.394  -0.642  0.00  0.00    +0.158 A 
ATOM     35  C   UNL     1      -3.877  -6.288  -1.091  0.00  0.00    +0.052 A 
BRANCH  34  36
ATOM     36  O   UNL     1      -6.096  -5.441  -0.971  0.00  0.00    -0.503 OA
ATOM     37  H   UNL     1      -6.145  -4.709  -0.342  0.00  0.00    +0.292 HD
ENDBRANCH  34  36
BRANCH  33  38
ATOM     38  O   UNL     1      -6.838  -7.580   0.598  0.00  0.00    -0.503 OA
ATOM     39  H   UNL     1      -6.994  -7.154   1.452  0.00  0.00    +0.292 HD
ENDBRANCH  33  38
ENDBRANCH  29  30
ENDBRANCH  15  29
TORSDOF 5
