REMARK  Name = ZINC20176260
REMARK  8 active torsions:
REMARK  status: ('A' for Active; 'I' for Inactive)
REMARK    1  A    between atoms: C_1  and  C_2
REMARK    2  A    between atoms: C_2  and  O_3
REMARK    3  A    between atoms: O_3  and  C_4
REMARK    4  A    between atoms: C_7  and  N_10
REMARK    5  A    between atoms: N_12  and  C_13
REMARK    6  A    between atoms: C_17  and  C_20
REMARK    7  A    between atoms: C_18  and  C_19
REMARK    8  A    between atoms: C_25  and  C_27
REMARK                            x       y       z     vdW  Elec       q    Type
REMARK                         _______ _______ _______ _____ _____    ______ ____
ROOT
ATOM      1  N   UNL     1      -0.976   3.495   0.478  0.00  0.00    -0.328 N 
ATOM      2  C   UNL     1       0.152   4.148   0.334  0.00  0.00    +0.190 C 
ATOM      3  N   UNL     1       1.333   3.458   0.191  0.00  0.00    -0.286 N 
ATOM      4  N   UNL     1       0.154   5.526   0.326  0.00  0.00    -0.236 N 
ATOM      5  C   UNL     1      -0.925   6.382   0.329  0.00  0.00    +0.140 A 
ATOM      6  N   UNL     1      -2.164   5.933   0.340  0.00  0.00    -0.283 NA
ATOM      7  C   UNL     1      -0.641   7.745   0.324  0.00  0.00    +0.058 A 
ATOM      8  C   UNL     1       0.663   8.102   0.305  0.00  0.00    +0.007 A 
ATOM      9  S   UNL     1       1.494   6.584   0.303  0.00  0.00    -0.008 S 
ATOM     10  C   UNL     1       1.252   9.489   0.291  0.00  0.00    +0.053 C 
ATOM     11  H   UNL     1       1.491   2.519   0.740  0.00  0.00    +0.155 HD
ATOM     12  H   UNL     1      -2.906   6.558   0.342  0.00  0.00    +0.188 HD
ATOM     13  H   UNL     1      -1.907   4.043   0.685  0.00  0.00    +0.169 HD
ENDROOT
BRANCH   3  14
ATOM     14  C   UNL     1       2.333   3.951  -0.653  0.00  0.00    +0.037 A 
ATOM     15  C   UNL     1       2.016   4.875  -1.642  0.00  0.00    +0.023 A 
ATOM     16  C   UNL     1       3.006   5.360  -2.474  0.00  0.00    +0.002 A 
ATOM     17  C   UNL     1       4.311   4.928  -2.323  0.00  0.00    +0.004 A 
ATOM     18  C   UNL     1       4.630   4.008  -1.340  0.00  0.00    -0.046 A 
ATOM     19  C   UNL     1       3.644   3.519  -0.505  0.00  0.00    -0.026 A 
ATOM     20  C   UNL     1       3.992   2.517   0.566  0.00  0.00    +0.046 C 
ATOM     21  C   UNL     1       6.053   3.540  -1.180  0.00  0.00    +0.044 C 
ENDBRANCH   3  14
BRANCH   1  25
ATOM     22  C   UNL     1      -1.034  -0.634   0.153  0.00  0.00    +0.121 A 
ATOM     23  C   UNL     1      -1.645  -0.017   1.235  0.00  0.00    +0.047 A 
ATOM     24  C   UNL     1      -1.628   1.358   1.348  0.00  0.00    +0.029 A 
ATOM     25  C   UNL     1      -0.995   2.128   0.370  0.00  0.00    +0.042 A 
ATOM     26  C   UNL     1      -0.388   1.504  -0.720  0.00  0.00    +0.029 A 
ATOM     27  C   UNL     1      -0.405   0.128  -0.822  0.00  0.00    +0.047 A 
BRANCH  22  28
ATOM     28  O   UNL     1      -1.053  -1.990   0.046  0.00  0.00    -0.492 OA
BRANCH  28  30
ATOM     29  C   UNL     1      -0.536  -4.079  -1.052  0.00  0.00    +0.048 C 
ATOM     30  C   UNL     1      -0.313  -2.566  -1.032  0.00  0.00    +0.225 C 
ENDBRANCH  28  30
ENDBRANCH  22  28
ENDBRANCH   1  25
TORSDOF 4
