REMARK  Name = ZINC34923248
REMARK  11 active torsions:
REMARK  status: ('A' for Active; 'I' for Inactive)
REMARK    1  A    between atoms: C_1  and  C_2
REMARK    2  A    between atoms: C_2  and  C_3
REMARK    3  A    between atoms: C_4  and  C_34
REMARK    4  A    between atoms: C_5  and  C_26
REMARK    5  A    between atoms: C_8  and  C_13
REMARK    6  A    between atoms: C_14  and  N_16
REMARK    7  A    between atoms: C_20  and  C_23
REMARK    8  A    between atoms: C_30  and  O_32
REMARK    9  A    between atoms: O_32  and  C_33
REMARK   10  A    between atoms: C_34  and  O_36
REMARK   11  A    between atoms: O_36  and  C_37
REMARK                            x       y       z     vdW  Elec       q    Type
REMARK                         _______ _______ _______ _____ _____    ______ ____
ROOT
ATOM      1  C   UNL     1      -1.775  -1.593  -0.429  0.00  0.00    +0.056 C 
ATOM      2  C   UNL     1      -2.579  -1.603  -1.553  0.00  0.00    +0.083 C 
ATOM      3  C   UNL     1      -4.077  -1.645  -1.348  0.00  0.00    +0.150 C 
ATOM      4  N   UNL     1      -4.567  -1.672   0.056  0.00  0.00    -0.267 N 
ATOM      5  C   UNL     1      -5.881  -1.712   0.477  0.00  0.00    +0.048 C 
ATOM      6  C   UNL     1      -6.113  -1.732   1.808  0.00  0.00    +0.072 C 
ATOM      7  S   UNL     1      -4.460  -1.694   2.471  0.00  0.00    -0.060 S 
ATOM      8  C   UNL     1      -3.605  -1.656   1.027  0.00  0.00    +0.166 C 
ATOM      9  N   UNL     1      -2.312  -1.624   0.780  0.00  0.00    -0.229 NA
ENDROOT
BRANCH   3  10
ATOM     10  C   UNL     1      -4.672  -0.436  -2.023  0.00  0.00    -0.019 A 
ATOM     11  C   UNL     1      -4.488   0.821  -1.476  0.00  0.00    +0.006 A 
ATOM     12  C   UNL     1      -5.032   1.931  -2.093  0.00  0.00    +0.004 A 
ATOM     13  C   UNL     1      -5.762   1.788  -3.258  0.00  0.00    +0.045 A 
ATOM     14  C   UNL     1      -5.948   0.529  -3.808  0.00  0.00    +0.120 A 
ATOM     15  C   UNL     1      -5.396  -0.584  -3.190  0.00  0.00    +0.051 A 
BRANCH  14  16
ATOM     16  O   UNL     1      -6.666   0.385  -4.953  0.00  0.00    -0.495 OA
ATOM     17  C   UNL     1      -7.200   1.575  -5.537  0.00  0.00    +0.277 C 
ENDBRANCH  14  16
ENDBRANCH   3  10
BRANCH   5  18
ATOM     18  C   UNL     1      -6.989  -1.732  -0.489  0.00  0.00    +0.091 C 
ATOM     19  C   UNL     1      -8.250  -1.943  -0.064  0.00  0.00    +0.241 C 
ATOM     20  O   UNL     1      -8.516  -2.002   1.264  0.00  0.00    -0.271 OA
BRANCH  19  21
ATOM     21  N   UNL     1      -9.273  -2.101  -0.983  0.00  0.00    -0.297 N 
ATOM     22  C   UNL     1     -10.648  -1.705  -0.648  0.00  0.00    +0.108 C 
ATOM     23  C   UNL     1     -11.579  -2.895  -0.902  0.00  0.00    +0.020 C 
ATOM     24  C   UNL     1     -11.398  -3.381  -2.342  0.00  0.00    +0.016 C 
ATOM     25  C   UNL     1      -9.954  -3.845  -2.548  0.00  0.00    +0.092 C 
ATOM     26  C   UNL     1      -9.004  -2.661  -2.314  0.00  0.00    +0.120 C 
BRANCH  25  27
ATOM     27  C   UNL     1      -9.786  -4.354  -3.956  0.00  0.00    +0.215 C 
ATOM     28  O   UNL     1     -10.728  -4.347  -4.720  0.00  0.00    -0.276 OA
ATOM     29  N   UNL     1      -8.589  -4.818  -4.366  0.00  0.00    -0.329 N 
ATOM     30  H   UNL     1      -7.835  -4.824  -3.755  0.00  0.00    +0.145 HD
ATOM     31  H   UNL     1      -8.480  -5.146  -5.273  0.00  0.00    +0.145 HD
ENDBRANCH  25  27
ENDBRANCH  19  21
ENDBRANCH   5  18
BRANCH   1  33
ATOM     32  C   UNL     1       0.181  -0.100  -0.740  0.00  0.00    +0.010 C 
ATOM     33  C   UNL     1      -0.276  -1.552  -0.582  0.00  0.00    +0.053 C 
ENDBRANCH   1  33
BRANCH   2  34
ATOM     34  C   UNL     1      -2.026  -1.575  -2.839  0.00  0.00    +0.339 C 
ATOM     35  O   UNL     1      -0.824  -1.429  -2.982  0.00  0.00    -0.245 OA
BRANCH  34  36
ATOM     36  O   UNL     1      -2.824  -1.711  -3.921  0.00  0.00    -0.465 OA
ATOM     37  C   UNL     1      -2.192  -1.673  -5.202  0.00  0.00    +0.280 C 
ENDBRANCH  34  36
ENDBRANCH   2  34
TORSDOF 8
