REMARK  Name = ZINC20605258
REMARK  6 active torsions:
REMARK  status: ('A' for Active; 'I' for Inactive)
REMARK    1  A    between atoms: C_1  and  C_2
REMARK    2  A    between atoms: C_4  and  C_26
REMARK    3  A    between atoms: C_6  and  C_19
REMARK    4  A    between atoms: N_9  and  C_11
REMARK    5  A    between atoms: C_11  and  C_12
REMARK    6  A    between atoms: C_22  and  O_25
REMARK                            x       y       z     vdW  Elec       q    Type
REMARK                         _______ _______ _______ _____ _____    ______ ____
ROOT
ATOM      1  C   UNL     1       0.266   5.132   4.704  0.00  0.00    +0.068 C 
ATOM      2  C   UNL     1       0.983   4.752   3.434  0.00  0.00    +0.070 A 
ATOM      3  C   UNL     1       2.383   4.792   3.233  0.00  0.00    +0.053 A 
ATOM      4  C   UNL     1       3.470   5.154   4.043  0.00  0.00    +0.069 A 
ATOM      5  C   UNL     1       4.728   5.071   3.516  0.00  0.00    +0.041 A 
ATOM      6  C   UNL     1       4.898   4.633   2.198  0.00  0.00    +0.074 A 
ATOM      7  N   UNL     1       3.862   4.295   1.447  0.00  0.00    -0.228 NA
ATOM      8  C   UNL     1       2.622   4.359   1.913  0.00  0.00    +0.160 A 
ATOM      9  N   UNL     1       1.396   4.077   1.370  0.00  0.00    -0.242 N 
ATOM     10  N   UNL     1       0.418   4.338   2.337  0.00  0.00    -0.174 NA
ENDROOT
BRANCH   6  11
ATOM     11  C   UNL     1       6.265   4.545   1.631  0.00  0.00    +0.001 A 
ATOM     12  C   UNL     1       7.367   4.903   2.408  0.00  0.00    +0.013 A 
ATOM     13  C   UNL     1       8.638   4.815   1.879  0.00  0.00    +0.046 A 
ATOM     14  C   UNL     1       8.820   4.382   0.573  0.00  0.00    +0.117 A 
ATOM     15  C   UNL     1       7.724   4.031  -0.205  0.00  0.00    +0.046 A 
ATOM     16  C   UNL     1       6.451   4.111   0.319  0.00  0.00    +0.013 A 
BRANCH  14  17
ATOM     17  O   UNL     1      10.072   4.302   0.053  0.00  0.00    -0.507 OA
ATOM     18  H   UNL     1      10.218   3.959  -0.982  0.00  0.00    +0.292 HD
ENDBRANCH  14  17
ENDBRANCH   6  11
BRANCH   4  19
ATOM     19  C   UNL     1       3.255   5.622   5.459  0.00  0.00    +0.418 C 
ATOM     20  F   UNL     1       4.491   5.919   6.045  0.00  0.00    -0.166 F 
ATOM     21  F   UNL     1       2.454   6.769   5.455  0.00  0.00    -0.166 F 
ATOM     22  F   UNL     1       2.622   4.614   6.193  0.00  0.00    -0.166 F 
ENDBRANCH   4  19
BRANCH   9  23
ATOM     23  C   UNL     1       1.150   3.592   0.010  0.00  0.00    +0.182 C 
BRANCH  23  24
ATOM     24  C   UNL     1       1.171   2.086   0.002  0.00  0.00    -0.008 A 
ATOM     25  C   UNL     1      -0.017   1.378   0.010  0.00  0.00    +0.007 A 
ATOM     26  C   UNL     1       0.002  -0.004   0.002  0.00  0.00    +0.000 A 
ATOM     27  C   UNL     1       1.208  -0.680  -0.014  0.00  0.00    +0.001 A 
ATOM     28  C   UNL     1       2.396   0.027  -0.021  0.00  0.00    +0.020 A 
ATOM     29  C   UNL     1       2.378   1.410  -0.013  0.00  0.00    +0.046 A 
ATOM     30 CL   UNL     1       3.870   2.298  -0.023  0.00  0.00    -0.083 Cl
ENDBRANCH  23  24
ENDBRANCH   9  23
TORSDOF 5
