REMARK  Name = ZINC13362086
REMARK  10 active torsions:
REMARK  status: ('A' for Active; 'I' for Inactive)
REMARK    1  A    between atoms: C_1  and  C_2
REMARK    2  A    between atoms: C_3  and  C_35
REMARK    3  A    between atoms: C_4  and  C_26
REMARK    4  A    between atoms: C_6  and  C_24
REMARK    5  A    between atoms: C_7  and  S_9
REMARK    6  A    between atoms: S_9  and  C_10
REMARK    7  A    between atoms: C_10  and  C_11
REMARK    8  A    between atoms: N_13  and  C_14
REMARK    9  A    between atoms: C_31  and  N_32
REMARK   10  A    between atoms: C_35  and  C_37
REMARK                            x       y       z     vdW  Elec       q    Type
REMARK                         _______ _______ _______ _____ _____    ______ ____
ROOT
ATOM      1  C   UNL     1      -4.252  -0.798   0.720  0.00  0.00    +0.061 C 
ATOM      2  C   UNL     1      -3.033  -0.195   1.369  0.00  0.00    +0.013 C 
ATOM      3  C   UNL     1      -1.850  -0.226   0.721  0.00  0.00    +0.024 C 
ATOM      4  C   UNL     1      -0.607   0.369   1.318  0.00  0.00    +0.099 C 
ATOM      5  C   UNL     1      -0.783   0.603   2.792  0.00  0.00    +0.069 C 
ATOM      6  C   UNL     1      -2.016   0.601   3.365  0.00  0.00    +0.080 C 
ATOM      7  N   UNL     1      -3.142   0.375   2.604  0.00  0.00    -0.312 N 
ATOM      8  H   UNL     1      -4.131   0.656   2.995  0.00  0.00    +0.152 HD
ENDROOT
BRANCH   4   9
ATOM      9  C   UNL     1      -0.310   1.681   0.640  0.00  0.00    -0.005 A 
ATOM     10  C   UNL     1      -1.308   2.627   0.497  0.00  0.00    +0.007 A 
ATOM     11  C   UNL     1      -1.034   3.833  -0.121  0.00  0.00    +0.000 A 
ATOM     12  C   UNL     1       0.236   4.089  -0.605  0.00  0.00    +0.002 A 
ATOM     13  C   UNL     1       1.232   3.141  -0.467  0.00  0.00    +0.033 A 
ATOM     14  C   UNL     1       0.959   1.937   0.156  0.00  0.00    +0.130 A 
BRANCH  14  15
ATOM     15  N   UNL     1       2.026   0.921   0.303  0.00  0.00    +0.057 N 
ATOM     16  O   UNL     1       3.156   1.264   0.603  0.00  0.00    -0.126 OA
ATOM     17  O   UNL     1       1.774  -0.257   0.125  0.00  0.00    -0.126 OA
ENDBRANCH  14  15
ENDBRANCH   4   9
BRANCH   3  18
ATOM     18  C   UNL     1      -1.780  -0.829  -0.545  0.00  0.00    +0.159 C 
ATOM     19  O   UNL     1      -2.776  -1.315  -1.042  0.00  0.00    -0.293 OA
ATOM     20  C   UNL     1      -0.468  -0.875  -1.286  0.00  0.00    +0.091 C 
ENDBRANCH   3  18
BRANCH   5  21
ATOM     21  C   UNL     1       0.370   0.832   3.609  0.00  0.00    +0.098 C 
ATOM     22  N   UNL     1       1.286   1.013   4.257  0.00  0.00    -0.191 NA
ENDBRANCH   5  21
BRANCH   6  23
ATOM     23  S   UNL     1      -2.175   0.889   5.096  0.00  0.00    -0.100 S 
BRANCH  23  24
ATOM     24  C   UNL     1      -3.973   0.771   5.270  0.00  0.00    +0.171 C 
BRANCH  24  25
ATOM     25  C   UNL     1      -4.354   0.991   6.712  0.00  0.00    +0.224 C 
ATOM     26  O   UNL     1      -3.494   1.206   7.540  0.00  0.00    -0.275 OA
ATOM     27  N   UNL     1      -5.649   0.948   7.080  0.00  0.00    -0.309 N 
ATOM     28  H   UNL     1      -6.429   0.753   6.329  0.00  0.00    +0.149 HD
BRANCH  27  29
ATOM     29  C   UNL     1      -6.019   1.162   8.482  0.00  0.00    +0.035 C 
ATOM     30  C   UNL     1      -5.352   0.096   9.354  0.00  0.00    +0.029 C 
ATOM     31  C   UNL     1      -5.738   0.319  10.817  0.00  0.00    -0.008 C 
ATOM     32  C   UNL     1      -7.258   0.220  10.964  0.00  0.00    +0.007 C 
ATOM     33  C   UNL     1      -7.926   1.285  10.092  0.00  0.00    -0.008 C 
ATOM     34  C   UNL     1      -7.539   1.062   8.629  0.00  0.00    +0.029 C 
ATOM     35  C   UNL     1      -7.460   2.673  10.537  0.00  0.00    +0.007 C 
ATOM     36  C   UNL     1      -5.940   2.773  10.390  0.00  0.00    -0.008 C 
ATOM     37  C   UNL     1      -5.273   1.707  11.262  0.00  0.00    +0.007 C 
ATOM     38  C   UNL     1      -5.554   2.550   8.927  0.00  0.00    +0.029 C 
ENDBRANCH  27  29
ENDBRANCH  24  25
ENDBRANCH  23  24
ENDBRANCH   6  23
TORSDOF 8
