REMARK  Name = ZINC56357816
REMARK  9 active torsions:
REMARK  status: ('A' for Active; 'I' for Inactive)
REMARK    1  A    between atoms: C_1  and  C_2
REMARK    2  A    between atoms: C_2  and  C_4
REMARK    3  A    between atoms: C_6  and  C_10
REMARK    4  A    between atoms: C_16  and  N_19
REMARK    5  A    between atoms: C_20  and  O_22
REMARK    6  A    between atoms: O_22  and  C_23
REMARK    7  A    between atoms: C_23  and  C_24
REMARK    8  A    between atoms: C_23  and  C_25
REMARK    9  A    between atoms: C_23  and  C_26
REMARK                            x       y       z     vdW  Elec       q    Type
REMARK                         _______ _______ _______ _____ _____    ______ ____
ROOT
ATOM      1  C   UNL     1      -3.345  -3.764   0.021  0.00  0.00    +0.263 C 
ATOM      2  O   UNL     1      -2.647  -4.752  -0.109  0.00  0.00    -0.268 OA
ATOM      3  N   UNL     1      -4.682  -3.894   0.132  0.00  0.00    -0.295 N 
ATOM      4  C   UNL     1      -5.552  -2.710   0.135  0.00  0.00    +0.108 C 
ATOM      5  C   UNL     1      -6.624  -2.883  -0.945  0.00  0.00    +0.021 C 
ATOM      6  C   UNL     1      -7.362  -4.205  -0.719  0.00  0.00    +0.025 C 
ATOM      7  C   UNL     1      -6.373  -5.368  -0.829  0.00  0.00    +0.093 C 
ATOM      8  C   UNL     1      -5.299  -5.223   0.246  0.00  0.00    +0.130 C 
ENDROOT
BRANCH   1  11
ATOM      9  C   UNL     1      -1.326  -0.717  -0.214  0.00  0.00    +0.035 A 
ATOM     10  C   UNL     1      -1.525  -2.094  -0.476  0.00  0.00    +0.043 A 
ATOM     11  C   UNL     1      -2.732  -2.431   0.058  0.00  0.00    +0.103 A 
ATOM     12  N   UNL     1      -3.279  -1.307   0.639  0.00  0.00    -0.356 N 
ATOM     13  H   UNL     1      -4.136  -1.270   1.092  0.00  0.00    +0.165 HD
ATOM     14  C   UNL     1      -2.438  -0.274   0.485  0.00  0.00    +0.094 A 
BRANCH   9  16
ATOM     15  C   UNL     1      -0.100   1.547  -0.239  0.00  0.00    +0.091 C 
ATOM     16  C   UNL     1      -0.162   0.086  -0.602  0.00  0.00    +0.162 C 
ATOM     17  O   UNL     1       0.751  -0.426  -1.216  0.00  0.00    -0.292 OA
ENDBRANCH   9  16
ENDBRANCH   1  11
BRANCH   7  18
ATOM     18  N   UNL     1      -7.086  -6.634  -0.644  0.00  0.00    -0.277 N 
ATOM     19  C   UNL     1      -6.590  -7.770  -1.173  0.00  0.00    +0.401 C 
ATOM     20  O   UNL     1      -5.551  -7.744  -1.802  0.00  0.00    -0.226 OA
ATOM     21  H   UNL     1      -7.915  -6.655  -0.141  0.00  0.00    +0.152 HD
BRANCH  19  22
ATOM     22  O   UNL     1      -7.245  -8.934  -1.003  0.00  0.00    -0.445 OA
BRANCH  22  23
ATOM     23  C   UNL     1      -6.661 -10.099  -1.590  0.00  0.00    +0.107 C 
ATOM     24  C   UNL     1      -5.266 -10.322  -1.002  0.00  0.00    +0.055 C 
ATOM     25  C   UNL     1      -7.540 -11.315  -1.293  0.00  0.00    +0.055 C 
ATOM     26  C   UNL     1      -6.552  -9.906  -3.104  0.00  0.00    +0.055 C 
ENDBRANCH  22  23
ENDBRANCH  19  22
ENDBRANCH   7  18
TORSDOF 5
