REMARK  Name = ZINC40947268
REMARK  8 active torsions:
REMARK  status: ('A' for Active; 'I' for Inactive)
REMARK    1  A    between atoms: C_3  and  C_17
REMARK    2  A    between atoms: C_5  and  O_7
REMARK    3  A    between atoms: O_7  and  C_8
REMARK    4  A    between atoms: C_8  and  C_9
REMARK    5  A    between atoms: N_18  and  N_19
REMARK    6  A    between atoms: C_20  and  C_22
REMARK    7  A    between atoms: C_22  and  S_23
REMARK    8  A    between atoms: S_23  and  C_24
REMARK                            x       y       z     vdW  Elec       q    Type
REMARK                         _______ _______ _______ _____ _____    ______ ____
ROOT
ATOM      1  C   UNL     1      -0.017   1.378   0.010  0.00  0.00    +0.004 A 
ATOM      2  C   UNL     1       1.166   2.089   0.002  0.00  0.00    +0.010 A 
ATOM      3  C   UNL     1       2.387   1.411  -0.013  0.00  0.00    -0.002 A 
ATOM      4  C   UNL     1       2.404   0.015  -0.021  0.00  0.00    +0.055 A 
ATOM      5  C   UNL     1       1.211  -0.688  -0.013  0.00  0.00    +0.122 A 
ATOM      6  C   UNL     1       0.002  -0.004   0.002  0.00  0.00    +0.046 A 
ENDROOT
BRANCH   3   7
ATOM      7  C   UNL     1       3.654   2.166  -0.022  0.00  0.00    +0.138 C 
ATOM      8  N   UNL     1       3.635   3.464  -0.015  0.00  0.00    -0.188 NA
BRANCH   8   9
ATOM      9  N   UNL     1       4.838   4.181  -0.023  0.00  0.00    -0.206 N 
ATOM     10  C   UNL     1       4.819   5.529  -0.016  0.00  0.00    +0.242 C 
ATOM     11  O   UNL     1       3.760   6.120  -0.003  0.00  0.00    -0.273 OA
ATOM     12  H   UNL     1       5.685   3.709  -0.034  0.00  0.00    +0.177 HD
BRANCH  10  13
ATOM     13  C   UNL     1       6.113   6.301  -0.025  0.00  0.00    +0.173 C 
BRANCH  13  14
ATOM     14  S   UNL     1       5.756   8.080  -0.013  0.00  0.00    -0.088 S 
BRANCH  14  15
ATOM     15  C   UNL     1       7.349   8.834  -0.024  0.00  0.00    +0.160 A 
ATOM     16  N   UNL     1       8.541   8.270  -0.044  0.00  0.00    -0.133 NA
ATOM     17  N   UNL     1       9.670   9.056  -0.051  0.00  0.00    -0.125 NA
ATOM     18  C   UNL     1       9.556  10.369  -0.036  0.00  0.00    +0.180 A 
ATOM     19  S   UNL     1       7.780  10.567  -0.020  0.00  0.00    -0.025 S 
ATOM     20  N   UNL     1      10.550  11.340  -0.039  0.00  0.00    -0.336 N 
ATOM     21  H   UNL     1      11.484  11.078  -0.053  0.00  0.00    +0.144 HD
ATOM     22  H   UNL     1      10.310  12.280  -0.026  0.00  0.00    +0.144 HD
ENDBRANCH  14  15
ENDBRANCH  13  14
ENDBRANCH  10  13
ENDBRANCH   8   9
ENDBRANCH   3   7
BRANCH   5  23
ATOM     23  O   UNL     1       1.223  -2.046  -0.021  0.00  0.00    -0.487 OA
BRANCH  23  24
ATOM     24  C   UNL     1      -0.045  -2.706  -0.012  0.00  0.00    +0.266 C 
BRANCH  24  25
ATOM     25  C   UNL     1       0.165  -4.199  -0.023  0.00  0.00    +0.008 A 
ATOM     26  C   UNL     1       1.447  -4.716  -0.033  0.00  0.00    +0.010 A 
ATOM     27  C   UNL     1       1.641  -6.084  -0.042  0.00  0.00    +0.020 A 
ATOM     28  C   UNL     1       0.552  -6.937  -0.042  0.00  0.00    +0.042 A 
ATOM     29  C   UNL     1      -0.731  -6.420  -0.032  0.00  0.00    +0.040 A 
ATOM     30  C   UNL     1      -0.924  -5.051  -0.017  0.00  0.00    +0.049 A 
ATOM     31 CL   UNL     1      -2.534  -4.401   0.002  0.00  0.00    -0.083 Cl
ATOM     32 CL   UNL     1       0.795  -8.656  -0.054  0.00  0.00    -0.083 Cl
ENDBRANCH  24  25
ENDBRANCH  23  24
ENDBRANCH   5  23
TORSDOF 8
