REMARK  Name = ZINC38649710
REMARK  10 active torsions:
REMARK  status: ('A' for Active; 'I' for Inactive)
REMARK    1  A    between atoms: C_1  and  C_2
REMARK    2  A    between atoms: C_2  and  C_3
REMARK    3  A    between atoms: C_2  and  C_4
REMARK    4  A    between atoms: C_2  and  C_5
REMARK    5  A    between atoms: C_8  and  C_11
REMARK    6  A    between atoms: C_16  and  O_25
REMARK    7  A    between atoms: C_20  and  N_24
REMARK    8  A    between atoms: C_21  and  C_22
REMARK    9  A    between atoms: O_25  and  C_26
REMARK   10  A    between atoms: C_26  and  C_28
REMARK                            x       y       z     vdW  Elec       q    Type
REMARK                         _______ _______ _______ _____ _____    ______ ____
ROOT
ATOM      1  C   UNL     1       2.758  -1.860  -4.714  0.00  0.00    +0.098 C 
ATOM      2  C   UNL     1       3.191  -0.678  -5.540  0.00  0.00    +0.008 A 
ATOM      3  C   UNL     1       2.274  -0.052  -6.366  0.00  0.00    +0.012 A 
ATOM      4  C   UNL     1       2.653   1.033  -7.131  0.00  0.00    +0.047 A 
ATOM      5  C   UNL     1       3.959   1.499  -7.074  0.00  0.00    +0.135 A 
ATOM      6  C   UNL     1       4.880   0.876  -6.248  0.00  0.00    +0.093 A 
ATOM      7  C   UNL     1       4.496  -0.215  -5.478  0.00  0.00    +0.138 A 
ATOM      8  O   UNL     1       5.410  -0.816  -4.675  0.00  0.00    -0.441 OA
ATOM      9  C   UNL     1       5.194  -2.066  -4.233  0.00  0.00    +0.199 C 
ATOM     10  C   UNL     1       3.961  -2.617  -4.225  0.00  0.00    +0.098 C 
ENDROOT
BRANCH   1  14
ATOM     11  C   UNL     1       0.492  -0.491  -1.361  0.00  0.00    -0.042 A 
ATOM     12  C   UNL     1      -0.084  -1.344  -2.283  0.00  0.00    +0.004 A 
ATOM     13  C   UNL     1       0.649  -1.787  -3.368  0.00  0.00    +0.005 A 
ATOM     14  C   UNL     1       1.958  -1.376  -3.531  0.00  0.00    -0.035 A 
ATOM     15  C   UNL     1       2.535  -0.522  -2.610  0.00  0.00    +0.005 A 
ATOM     16  C   UNL     1       1.801  -0.076  -1.527  0.00  0.00    +0.004 A 
BRANCH  11  18
ATOM     17  C   UNL     1      -0.405   1.519  -0.218  0.00  0.00    +0.015 C 
ATOM     18  C   UNL     1      -0.307  -0.008  -0.178  0.00  0.00    -0.013 C 
ATOM     19  C   UNL     1       0.385  -0.441   1.116  0.00  0.00    +0.015 C 
ATOM     20  C   UNL     1      -1.712  -0.611  -0.232  0.00  0.00    +0.015 C 
ENDBRANCH  11  18
ENDBRANCH   1  14
BRANCH   9  21
ATOM     21  N   UNL     1       6.258  -2.803  -3.776  0.00  0.00    -0.328 N 
ATOM     22  H   UNL     1       7.149  -2.419  -3.775  0.00  0.00    +0.145 HD
ATOM     23  H   UNL     1       6.119  -3.707  -3.453  0.00  0.00    +0.145 HD
ENDBRANCH   9  21
BRANCH  10  24
ATOM     24  C   UNL     1       3.798  -3.954  -3.739  0.00  0.00    +0.101 C 
ATOM     25  N   UNL     1       3.669  -5.015  -3.354  0.00  0.00    -0.191 NA
ENDBRANCH  10  24
BRANCH   5  26
ATOM     26  O   UNL     1       4.334   2.567  -7.827  0.00  0.00    -0.422 OA
BRANCH  26  27
ATOM     27  C   UNL     1       5.180   2.352  -8.853  0.00  0.00    +0.344 C 
ATOM     28  O   UNL     1       5.502   1.218  -9.147  0.00  0.00    -0.245 OA
BRANCH  27  29
ATOM     29  C   UNL     1       5.716   3.493  -9.620  0.00  0.00    +0.060 A 
ATOM     30  C   UNL     1       5.352   4.799  -9.280  0.00  0.00    +0.018 A 
ATOM     31  C   UNL     1       5.856   5.861  -9.999  0.00  0.00    +0.039 A 
ATOM     32  C   UNL     1       6.721   5.636 -11.059  0.00  0.00    +0.123 A 
ATOM     33  C   UNL     1       7.085   4.342 -11.401  0.00  0.00    +0.039 A 
ATOM     34  C   UNL     1       6.593   3.273 -10.685  0.00  0.00    +0.018 A 
ATOM     35  F   UNL     1       7.212   6.681 -11.761  0.00  0.00    -0.205 F 
ENDBRANCH  27  29
ENDBRANCH  26  27
ENDBRANCH   5  26
TORSDOF 7
