REMARK  Name = ZINC12897133
REMARK  10 active torsions:
REMARK  status: ('A' for Active; 'I' for Inactive)
REMARK    1  A    between atoms: C_1  and  C_2
REMARK    2  A    between atoms: C_5  and  S_8
REMARK    3  A    between atoms: S_8  and  N_11
REMARK    4  A    between atoms: C_17  and  C_18
REMARK    5  A    between atoms: C_17  and  N_62
REMARK    6  A    between atoms: N_20  and  C_21
REMARK    7  A    between atoms: C_21  and  C_23
REMARK    8  A    between atoms: C_21  and  C_24
REMARK    9  A    between atoms: C_29  and  O_30
REMARK   10  A    between atoms: O_30  and  C_31
REMARK                            x       y       z     vdW  Elec       q    Type
REMARK                         _______ _______ _______ _____ _____    ______ ____
ROOT
ATOM      1  N   UNL     1       0.796  -0.616   1.085  0.00  0.00    -0.178 NA
ATOM      2  C   UNL     1      -0.641  -0.642   1.243  0.00  0.00    +0.107 C 
ATOM      3  C   UNL     1      -1.310   0.013   0.008  0.00  0.00    -0.001 C 
ATOM      4  C   UNL     1      -1.042   1.464   0.008  0.00  0.00    -0.077 C 
ATOM      5  C   UNL     1       0.982   1.869   1.218  0.00  0.00    -0.061 C 
ATOM      6  C   UNL     1       1.634   0.512   1.542  0.00  0.00    +0.091 C 
ATOM      7  N   UNL     1       0.385   1.796  -0.107  0.00  0.00    +0.386 N 
ATOM      8  H   UNL     1       0.858   1.062  -0.647  0.00  0.00    -0.081 HD
ENDROOT
BRANCH   1   9
ATOM      9  S   UNL     1       1.536  -1.907   0.358  0.00  0.00    +0.061 S 
ATOM     10  O   UNL     1       2.882  -1.913   0.813  0.00  0.00    -0.153 OA
ATOM     11  O   UNL     1       0.670  -3.021   0.528  0.00  0.00    -0.153 OA
BRANCH   9  16
ATOM     12  C   UNL     1       1.722  -0.757  -5.562  0.00  0.00    +0.044 C 
ATOM     13  C   UNL     1       1.676  -1.045  -4.084  0.00  0.00    -0.050 A 
ATOM     14  C   UNL     1       2.718  -0.643  -3.269  0.00  0.00    +0.005 A 
ATOM     15  C   UNL     1       2.675  -0.907  -1.913  0.00  0.00    +0.029 A 
ATOM     16  C   UNL     1       1.590  -1.571  -1.371  0.00  0.00    +0.105 A 
ATOM     17  C   UNL     1       0.551  -1.977  -2.187  0.00  0.00    +0.029 A 
ATOM     18  C   UNL     1       0.591  -1.709  -3.543  0.00  0.00    +0.005 A 
ENDBRANCH   9  16
ENDBRANCH   1   9
BRANCH   7  19
ATOM     19  C   UNL     1       0.549   3.088  -0.808  0.00  0.00    +0.019 C 
BRANCH  19  20
ATOM     20  C   UNL     1      -0.041   4.208   0.009  0.00  0.00    +0.197 C 
ATOM     21  O   UNL     1      -0.557   3.970   1.081  0.00  0.00    -0.278 OA
ATOM     22  N   UNL     1       0.005   5.474  -0.450  0.00  0.00    -0.310 N 
ATOM     23  H   UNL     1       0.417   5.665  -1.307  0.00  0.00    +0.149 HD
BRANCH  22  24
ATOM     24  C   UNL     1      -0.569   6.563   0.345  0.00  0.00    +0.104 C 
ATOM     25  C   UNL     1       0.482   7.089   1.324  0.00  0.00    +0.033 C 
BRANCH  24  26
ATOM     26  C   UNL     1      -1.004   7.678  -0.571  0.00  0.00    +0.014 A 
ATOM     27  C   UNL     1      -0.377   7.857  -1.789  0.00  0.00    +0.009 A 
ATOM     28  C   UNL     1      -0.776   8.879  -2.630  0.00  0.00    +0.001 A 
ATOM     29  C   UNL     1      -1.804   9.725  -2.254  0.00  0.00    +0.004 A 
ATOM     30  C   UNL     1      -2.434   9.550  -1.038  0.00  0.00    +0.046 A 
ATOM     31  C   UNL     1      -2.039   8.522  -0.195  0.00  0.00    +0.125 A 
BRANCH  31  32
ATOM     32  O   UNL     1      -2.661   8.344   1.001  0.00  0.00    -0.495 OA
ATOM     33  C   UNL     1      -3.718   9.251   1.323  0.00  0.00    +0.277 C 
ENDBRANCH  31  32
ENDBRANCH  24  26
ENDBRANCH  22  24
ENDBRANCH  19  20
ENDBRANCH   7  19
TORSDOF 7
