REMARK  Name = ZINC39711128
REMARK  10 active torsions:
REMARK  status: ('A' for Active; 'I' for Inactive)
REMARK    1  A    between atoms: C_1  and  C_2
REMARK    2  A    between atoms: C_4  and  C_41
REMARK    3  A    between atoms: C_7  and  C_14
REMARK    4  A    between atoms: C_14  and  C_16
REMARK    5  A    between atoms: C_14  and  N_27
REMARK    6  A    between atoms: N_21  and  C_22
REMARK    7  A    between atoms: N_27  and  C_28
REMARK    8  A    between atoms: N_27  and  C_35
REMARK    9  A    between atoms: C_28  and  C_29
REMARK   10  A    between atoms: C_35  and  C_36
REMARK                            x       y       z     vdW  Elec       q    Type
REMARK                         _______ _______ _______ _____ _____    ______ ____
ROOT
ATOM      1  C   UNL     1      -0.689  -5.282   1.144  0.00  0.00    -0.010 C 
ENDROOT
BRANCH   1   8
ATOM      2  C   UNL     1       6.344  -4.710   3.676  0.00  0.00    +0.044 C 
ATOM      3  C   UNL     1       4.941  -4.457   3.189  0.00  0.00    -0.048 A 
ATOM      4  C   UNL     1       4.168  -3.496   3.841  0.00  0.00    +0.007 A 
ATOM      5  C   UNL     1       2.897  -3.224   3.447  0.00  0.00    -0.042 A 
ATOM      6  C   UNL     1       2.337  -3.961   2.314  0.00  0.00    -0.004 A 
ATOM      7  C   UNL     1       1.066  -3.721   1.883  0.00  0.00    -0.006 C 
ATOM      8  C   UNL     1       0.568  -4.530   0.702  0.00  0.00    +0.088 C 
ATOM      9  C   UNL     1       1.521  -5.536   0.097  0.00  0.00    +0.223 C 
ATOM     10  O   UNL     1       1.174  -6.212  -0.853  0.00  0.00    -0.275 OA
ATOM     11  N   UNL     1       2.734  -5.678   0.605  0.00  0.00    -0.285 N 
ATOM     12  C   UNL     1       3.176  -4.970   1.643  0.00  0.00    +0.041 A 
ATOM     13  C   UNL     1       4.481  -5.171   2.128  0.00  0.00    +0.027 A 
ATOM     14  C   UNL     1       2.078  -2.183   4.166  0.00  0.00    +0.044 C 
ATOM     15  H   UNL     1       3.330  -6.329   0.202  0.00  0.00    +0.155 HD
ENDBRANCH   1   8
BRANCH   1  16
ATOM     16  C   UNL     1      -1.820  -4.282   1.393  0.00  0.00    +0.183 C 
ATOM     17  N   UNL     1      -3.124  -4.970   1.440  0.00  0.00    -0.229 N 
ATOM     18  N   UNL     1      -3.877  -4.436   0.387  0.00  0.00    -0.064 NA
ATOM     19  N   UNL     1      -3.263  -3.583  -0.249  0.00  0.00    -0.061 NA
ATOM     20  N   UNL     1      -1.968  -3.365   0.248  0.00  0.00    -0.213 N 
ATOM     21  H   UNL     1      -3.403  -5.653   2.070  0.00  0.00    +0.172 HD
BRANCH  20  22
ATOM     22  C   UNL     1      -0.969  -2.423  -0.264  0.00  0.00    +0.096 C 
ATOM     23  C   UNL     1      -1.608  -1.033  -0.465  0.00  0.00    +0.024 C 
ATOM     24  C   UNL     1      -0.938  -0.490  -1.752  0.00  0.00    +0.002 C 
ATOM     25  C   UNL     1      -0.823  -1.755  -2.638  0.00  0.00    +0.002 C 
ATOM     26  C   UNL     1      -0.470  -2.882  -1.645  0.00  0.00    +0.024 C 
ENDBRANCH  20  22
ENDBRANCH   1  16
BRANCH   1  27
ATOM     27  N   UNL     1      -0.407  -6.021   2.381  0.00  0.00    +0.392 N 
ATOM     28  H   UNL     1      -0.036  -5.389   3.074  0.00  0.00    -0.080 HD
BRANCH  27  29
ATOM     29  C   UNL     1       0.575  -7.079   2.107  0.00  0.00    -0.040 C 
BRANCH  29  30
ATOM     30  C   UNL     1       1.003  -7.715   3.404  0.00  0.00    -0.046 A 
ATOM     31  C   UNL     1       1.789  -7.012   4.305  0.00  0.00    +0.005 A 
ATOM     32  C   UNL     1       2.159  -7.638   5.486  0.00  0.00    +0.020 A 
ATOM     33  C   UNL     1       1.736  -8.932   5.724  0.00  0.00    +0.111 A 
ATOM     34  N   UNL     1       0.990  -9.570   4.844  0.00  0.00    -0.263 NA
ATOM     35  C   UNL     1       0.613  -9.004   3.714  0.00  0.00    +0.112 A 
ENDBRANCH  29  30
ENDBRANCH  27  29
BRANCH  27  36
ATOM     36  C   UNL     1      -1.649  -6.625   2.885  0.00  0.00    -0.002 C 
BRANCH  36  37
ATOM     37  C   UNL     1      -2.278  -7.458   1.799  0.00  0.00    +0.089 A 
ATOM     38  C   UNL     1      -2.576  -8.767   1.885  0.00  0.00    +0.042 A 
ATOM     39  C   UNL     1      -3.148  -9.139   0.646  0.00  0.00    +0.041 A 
ATOM     40  C   UNL     1      -3.165  -8.036  -0.122  0.00  0.00    +0.195 A 
ATOM     41  O   UNL     1      -2.642  -7.019   0.583  0.00  0.00    -0.470 OA
ENDBRANCH  36  37
ENDBRANCH  27  36
ENDBRANCH   1  27
TORSDOF 8
