REMARK  Name = ZINC02661929
REMARK  7 active torsions:
REMARK  status: ('A' for Active; 'I' for Inactive)
REMARK    1  A    between atoms: C_4  and  C_7
REMARK    2  A    between atoms: C_7  and  C_8
REMARK    3  A    between atoms: C_7  and  N_14
REMARK    4  A    between atoms: C_15  and  C_17
REMARK    5  A    between atoms: C_17  and  N_18
REMARK    6  A    between atoms: N_21  and  C_24
REMARK    7  A    between atoms: C_29  and  O_30
REMARK                            x       y       z     vdW  Elec       q    Type
REMARK                         _______ _______ _______ _____ _____    ______ ____
ROOT
ATOM      1  N   UNL     1       3.611  -1.865  -0.930  0.00  0.00    -0.306 N 
ATOM      2  C   UNL     1       4.721  -2.370  -1.504  0.00  0.00    +0.197 C 
ATOM      3  O   UNL     1       5.802  -1.868  -1.281  0.00  0.00    -0.278 OA
ATOM      4  H   UNL     1       2.747  -2.267  -1.108  0.00  0.00    +0.150 HD
ENDROOT
BRANCH   1   5
ATOM      5  C   UNL     1       3.711  -0.707  -0.038  0.00  0.00    +0.133 C 
BRANCH   5   9
ATOM      6  C   UNL     1      -0.017   1.378   0.010  0.00  0.00    +0.000 A 
ATOM      7  C   UNL     1       1.171   2.086   0.002  0.00  0.00    +0.000 A 
ATOM      8  C   UNL     1       2.377   1.411  -0.013  0.00  0.00    +0.006 A 
ATOM      9  C   UNL     1       2.396   0.029  -0.020  0.00  0.00    -0.023 A 
ATOM     10  C   UNL     1       1.208  -0.679  -0.012  0.00  0.00    +0.006 A 
ATOM     11  C   UNL     1       0.002  -0.004   0.002  0.00  0.00    +0.000 A 
ENDBRANCH   5   9
BRANCH   5  12
ATOM     12  C   UNL     1       4.044  -1.175   1.356  0.00  0.00    -0.023 A 
ATOM     13  C   UNL     1       3.455  -2.320   1.860  0.00  0.00    +0.006 A 
ATOM     14  C   UNL     1       3.760  -2.748   3.138  0.00  0.00    +0.000 A 
ATOM     15  C   UNL     1       4.654  -2.033   3.912  0.00  0.00    +0.000 A 
ATOM     16  C   UNL     1       5.243  -0.888   3.408  0.00  0.00    +0.000 A 
ATOM     17  C   UNL     1       4.941  -0.462   2.128  0.00  0.00    +0.006 A 
ENDBRANCH   5  12
ENDBRANCH   1   5
BRANCH   2  18
ATOM     18  C   UNL     1       4.619  -3.561  -2.422  0.00  0.00    +0.019 C 
BRANCH  18  19
ATOM     19  N   UNL     1       5.956  -3.917  -2.914  0.00  0.00    +0.387 N 
ATOM     20  C   UNL     1       6.479  -2.821  -3.740  0.00  0.00    -0.059 C 
ATOM     21  C   UNL     1       7.918  -3.140  -4.159  0.00  0.00    +0.086 C 
ATOM     22  N   UNL     1       7.931  -4.456  -4.817  0.00  0.00    -0.331 N 
ATOM     23  C   UNL     1       7.280  -5.582  -4.129  0.00  0.00    +0.086 C 
ATOM     24  C   UNL     1       5.872  -5.147  -3.712  0.00  0.00    -0.059 C 
ATOM     25  H   UNL     1       6.573  -4.068  -2.130  0.00  0.00    -0.081 HD
BRANCH  22  26
ATOM     26  C   UNL     1       8.545  -4.631  -6.062  0.00  0.00    +0.072 A 
ATOM     27  C   UNL     1       9.884  -4.988  -6.133  0.00  0.00    +0.027 A 
ATOM     28  C   UNL     1      10.488  -5.161  -7.364  0.00  0.00    +0.002 A 
ATOM     29  C   UNL     1       9.762  -4.980  -8.527  0.00  0.00    +0.004 A 
ATOM     30  C   UNL     1       8.427  -4.624  -8.463  0.00  0.00    +0.047 A 
ATOM     31  C   UNL     1       7.813  -4.453  -7.234  0.00  0.00    +0.138 A 
BRANCH  31  32
ATOM     32  O   UNL     1       6.498  -4.109  -7.170  0.00  0.00    -0.505 OA
ATOM     33  H   UNL     1       6.342  -3.154  -7.162  0.00  0.00    +0.292 HD
ENDBRANCH  31  32
ENDBRANCH  22  26
ENDBRANCH  18  19
ENDBRANCH   2  18
TORSDOF 7
