REMARK  Name = ZINC09593042
REMARK  6 active torsions:
REMARK  status: ('A' for Active; 'I' for Inactive)
REMARK    1  A    between atoms: C_1  and  C_2
REMARK    2  A    between atoms: C_11  and  C_12
REMARK    3  A    between atoms: C_11  and  N_50
REMARK    4  A    between atoms: C_16  and  C_19
REMARK    5  A    between atoms: N_27  and  C_28
REMARK    6  A    between atoms: C_28  and  C_29
REMARK                            x       y       z     vdW  Elec       q    Type
REMARK                         _______ _______ _______ _____ _____    ______ ____
ROOT
ATOM      1  C   UNL     1       0.912  -0.369   3.609  0.00  0.00    +0.098 A 
ATOM      2  N   UNL     1       2.075  -0.933   3.420  0.00  0.00    -0.228 NA
ATOM      3  C   UNL     1       2.874  -1.215   4.446  0.00  0.00    +0.116 A 
ATOM      4  C   UNL     1       2.512  -0.925   5.771  0.00  0.00    +0.080 A 
ATOM      5  C   UNL     1       3.499  -1.297   6.777  0.00  0.00    +0.004 A 
ATOM      6  C   UNL     1       4.655  -1.877   6.373  0.00  0.00    +0.056 A 
ATOM      7  S   UNL     1       4.479  -1.955   4.601  0.00  0.00    -0.076 S 
ATOM      8  C   UNL     1       1.232  -0.308   5.943  0.00  0.00    +0.264 A 
ATOM      9  O   UNL     1       0.829  -0.017   7.056  0.00  0.00    -0.267 OA
ATOM     10  N   UNL     1       0.482  -0.047   4.856  0.00  0.00    -0.284 N 
ENDROOT
BRANCH   5  11
ATOM     11  C   UNL     1       3.243  -1.047   8.216  0.00  0.00    -0.017 A 
ATOM     12  C   UNL     1       2.829   0.214   8.644  0.00  0.00    +0.008 A 
ATOM     13  C   UNL     1       2.587   0.439   9.983  0.00  0.00    +0.001 A 
ATOM     14  C   UNL     1       2.764  -0.579  10.902  0.00  0.00    +0.000 A 
ATOM     15  C   UNL     1       3.180  -1.831  10.484  0.00  0.00    +0.001 A 
ATOM     16  C   UNL     1       3.420  -2.070   9.147  0.00  0.00    +0.008 A 
ENDBRANCH   5  11
BRANCH   1  17
ATOM     17  C   UNL     1       0.035  -0.064   2.422  0.00  0.00    -0.002 C 
BRANCH  17  27
ATOM     18  C   UNL     1      -0.019   1.526   0.010  0.00  0.00    -0.008 C 
ATOM     19  C   UNL     1       0.002  -0.004   0.002  0.00  0.00    -0.039 C 
ATOM     20  C   UNL     1       0.734  -0.499  -1.242  0.00  0.00    -0.051 A 
ATOM     21  C   UNL     1       0.578   0.057  -2.509  0.00  0.00    +0.010 A 
ATOM     22  C   UNL     1       1.270  -0.444  -3.558  0.00  0.00    +0.045 A 
ATOM     23  S   UNL     1       2.201  -1.762  -2.791  0.00  0.00    -0.101 S 
ATOM     24  C   UNL     1       1.600  -1.547  -1.140  0.00  0.00    -0.010 A 
ATOM     25  C   UNL     1       1.935  -2.309   0.100  0.00  0.00    +0.024 C 
ATOM     26  C   UNL     1       0.887  -1.953   1.167  0.00  0.00    -0.072 C 
ATOM     27  N   UNL     1       0.744  -0.478   1.195  0.00  0.00    +0.389 N 
ATOM     28  H   UNL     1       1.679  -0.055   1.192  0.00  0.00    -0.080 HD
ENDBRANCH  17  27
ENDBRANCH   1  17
BRANCH  10  29
ATOM     29  C   UNL     1      -0.827   0.590   5.022  0.00  0.00    +0.245 C 
BRANCH  29  30
ATOM     30  C   UNL     1      -1.858  -0.447   5.195  0.00  0.00    +0.084 C 
ATOM     31  N   UNL     1      -2.654  -1.246   5.329  0.00  0.00    -0.195 NA
ENDBRANCH  29  30
ENDBRANCH  10  29
TORSDOF 5
