REMARK  Name = ZINC17812983
REMARK  13 active torsions:
REMARK  status: ('A' for Active; 'I' for Inactive)
REMARK    1  A    between atoms: C_1  and  C_2
REMARK    2  A    between atoms: C_4  and  C_32
REMARK    3  A    between atoms: C_5  and  S_9
REMARK    4  A    between atoms: C_6  and  C_8
REMARK    5  A    between atoms: S_9  and  N_12
REMARK    6  A    between atoms: C_15  and  C_18
REMARK    7  A    between atoms: N_20  and  C_21
REMARK    8  A    between atoms: C_21  and  C_22
REMARK    9  A    between atoms: C_22  and  C_23
REMARK   10  A    between atoms: C_23  and  N_70
REMARK   11  A    between atoms: C_24  and  N_70
REMARK   12  A    between atoms: C_25  and  C_26
REMARK   13  A    between atoms: C_25  and  N_70
REMARK                            x       y       z     vdW  Elec       q    Type
REMARK                         _______ _______ _______ _____ _____    ______ ____
ROOT
ATOM      1  N   UNL     1      -3.620   3.854  -0.877  0.00  0.00    -0.177 NA
ATOM      2  C   UNL     1      -3.589   5.214  -1.432  0.00  0.00    +0.110 C 
ATOM      3  C   UNL     1      -3.001   5.149  -2.850  0.00  0.00    +0.030 C 
ATOM      4  C   UNL     1      -3.803   4.149  -3.684  0.00  0.00    +0.077 C 
ATOM      5  C   UNL     1      -3.697   2.757  -3.055  0.00  0.00    +0.030 C 
ATOM      6  C   UNL     1      -4.288   2.793  -1.643  0.00  0.00    +0.110 C 
ENDROOT
BRANCH   4   7
ATOM      7  C   UNL     1      -3.253   4.109  -5.087  0.00  0.00    +0.216 C 
ATOM      8  O   UNL     1      -2.820   3.071  -5.539  0.00  0.00    -0.276 OA
ATOM      9  N   UNL     1      -3.244   5.228  -5.838  0.00  0.00    -0.315 N 
ATOM     10  H   UNL     1      -3.591   6.058  -5.477  0.00  0.00    +0.149 HD
BRANCH   9  11
ATOM     11  C   UNL     1      -2.709   5.189  -7.202  0.00  0.00    +0.102 C 
BRANCH  11  12
ATOM     12  C   UNL     1      -2.815   6.580  -7.830  0.00  0.00    +0.000 C 
BRANCH  12  13
ATOM     13  C   UNL     1      -2.257   6.540  -9.255  0.00  0.00    -0.077 C 
BRANCH  13  15
ATOM     14  C   UNL     1      -1.485   8.833  -9.167  0.00  0.00    -0.096 C 
ATOM     15  N   UNL     1      -2.386   7.884  -9.855  0.00  0.00    +0.381 N 
ATOM     16  H   UNL     1      -3.355   8.206  -9.747  0.00  0.00    -0.082 HD
BRANCH  15  17
ATOM     17  C   UNL     1      -2.056   7.828 -11.295  0.00  0.00    -0.043 C 
BRANCH  17  18
ATOM     18  C   UNL     1      -2.405   9.151 -11.925  0.00  0.00    -0.064 A 
ATOM     19  C   UNL     1      -3.671   9.359 -12.440  0.00  0.00    +0.002 A 
ATOM     20  C   UNL     1      -3.993  10.575 -13.014  0.00  0.00    +0.000 A 
ATOM     21  C   UNL     1      -3.046  11.579 -13.083  0.00  0.00    +0.000 A 
ATOM     22  C   UNL     1      -1.778  11.369 -12.573  0.00  0.00    +0.000 A 
ATOM     23  C   UNL     1      -1.458  10.156 -11.994  0.00  0.00    +0.002 A 
ENDBRANCH  17  18
ENDBRANCH  15  17
ENDBRANCH  13  15
ENDBRANCH  12  13
ENDBRANCH  11  12
ENDBRANCH   9  11
ENDBRANCH   4   7
BRANCH   1  24
ATOM     24  S   UNL     1      -2.920   3.524   0.587  0.00  0.00    +0.061 S 
ATOM     25  O   UNL     1      -3.626   2.420   1.136  0.00  0.00    -0.153 OA
ATOM     26  O   UNL     1      -2.799   4.765   1.268  0.00  0.00    -0.153 OA
BRANCH  24  31
ATOM     27  C   UNL     1       2.695   1.605  -0.509  0.00  0.00    +0.044 C 
ATOM     28  C   UNL     1       1.292   2.084  -0.236  0.00  0.00    -0.050 A 
ATOM     29  C   UNL     1       1.017   3.439  -0.214  0.00  0.00    +0.008 A 
ATOM     30  C   UNL     1      -0.269   3.878   0.042  0.00  0.00    -0.024 A 
ATOM     31  C   UNL     1      -1.280   2.964   0.267  0.00  0.00    +0.111 A 
ATOM     32  C   UNL     1      -1.005   1.609   0.244  0.00  0.00    -0.024 A 
ATOM     33  C   UNL     1       0.281   1.169  -0.007  0.00  0.00    +0.008 A 
ATOM     34  C   UNL     1      -2.107   0.612   0.494  0.00  0.00    +0.046 C 
ATOM     35  C   UNL     1      -0.568   5.355   0.071  0.00  0.00    +0.046 C 
ENDBRANCH  24  31
ENDBRANCH   1  24
TORSDOF 9
