REMARK  Name = ZINC44096199
REMARK  4 active torsions:
REMARK  status: ('A' for Active; 'I' for Inactive)
REMARK    1  A    between atoms: C_1  and  N_2
REMARK    2  A    between atoms: C_4  and  C_9
REMARK    3  A    between atoms: C_20  and  C_23
REMARK    4  A    between atoms: C_25  and  C_28
REMARK                            x       y       z     vdW  Elec       q    Type
REMARK                         _______ _______ _______ _____ _____    ______ ____
ROOT
ATOM      1  C   UNL     1      -0.850  -2.426  -1.909  0.00  0.00    +0.221 C 
ATOM      2  O   UNL     1      -1.270  -1.511  -2.586  0.00  0.00    -0.275 OA
ATOM      3  N   UNL     1      -0.482  -3.583  -2.494  0.00  0.00    -0.298 N 
ATOM      4  C   UNL     1       0.022  -4.702  -1.686  0.00  0.00    +0.126 C 
ATOM      5  C   UNL     1      -0.828  -5.944  -1.982  0.00  0.00    +0.125 C 
ATOM      6  N   UNL     1      -0.925  -6.109  -3.439  0.00  0.00    -0.314 N 
ATOM      7  C   UNL     1      -1.430  -4.990  -4.247  0.00  0.00    +0.125 C 
ATOM      8  C   UNL     1      -0.585  -3.751  -3.950  0.00  0.00    +0.126 C 
ATOM      9  C   UNL     1      -0.547  -7.301  -4.041  0.00  0.00    +0.099 A 
ATOM     10  C   UNL     1       0.046  -8.301  -3.274  0.00  0.00    +0.042 A 
ATOM     11  C   UNL     1       0.420  -9.483  -3.880  0.00  0.00    +0.016 A 
ATOM     12  C   UNL     1       0.185  -9.631  -5.253  0.00  0.00    +0.038 A 
ATOM     13  C   UNL     1      -0.412  -8.587  -5.954  0.00  0.00    +0.095 A 
ATOM     14  N   UNL     1      -0.759  -7.475  -5.337  0.00  0.00    -0.349 N 
ATOM     15  H   UNL     1      -1.178  -6.764  -5.847  0.00  0.00    +0.167 HD
ENDROOT
BRANCH   1  19
ATOM     16  C   UNL     1      -0.011   1.430   0.075  0.00  0.00    +0.132 C 
ATOM     17  N   UNL     1      -0.006  -0.035   0.058  0.00  0.00    -0.304 N 
ATOM     18  C   UNL     1      -1.214  -0.867   0.030  0.00  0.00    +0.120 C 
ATOM     19  C   UNL     1      -0.739  -2.268  -0.415  0.00  0.00    +0.101 C 
ATOM     20  C   UNL     1       0.741  -2.256   0.033  0.00  0.00    +0.110 C 
ATOM     21  C   UNL     1       1.107  -0.789   0.060  0.00  0.00    +0.216 C 
ATOM     22  O   UNL     1       2.240  -0.356   0.083  0.00  0.00    -0.276 OA
ENDBRANCH   1  19
BRANCH  12  23
ATOM     23  C   UNL     1       0.569 -10.882  -5.951  0.00  0.00    +0.203 A 
ATOM     24  N   UNL     1       0.399 -11.134  -7.261  0.00  0.00    -0.191 NA
ATOM     25  C   UNL     1       0.844 -12.324  -7.548  0.00  0.00    +0.231 A 
ATOM     26  O   UNL     1       1.319 -12.882  -6.427  0.00  0.00    -0.337 OA
ATOM     27  N   UNL     1       1.136 -11.925  -5.394  0.00  0.00    -0.056 NA
BRANCH  25  28
ATOM     28  C   UNL     1       0.828 -12.965  -8.912  0.00  0.00    +0.078 C 
ATOM     29  C   UNL     1       1.212 -14.443  -9.003  0.00  0.00    +0.014 C 
ATOM     30  C   UNL     1       2.173 -13.370  -9.519  0.00  0.00    +0.014 C 
ENDBRANCH  25  28
ENDBRANCH  12  23
TORSDOF 3
