REMARK  Name = ZINC01941489
REMARK  8 active torsions:
REMARK  status: ('A' for Active; 'I' for Inactive)
REMARK    1  A    between atoms: C_3  and  C_10
REMARK    2  A    between atoms: C_5  and  N_7
REMARK    3  A    between atoms: C_11  and  C_12
REMARK    4  A    between atoms: C_12  and  O_14
REMARK    5  A    between atoms: O_14  and  C_15
REMARK    6  A    between atoms: C_15  and  C_16
REMARK    7  A    between atoms: N_18  and  C_19
REMARK    8  A    between atoms: C_20  and  C_27
REMARK                            x       y       z     vdW  Elec       q    Type
REMARK                         _______ _______ _______ _____ _____    ______ ____
ROOT
ATOM      1  C   UNL     1       1.121   3.580   0.011  0.00  0.00    +0.328 C 
ENDROOT
BRANCH   1   2
ATOM      2  C   UNL     1       1.141   2.074   0.002  0.00  0.00    +0.255 C 
ATOM      3  O   UNL     1       2.200   1.481  -0.011  0.00  0.00    -0.272 OA
ATOM      4  N   UNL     1      -0.017   1.384   0.010  0.00  0.00    -0.276 N 
ATOM      5  H   UNL     1      -0.863   1.857   0.016  0.00  0.00    +0.155 HD
BRANCH   4   6
ATOM      6  C   UNL     1       0.002  -0.004   0.002  0.00  0.00    +0.090 A 
ATOM      7  C   UNL     1      -1.070  -0.878   0.013  0.00  0.00    +0.084 A 
ATOM      8  C   UNL     1      -0.777  -2.311  -0.003  0.00  0.00    -0.018 A 
ATOM      9  C   UNL     1       0.532  -2.626  -0.017  0.00  0.00    -0.004 A 
ATOM     10  S   UNL     1       1.373  -1.061  -0.016  0.00  0.00    -0.077 S 
ATOM     11  C   UNL     1       0.753  -4.114  -0.030  0.00  0.00    +0.043 C 
ATOM     12  C   UNL     1      -0.607  -4.706  -0.459  0.00  0.00    +0.010 C 
ATOM     13  C   UNL     1      -1.587  -3.607  -0.000  0.00  0.00    +0.037 C 
BRANCH   7  14
ATOM     14  C   UNL     1      -2.419  -0.398   0.035  0.00  0.00    +0.102 C 
ATOM     15  N   UNL     1      -3.489  -0.017   0.052  0.00  0.00    -0.191 NA
ENDBRANCH   7  14
ENDBRANCH   4   6
ENDBRANCH   1   2
BRANCH   1  16
ATOM     16  O   UNL     1       2.461   4.075   0.000  0.00  0.00    -0.452 OA
BRANCH  16  17
ATOM     17  C   UNL     1       2.620   5.415   0.006  0.00  0.00    +0.332 C 
ATOM     18  O   UNL     1       1.645   6.142   0.019  0.00  0.00    -0.246 OA
BRANCH  17  20
ATOM     19  C   UNL     1       4.122   7.332   0.002  0.00  0.00    +0.015 C 
ATOM     20  C   UNL     1       3.963   5.992  -0.004  0.00  0.00    +0.092 C 
BRANCH  19  23
ATOM     21  C   UNL     1       7.861   7.631  -0.033  0.00  0.00    +0.003 A 
ATOM     22  C   UNL     1       6.597   7.079  -0.023  0.00  0.00    +0.008 A 
ATOM     23  C   UNL     1       5.474   7.913  -0.008  0.00  0.00    -0.023 A 
ATOM     24  C   UNL     1       5.643   9.301  -0.008  0.00  0.00    +0.040 A 
ATOM     25  C   UNL     1       6.913   9.838  -0.013  0.00  0.00    +0.127 A 
ATOM     26  C   UNL     1       8.019   9.006  -0.027  0.00  0.00    +0.033 A 
BRANCH  25  27
ATOM     27  N   UNL     1       7.093  11.307  -0.007  0.00  0.00    +0.056 N 
ATOM     28  O   UNL     1       8.215  11.783  -0.016  0.00  0.00    -0.126 OA
ATOM     29  O   UNL     1       6.121  12.040   0.005  0.00  0.00    -0.126 OA
ENDBRANCH  25  27
ENDBRANCH  19  23
ENDBRANCH  17  20
ENDBRANCH  16  17
ENDBRANCH   1  16
TORSDOF 8
