REMARK  Name = ZINC06733708
REMARK  8 active torsions:
REMARK  status: ('A' for Active; 'I' for Inactive)
REMARK    1  A    between atoms: C_1  and  C_2
REMARK    2  A    between atoms: C_3  and  O_17
REMARK    3  A    between atoms: O_17  and  C_18
REMARK    4  A    between atoms: C_20  and  O_33
REMARK    5  A    between atoms: C_22  and  O_32
REMARK    6  A    between atoms: C_24  and  O_31
REMARK    7  A    between atoms: C_26  and  C_29
REMARK    8  A    between atoms: C_29  and  O_30
REMARK                            x       y       z     vdW  Elec       q    Type
REMARK                         _______ _______ _______ _____ _____    ______ ____
ROOT
ATOM      1  C   UNL     1      -0.018   1.503   0.010  0.00  0.00    +0.051 C 
ATOM      2  C   UNL     1       0.002  -0.004   0.002  0.00  0.00    +0.034 A 
ATOM      3  C   UNL     1       0.006  -0.690  -1.202  0.00  0.00    +0.130 A 
ATOM      4  C   UNL     1       0.024  -2.080  -1.220  0.00  0.00    +0.047 A 
ATOM      5  C   UNL     1       0.034  -2.788  -0.038  0.00  0.00    +0.016 A 
ATOM      6  C   UNL     1       0.029  -2.108   1.177  0.00  0.00    +0.026 A 
ATOM      7  C   UNL     1       0.023  -0.703   1.198  0.00  0.00    +0.146 A 
ATOM      8  O   UNL     1       0.043  -0.035   2.379  0.00  0.00    -0.421 OA
ATOM      9  C   UNL     1      -0.480  -0.644   3.469  0.00  0.00    +0.345 A 
ATOM     10  O   UNL     1      -1.137  -0.025   4.283  0.00  0.00    -0.245 OA
ATOM     11  C   UNL     1      -0.225  -2.087   3.631  0.00  0.00    +0.067 A 
ATOM     12  C   UNL     1       0.028  -2.835   2.461  0.00  0.00    -0.000 A 
ATOM     13  C   UNL     1       0.278  -4.196   2.555  0.00  0.00    +0.009 A 
ATOM     14  C   UNL     1       0.257  -4.806   3.795  0.00  0.00    +0.001 A 
ATOM     15  C   UNL     1      -0.012  -4.073   4.941  0.00  0.00    +0.001 A 
ATOM     16  C   UNL     1      -0.238  -2.717   4.869  0.00  0.00    +0.015 A 
ENDROOT
BRANCH   3  17
ATOM     17  O   UNL     1      -0.009   0.000  -2.372  0.00  0.00    -0.460 OA
BRANCH  17  18
ATOM     18  C   UNL     1      -0.004  -0.767  -3.578  0.00  0.00    +0.339 C 
ATOM     19  C   UNL     1      -0.147   0.171  -4.779  0.00  0.00    +0.214 C 
ATOM     20  C   UNL     1      -0.080  -0.652  -6.070  0.00  0.00    +0.180 C 
ATOM     21  C   UNL     1       1.236  -1.435  -6.096  0.00  0.00    +0.177 C 
ATOM     22  C   UNL     1       1.326  -2.310  -4.843  0.00  0.00    +0.179 C 
ATOM     23  O   UNL     1       1.226  -1.486  -3.680  0.00  0.00    -0.331 OA
BRANCH  21  24
ATOM     24  O   UNL     1       1.278  -2.261  -7.261  0.00  0.00    -0.386 OA
ATOM     25  H   UNL     1       1.221  -1.770  -8.093  0.00  0.00    +0.210 HD
ENDBRANCH  21  24
BRANCH  20  26
ATOM     26  O   UNL     1      -0.141   0.223  -7.198  0.00  0.00    -0.386 OA
ATOM     27  H   UNL     1      -0.948   0.754  -7.240  0.00  0.00    +0.210 HD
ENDBRANCH  20  26
BRANCH  19  28
ATOM     28  O   UNL     1      -1.402   0.850  -4.709  0.00  0.00    -0.383 OA
ATOM     29  H   UNL     1      -1.514   1.388  -3.913  0.00  0.00    +0.210 HD
ENDBRANCH  19  28
BRANCH  22  30
ATOM     30  C   UNL     1       2.665  -3.050  -4.832  0.00  0.00    +0.190 C 
BRANCH  30  31
ATOM     31  O   UNL     1       2.701  -3.954  -3.726  0.00  0.00    -0.392 OA
ATOM     32  H   UNL     1       3.523  -4.458  -3.657  0.00  0.00    +0.210 HD
ENDBRANCH  30  31
ENDBRANCH  22  30
ENDBRANCH  17  18
ENDBRANCH   3  17
TORSDOF 7
