REMARK  Name = ZINC13739408
REMARK  3 active torsions:
REMARK  status: ('A' for Active; 'I' for Inactive)
REMARK    1  A    between atoms: C_4  and  N_7
REMARK    2  A    between atoms: N_9  and  C_20
REMARK    3  A    between atoms: C_10  and  C_13
REMARK                            x       y       z     vdW  Elec       q    Type
REMARK                         _______ _______ _______ _____ _____    ______ ____
ROOT
ATOM      1  N   UNL     1       1.213   3.426   0.547  0.00  0.00    -0.335 N 
ATOM      2  C   UNL     1       2.330   4.111   0.394  0.00  0.00    +0.157 A 
ATOM      3  N   UNL     1       3.635   3.675   0.467  0.00  0.00    -0.289 N 
ATOM      4  C   UNL     1       4.640   4.583   0.270  0.00  0.00    +0.063 A 
ATOM      5  C   UNL     1       4.335   5.871   0.011  0.00  0.00    +0.075 A 
ATOM      6  S   UNL     1       2.550   5.845   0.029  0.00  0.00    -0.059 S 
ATOM      7  H   UNL     1       0.247   3.883   0.284  0.00  0.00    +0.168 HD
ENDROOT
BRANCH   4   8
ATOM      8  C   UNL     1       6.054   4.154   0.340  0.00  0.00    -0.000 A 
ATOM      9  C   UNL     1       6.997   4.954   0.987  0.00  0.00    +0.013 A 
ATOM     10  C   UNL     1       8.313   4.546   1.054  0.00  0.00    +0.039 A 
ATOM     11  C   UNL     1       8.702   3.350   0.471  0.00  0.00    +0.123 A 
ATOM     12  C   UNL     1       7.770   2.555  -0.177  0.00  0.00    +0.039 A 
ATOM     13  C   UNL     1       6.450   2.951  -0.245  0.00  0.00    +0.013 A 
ATOM     14  F   UNL     1       9.993   2.959   0.535  0.00  0.00    -0.205 F 
ENDBRANCH   4   8
BRANCH   1  18
ATOM     15  C   UNL     1       1.339  -0.440   2.014  0.00  0.00    +0.000 A 
ATOM     16  C   UNL     1       1.792   0.608   2.796  0.00  0.00    +0.002 A 
ATOM     17  C   UNL     1       1.753   1.900   2.313  0.00  0.00    +0.025 A 
ATOM     18  C   UNL     1       1.255   2.148   1.032  0.00  0.00    +0.041 A 
ATOM     19  C   UNL     1       0.801   1.084   0.247  0.00  0.00    +0.025 A 
ATOM     20  C   UNL     1       0.846  -0.202   0.743  0.00  0.00    +0.002 A 
ENDBRANCH   1  18
BRANCH   3  21
ATOM     21  C   UNL     1       3.926   2.333   0.737  0.00  0.00    +0.049 A 
ATOM     22  C   UNL     1       4.636   1.991   1.881  0.00  0.00    +0.026 A 
ATOM     23  C   UNL     1       4.919   0.666   2.146  0.00  0.00    +0.002 A 
ATOM     24  C   UNL     1       4.504  -0.320   1.270  0.00  0.00    +0.000 A 
ATOM     25  C   UNL     1       3.800   0.017   0.128  0.00  0.00    +0.002 A 
ATOM     26  C   UNL     1       3.511   1.340  -0.141  0.00  0.00    +0.026 A 
ENDBRANCH   3  21
TORSDOF 3
