REMARK  Name = ZINC63557719
REMARK  9 active torsions:
REMARK  status: ('A' for Active; 'I' for Inactive)
REMARK    1  A    between atoms: C_1  and  C_2
REMARK    2  A    between atoms: C_2  and  O_3
REMARK    3  A    between atoms: O_3  and  C_4
REMARK    4  A    between atoms: C_4  and  C_6
REMARK    5  A    between atoms: C_7  and  C_33
REMARK    6  A    between atoms: C_12  and  C_14
REMARK    7  A    between atoms: N_19  and  C_21
REMARK    8  A    between atoms: C_21  and  C_22
REMARK    9  A    between atoms: C_22  and  C_23
REMARK                            x       y       z     vdW  Elec       q    Type
REMARK                         _______ _______ _______ _____ _____    ______ ____
ROOT
ATOM      1  C   UNL     1       4.490  -1.788  -7.880  0.00  0.00    +0.101 C 
ATOM      2  C   UNL     1       3.622  -2.432  -8.986  0.00  0.00    +0.110 C 
ATOM      3  C   UNL     1       3.962  -1.643 -10.231  0.00  0.00    +0.216 C 
ATOM      4  O   UNL     1       3.716  -1.994 -11.365  0.00  0.00    -0.276 OA
ATOM      5  N   UNL     1       4.575  -0.494  -9.896  0.00  0.00    -0.300 N 
ATOM      6  C   UNL     1       4.712  -0.366  -8.440  0.00  0.00    +0.121 C 
ENDROOT
BRANCH   1  13
ATOM      7  C   UNL     1       1.448  -2.344  -2.514  0.00  0.00    +0.120 A 
ATOM      8  C   UNL     1       1.663  -3.665  -2.882  0.00  0.00    +0.062 A 
ATOM      9  N   UNL     1       2.302  -3.858  -4.008  0.00  0.00    -0.229 NA
ATOM     10  C   UNL     1       2.717  -2.846  -4.748  0.00  0.00    +0.165 A 
ATOM     11  S   UNL     1       2.212  -1.492  -3.885  0.00  0.00    -0.045 S 
ATOM     12  N   UNL     1       3.400  -2.888  -5.950  0.00  0.00    -0.264 N 
ATOM     13  C   UNL     1       3.746  -1.742  -6.570  0.00  0.00    +0.224 C 
ATOM     14  O   UNL     1       3.459  -0.674  -6.073  0.00  0.00    -0.275 OA
ATOM     15  C   UNL     1       1.187  -4.815  -2.032  0.00  0.00    +0.067 C 
ATOM     16  H   UNL     1       3.630  -3.743  -6.348  0.00  0.00    +0.157 HD
BRANCH   7  17
ATOM     17  C   UNL     1       0.776  -1.800  -1.335  0.00  0.00    +0.348 C 
ATOM     18  O   UNL     1       0.312  -2.553  -0.499  0.00  0.00    -0.244 OA
BRANCH  17  19
ATOM     19  O   UNL     1       0.671  -0.465  -1.174  0.00  0.00    -0.461 OA
BRANCH  19  21
ATOM     20  C   UNL     1      -0.019   1.526   0.010  0.00  0.00    +0.048 C 
ATOM     21  C   UNL     1       0.002  -0.004   0.002  0.00  0.00    +0.229 C 
ENDBRANCH  19  21
ENDBRANCH  17  19
ENDBRANCH   7  17
ENDBRANCH   1  13
BRANCH   5  22
ATOM     22  C   UNL     1       5.046   0.502 -10.861  0.00  0.00    +0.112 C 
BRANCH  22  23
ATOM     23  C   UNL     1       3.932   1.514 -11.136  0.00  0.00    +0.052 C 
BRANCH  23  24
ATOM     24  C   UNL     1       4.418   2.539 -12.128  0.00  0.00    -0.040 C 
ATOM     25  C   UNL     1       4.233   2.525 -13.468  0.00  0.00    +0.000 A 
ATOM     26  C   UNL     1       3.552   1.586 -14.368  0.00  0.00    +0.030 A 
ATOM     27  C   UNL     1       3.535   1.845 -15.696  0.00  0.00    +0.042 A 
ATOM     28  C   UNL     1       4.150   2.986 -16.232  0.00  0.00    +0.022 A 
ATOM     29  C   UNL     1       4.795   3.894 -15.469  0.00  0.00    +0.027 A 
ATOM     30  C   UNL     1       4.874   3.721 -14.059  0.00  0.00    +0.043 A 
ATOM     31  N   UNL     1       5.433   4.447 -13.122  0.00  0.00    -0.380 N 
ATOM     32  C   UNL     1       5.204   3.796 -11.827  0.00  0.00    +0.144 C 
ATOM     33 CL   UNL     1       2.731   0.737 -16.763  0.00  0.00    -0.084 Cl
ATOM     34  H   UNL     1       5.914   5.278 -13.260  0.00  0.00    +0.160 HD
ENDBRANCH  23  24
ENDBRANCH  22  23
ENDBRANCH   5  22
TORSDOF 7
