REMARK  Name = ZINC16225207
REMARK  4 active torsions:
REMARK  status: ('A' for Active; 'I' for Inactive)
REMARK    1  A    between atoms: C_9  and  O_19
REMARK    2  A    between atoms: C_10  and  C_11
REMARK    3  A    between atoms: O_19  and  S_20
REMARK    4  A    between atoms: S_20  and  C_23
REMARK                            x       y       z     vdW  Elec       q    Type
REMARK                         _______ _______ _______ _____ _____    ______ ____
ROOT
ATOM      1  C   UNL     1      -0.016   1.358   0.009  0.00  0.00    +0.001 A 
ATOM      2  C   UNL     1       1.167   2.091   0.002  0.00  0.00    +0.001 A 
ATOM      3  C   UNL     1       2.379   1.464  -0.013  0.00  0.00    +0.009 A 
ATOM      4  C   UNL     1       2.434   0.066  -0.021  0.00  0.00    -0.007 A 
ATOM      5  C   UNL     1       1.232  -0.682  -0.013  0.00  0.00    -0.017 A 
ATOM      6  C   UNL     1       0.002  -0.004   0.002  0.00  0.00    +0.008 A 
ATOM      7  C   UNL     1       1.290  -2.088  -0.021  0.00  0.00    +0.012 A 
ATOM      8  C   UNL     1       2.485  -2.736  -0.035  0.00  0.00    +0.050 A 
ATOM      9  C   UNL     1       3.696  -2.046  -0.043  0.00  0.00    +0.165 A 
ATOM     10  C   UNL     1       3.712  -0.647  -0.037  0.00  0.00    +0.028 A 
ENDROOT
BRANCH  10  11
ATOM     11  C   UNL     1       4.978   0.086  -0.046  0.00  0.00    +0.032 C 
ATOM     12  C   UNL     1       5.955  -0.233   0.845  0.00  0.00    +0.078 C 
ATOM     13  C   UNL     1       7.289   0.366   1.022  0.00  0.00    +0.256 C 
ATOM     14  O   UNL     1       7.672   1.284   0.321  0.00  0.00    -0.269 OA
ATOM     15  N   UNL     1       8.053  -0.139   1.976  0.00  0.00    -0.261 N 
ATOM     16  C   UNL     1       7.600  -1.180   2.761  0.00  0.00    +0.158 C 
ATOM     17  N   UNL     1       8.216  -1.790   3.735  0.00  0.00    -0.279 NA
ATOM     18  S   UNL     1       5.961  -1.484   2.120  0.00  0.00    -0.049 S 
ATOM     19  H   UNL     1       8.939   0.226   2.126  0.00  0.00    +0.157 HD
ATOM     20  H   UNL     1       7.778  -2.514   4.209  0.00  0.00    +0.189 HD
ENDBRANCH  10  11
BRANCH   9  21
ATOM     21  O   UNL     1       4.865  -2.734  -0.057  0.00  0.00    -0.342 OA
BRANCH  21  22
ATOM     22  S   UNL     1       5.386  -3.042  -1.453  0.00  0.00    +0.151 S 
ATOM     23  O   UNL     1       6.482  -3.931  -1.291  0.00  0.00    -0.131 OA
ATOM     24  O   UNL     1       4.253  -3.368  -2.247  0.00  0.00    -0.131 OA
BRANCH  22  25
ATOM     25  C   UNL     1       6.044  -1.544  -2.106  0.00  0.00    +0.128 A 
ATOM     26  C   UNL     1       5.229  -0.683  -2.817  0.00  0.00    +0.032 A 
ATOM     27  C   UNL     1       5.745   0.493  -3.329  0.00  0.00    +0.022 A 
ATOM     28  C   UNL     1       7.078   0.807  -3.130  0.00  0.00    +0.041 A 
ATOM     29  C   UNL     1       7.893  -0.055  -2.419  0.00  0.00    +0.022 A 
ATOM     30  C   UNL     1       7.374  -1.228  -1.902  0.00  0.00    +0.032 A 
ATOM     31 CL   UNL     1       7.727   2.283  -3.773  0.00  0.00    -0.084 Cl
ENDBRANCH  22  25
ENDBRANCH  21  22
ENDBRANCH   9  21
TORSDOF 4
