REMARK  Name = ZINC12023846
REMARK  6 active torsions:
REMARK  status: ('A' for Active; 'I' for Inactive)
REMARK    1  A    between atoms: C_1  and  C_2
REMARK    2  A    between atoms: C_5  and  S_23
REMARK    3  A    between atoms: C_7  and  C_8
REMARK    4  A    between atoms: C_14  and  N_58
REMARK    5  A    between atoms: S_23  and  C_24
REMARK    6  A    between atoms: C_24  and  C_25
REMARK                            x       y       z     vdW  Elec       q    Type
REMARK                         _______ _______ _______ _____ _____    ______ ____
ROOT
ATOM      1  C   UNL     1      -2.817   1.371   0.072  0.00  0.00    +0.021 C 
ATOM      2  C   UNL     1      -2.023   1.079   1.348  0.00  0.00    +0.006 C 
ATOM      3  C   UNL     1      -0.658   1.764   1.259  0.00  0.00    -0.018 C 
ATOM      4  C   UNL     1       0.077   1.268   0.012  0.00  0.00    -0.078 C 
ATOM      5  C   UNL     1      -2.020   0.886  -1.141  0.00  0.00    -0.069 C 
ATOM      6  N   UNL     1      -0.727   1.602  -1.183  0.00  0.00    +0.382 N 
ATOM      7  H   UNL     1      -0.906   2.613  -1.192  0.00  0.00    -0.081 HD
ENDROOT
BRANCH   6   8
ATOM      8  C   UNL     1       0.013   1.235  -2.408  0.00  0.00    -0.060 C 
ATOM      9  C   UNL     1       1.214   2.183  -2.606  0.00  0.00    +0.020 C 
ATOM     10  C   UNL     1       1.316   2.386  -4.103  0.00  0.00    -0.046 A 
ATOM     11  C   UNL     1       2.361   2.866  -4.875  0.00  0.00    +0.004 A 
ATOM     12  C   UNL     1       2.224   2.966  -6.245  0.00  0.00    +0.000 A 
ATOM     13  C   UNL     1       1.040   2.586  -6.850  0.00  0.00    +0.000 A 
ATOM     14  C   UNL     1      -0.003   2.106  -6.082  0.00  0.00    +0.004 A 
ATOM     15  C   UNL     1       0.133   2.006  -4.708  0.00  0.00    -0.046 A 
ATOM     16  C   UNL     1      -0.845   1.521  -3.659  0.00  0.00    +0.020 C 
ENDBRANCH   6   8
BRANCH   1  23
ATOM     17  C   UNL     1      -5.321   2.865  -0.052  0.00  0.00    +0.047 C 
ATOM     18  C   UNL     1      -5.328   1.362   0.067  0.00  0.00    -0.011 A 
ATOM     19  C   UNL     1      -6.523   0.662   0.120  0.00  0.00    +0.118 A 
ATOM     20  N   UNL     1      -6.495  -0.656   0.224  0.00  0.00    -0.230 NA
ATOM     21  C   UNL     1      -5.340  -1.307   0.278  0.00  0.00    +0.189 A 
ATOM     22  N   UNL     1      -4.181  -0.667   0.224  0.00  0.00    -0.226 NA
ATOM     23  C   UNL     1      -4.140   0.651   0.126  0.00  0.00    +0.050 A 
BRANCH  21  24
ATOM     24  S   UNL     1      -5.348  -3.063   0.416  0.00  0.00    -0.080 S 
BRANCH  24  25
ATOM     25  C   UNL     1      -7.132  -3.369   0.436  0.00  0.00    +0.132 C 
BRANCH  25  26
ATOM     26  C   UNL     1      -7.387  -4.850   0.551  0.00  0.00    +0.051 A 
ATOM     27  C   UNL     1      -7.505  -5.427   1.802  0.00  0.00    +0.024 A 
ATOM     28  C   UNL     1      -7.740  -6.790   1.897  0.00  0.00    +0.003 A 
ATOM     29  C   UNL     1      -7.848  -7.525   0.726  0.00  0.00    +0.020 A 
ATOM     30  C   UNL     1      -7.718  -6.878  -0.488  0.00  0.00    +0.111 A 
ATOM     31  N   UNL     1      -7.500  -5.579  -0.541  0.00  0.00    -0.259 NA
ENDBRANCH  25  26
ENDBRANCH  24  25
ENDBRANCH  21  24
ENDBRANCH   1  23
TORSDOF 5
