REMARK  Name = ZINC09620409
REMARK  6 active torsions:
REMARK  status: ('A' for Active; 'I' for Inactive)
REMARK    1  A    between atoms: C_1  and  C_2
REMARK    2  A    between atoms: C_2  and  C_4
REMARK    3  A    between atoms: C_2  and  N_68
REMARK    4  A    between atoms: N_6  and  C_7
REMARK    5  A    between atoms: C_8  and  C_17
REMARK    6  A    between atoms: C_21  and  C_24
REMARK                            x       y       z     vdW  Elec       q    Type
REMARK                         _______ _______ _______ _____ _____    ______ ____
ROOT
ATOM      1  C   UNL     1       4.984   3.990  -2.774  0.00  0.00    -0.004 C 
ATOM      2  C   UNL     1       5.132   3.119  -1.525  0.00  0.00    +0.016 C 
ENDROOT
BRANCH   2   8
ATOM      3  C   UNL     1       3.989   1.535  -0.096  0.00  0.00    -0.077 C 
ATOM      4  C   UNL     1       2.725   0.681   0.038  0.00  0.00    -0.006 C 
ATOM      5  C   UNL     1       1.505   1.599   0.153  0.00  0.00    +0.072 C 
ATOM      6  C   UNL     1       1.443   2.510  -1.076  0.00  0.00    -0.006 C 
ATOM      7  C   UNL     1       2.744   3.310  -1.179  0.00  0.00    -0.077 C 
ATOM      8  N   UNL     1       3.877   2.370  -1.311  0.00  0.00    +0.387 N 
ATOM      9  H   UNL     1       3.711   1.760  -2.120  0.00  0.00    -0.081 HD
BRANCH   5  10
ATOM     10  C   UNL     1       0.252   0.764   0.224  0.00  0.00    +0.219 C 
ATOM     11  O   UNL     1       0.281  -0.402  -0.107  0.00  0.00    -0.275 OA
ATOM     12  N   UNL     1      -0.901   1.315   0.652  0.00  0.00    -0.301 N 
ATOM     13  C   UNL     1      -2.060   0.465   0.806  0.00  0.00    +0.108 C 
ATOM     14  C   UNL     1      -2.850   0.408  -0.519  0.00  0.00    +0.019 C 
ATOM     15  C   UNL     1      -3.522   1.693  -0.767  0.00  0.00    +0.002 C 
ATOM     16  C   UNL     1      -2.573   2.875  -0.941  0.00  0.00    +0.002 C 
ATOM     17  C   UNL     1      -2.214   3.432   0.414  0.00  0.00    +0.019 C 
ATOM     18  C   UNL     1      -0.930   2.763   0.938  0.00  0.00    +0.108 C 
ENDBRANCH   5  10
ENDBRANCH   2   8
BRANCH   2  19
ATOM     19  C   UNL     1       5.436   3.994  -0.336  0.00  0.00    +0.204 C 
ATOM     20  O   UNL     1       4.609   4.138   0.539  0.00  0.00    -0.277 OA
ATOM     21  N   UNL     1       6.628   4.617  -0.245  0.00  0.00    -0.280 N 
ATOM     22  H   UNL     1       7.290   4.502  -0.945  0.00  0.00    +0.155 HD
BRANCH  21  23
ATOM     23  C   UNL     1       6.908   5.422   0.850  0.00  0.00    +0.090 A 
ATOM     24  C   UNL     1       8.064   6.137   1.119  0.00  0.00    +0.084 A 
ATOM     25  C   UNL     1       8.108   6.917   2.349  0.00  0.00    -0.018 A 
ATOM     26  C   UNL     1       6.994   6.844   3.109  0.00  0.00    -0.004 A 
ATOM     27  S   UNL     1       5.896   5.784   2.207  0.00  0.00    -0.077 S 
ATOM     28  C   UNL     1       6.737   7.511   4.424  0.00  0.00    +0.043 C 
ATOM     29  C   UNL     1       7.107   8.997   4.318  0.00  0.00    +0.005 C 
ATOM     30  C   UNL     1       8.578   9.156   4.689  0.00  0.00    +0.001 C 
ATOM     31  C   UNL     1       9.367   7.923   4.255  0.00  0.00    +0.005 C 
ATOM     32  C   UNL     1       9.314   7.762   2.739  0.00  0.00    +0.037 C 
BRANCH  24  33
ATOM     33  C   UNL     1       9.177   6.112   0.219  0.00  0.00    +0.102 C 
ATOM     34  N   UNL     1      10.060   6.091  -0.495  0.00  0.00    -0.191 NA
ENDBRANCH  24  33
ENDBRANCH  21  23
ENDBRANCH   2  19
TORSDOF 5
