REMARK  Name = ZINC00730340
REMARK  5 active torsions:
REMARK  status: ('A' for Active; 'I' for Inactive)
REMARK    1  A    between atoms: C_5  and  C_7
REMARK    2  A    between atoms: N_9  and  C_10
REMARK    3  A    between atoms: C_11  and  C_19
REMARK    4  A    between atoms: N_21  and  C_22
REMARK    5  A    between atoms: C_22  and  C_23
REMARK                            x       y       z     vdW  Elec       q    Type
REMARK                         _______ _______ _______ _____ _____    ______ ____
ROOT
ATOM      1  C   UNL     1       0.122  -4.241  -0.024  0.00  0.00    +0.085 A 
ATOM      2  C   UNL     1      -0.956  -5.113  -0.025  0.00  0.00    +0.069 A 
ATOM      3  C   UNL     1      -0.658  -6.535  -0.035  0.00  0.00    -0.023 A 
ATOM      4  C   UNL     1       0.661  -6.824  -0.043  0.00  0.00    -0.004 A 
ATOM      5  S   UNL     1       1.465  -5.248  -0.044  0.00  0.00    -0.077 S 
ATOM      6  C   UNL     1       1.284  -8.185  -0.053  0.00  0.00    +0.043 C 
ATOM      7  C   UNL     1       0.206  -9.211   0.328  0.00  0.00    +0.005 C 
ATOM      8  C   UNL     1      -1.052  -8.939  -0.501  0.00  0.00    +0.005 C 
ATOM      9  C   UNL     1      -1.709  -7.636  -0.038  0.00  0.00    +0.037 C 
ENDROOT
BRANCH   1  12
ATOM     10  C   UNL     1       1.250  -2.160  -0.023  0.00  0.00    +0.250 C 
ATOM     11  O   UNL     1       2.314  -2.748  -0.037  0.00  0.00    -0.270 OA
ATOM     12  N   UNL     1       0.096  -2.855  -0.016  0.00  0.00    -0.275 N 
ATOM     13  H   UNL     1      -0.753  -2.386  -0.004  0.00  0.00    +0.156 HD
BRANCH  10  18
ATOM     14  C   UNL     1      -0.017   1.375   0.010  0.00  0.00    +0.001 A 
ATOM     15  C   UNL     1       1.170   2.087   0.002  0.00  0.00    +0.001 A 
ATOM     16  C   UNL     1       2.383   1.423  -0.013  0.00  0.00    +0.021 A 
ATOM     17  C   UNL     1       2.417   0.042  -0.021  0.00  0.00    +0.053 A 
ATOM     18  C   UNL     1       1.222  -0.683  -0.014  0.00  0.00    +0.055 A 
ATOM     19  C   UNL     1       0.002  -0.004   0.002  0.00  0.00    +0.014 A 
ATOM     20 CL   UNL     1       3.940  -0.791  -0.042  0.00  0.00    -0.083 Cl
ENDBRANCH  10  18
ENDBRANCH   1  12
BRANCH   2  21
ATOM     21  C   UNL     1      -2.337  -4.622  -0.014  0.00  0.00    +0.247 C 
ATOM     22  O   UNL     1      -2.916  -4.411  -1.064  0.00  0.00    -0.270 OA
ATOM     23  N   UNL     1      -2.966  -4.403   1.158  0.00  0.00    -0.309 N 
ATOM     24  H   UNL     1      -2.504  -4.571   1.994  0.00  0.00    +0.149 HD
BRANCH  23  25
ATOM     25  C   UNL     1      -4.346  -3.912   1.168  0.00  0.00    +0.136 C 
BRANCH  25  26
ATOM     26  C   UNL     1      -4.818  -3.750   2.614  0.00  0.00    +0.135 C 
ATOM     27  C   UNL     1      -6.309  -3.349   2.636  0.00  0.00    +0.035 C 
ATOM     28  C   UNL     1      -6.356  -2.316   3.795  0.00  0.00    +0.031 C 
ATOM     29  C   UNL     1      -4.967  -1.645   3.647  0.00  0.00    +0.160 C 
ATOM     30  O   UNL     1      -4.077  -2.704   3.253  0.00  0.00    -0.375 OA
ENDBRANCH  25  26
ENDBRANCH  23  25
ENDBRANCH   2  21
TORSDOF 5
