REMARK  Name = ZINC64657396
REMARK  6 active torsions:
REMARK  status: ('A' for Active; 'I' for Inactive)
REMARK    1  A    between atoms: C_4  and  C_7
REMARK    2  A    between atoms: C_9  and  S_14
REMARK    3  A    between atoms: S_14  and  C_15
REMARK    4  A    between atoms: C_15  and  C_16
REMARK    5  A    between atoms: N_18  and  C_19
REMARK    6  A    between atoms: C_21  and  C_26
REMARK                            x       y       z     vdW  Elec       q    Type
REMARK                         _______ _______ _______ _____ _____    ______ ____
ROOT
ATOM      1  C   UNL     1      10.268  -0.915  -0.758  0.00  0.00    +0.226 C 
ATOM      2  O   UNL     1      10.089   0.261  -0.992  0.00  0.00    -0.275 OA
ATOM      3  N   UNL     1      11.496  -1.355  -0.419  0.00  0.00    -0.277 N 
ATOM      4  H   UNL     1      11.639  -2.296  -0.232  0.00  0.00    +0.152 HD
ENDROOT
BRANCH   3   5
ATOM      5  C   UNL     1      12.614  -0.413  -0.334  0.00  0.00    +0.305 C 
ATOM      6  C   UNL     1      13.628  -0.851   0.750  0.00  0.00    +0.125 C 
ATOM      7  C   UNL     1      14.642  -1.645  -0.051  0.00  0.00    +0.139 C 
ATOM      8  N   UNL     1      14.470  -1.387  -1.289  0.00  0.00    -0.094 NA
ATOM      9  O   UNL     1      13.425  -0.464  -1.526  0.00  0.00    -0.370 OA
BRANCH   6  10
ATOM     10  C   UNL     1      12.961  -1.718   1.787  0.00  0.00    -0.034 A 
ATOM     11  C   UNL     1      12.733  -3.056   1.525  0.00  0.00    +0.007 A 
ATOM     12  C   UNL     1      12.122  -3.852   2.476  0.00  0.00    +0.038 A 
ATOM     13  C   UNL     1      11.739  -3.309   3.690  0.00  0.00    +0.123 A 
ATOM     14  C   UNL     1      11.968  -1.969   3.951  0.00  0.00    +0.038 A 
ATOM     15  C   UNL     1      12.584  -1.176   3.002  0.00  0.00    +0.007 A 
ATOM     16  F   UNL     1      11.141  -4.087   4.620  0.00  0.00    -0.205 F 
ENDBRANCH   6  10
ENDBRANCH   3   5
BRANCH   1  17
ATOM     17  C   UNL     1       9.117  -1.884  -0.845  0.00  0.00    +0.173 C 
BRANCH  17  18
ATOM     18  S   UNL     1       7.610  -0.993  -1.319  0.00  0.00    -0.079 S 
BRANCH  18  21
ATOM     19  C   UNL     1       4.140  -2.728  -1.781  0.00  0.00    +0.060 C 
ATOM     20  N   UNL     1       5.134  -1.874  -1.708  0.00  0.00    -0.228 NA
ATOM     21  C   UNL     1       6.374  -2.247  -1.378  0.00  0.00    +0.181 C 
ATOM     22  N   UNL     1       6.746  -3.482  -1.093  0.00  0.00    -0.155 NA
ATOM     23  C   UNL     1       5.884  -4.500  -1.110  0.00  0.00    +0.244 C 
ATOM     24  O   UNL     1       6.236  -5.633  -0.846  0.00  0.00    -0.273 OA
ATOM     25  C   UNL     1       4.444  -4.182  -1.468  0.00  0.00    +0.154 C 
BRANCH  19  29
ATOM     26  C   UNL     1       0.231  -1.473  -2.835  0.00  0.00    +0.000 A 
ATOM     27  C   UNL     1       1.258  -0.547  -2.772  0.00  0.00    +0.001 A 
ATOM     28  C   UNL     1       2.532  -0.946  -2.430  0.00  0.00    +0.010 A 
ATOM     29  C   UNL     1       2.786  -2.293  -2.146  0.00  0.00    -0.003 A 
ATOM     30  C   UNL     1       1.742  -3.224  -2.212  0.00  0.00    +0.010 A 
ATOM     31  C   UNL     1       0.473  -2.807  -2.556  0.00  0.00    +0.001 A 
ENDBRANCH  19  29
ENDBRANCH  18  21
ENDBRANCH  17  18
ENDBRANCH   1  17
TORSDOF 6
