REMARK  Name = ZINC08850049
REMARK  5 active torsions:
REMARK  status: ('A' for Active; 'I' for Inactive)
REMARK    1  A    between atoms: N_13  and  C_17
REMARK    2  A    between atoms: C_17  and  C_18
REMARK    3  A    between atoms: N_20  and  C_21
REMARK    4  A    between atoms: N_20  and  C_29
REMARK    5  A    between atoms: C_21  and  C_22
REMARK                            x       y       z     vdW  Elec       q    Type
REMARK                         _______ _______ _______ _____ _____    ______ ____
ROOT
ATOM      1  C   UNL     1      -3.767   0.549   2.497  0.00  0.00    +0.213 C 
ENDROOT
BRANCH   1  14
ATOM      2  C   UNL     1      -0.220  -1.639  -3.020  0.00  0.00    +0.000 A 
ATOM      3  C   UNL     1      -0.025  -1.538  -1.655  0.00  0.00    +0.000 A 
ATOM      4  C   UNL     1      -0.664  -0.545  -0.942  0.00  0.00    +0.006 A 
ATOM      5  C   UNL     1      -1.512   0.349  -1.583  0.00  0.00    -0.012 A 
ATOM      6  C   UNL     1      -1.702   0.252  -2.944  0.00  0.00    -0.042 A 
ATOM      7  C   UNL     1      -1.055  -0.747  -3.660  0.00  0.00    +0.004 A 
ATOM      8  C   UNL     1      -2.593   1.199  -3.705  0.00  0.00    +0.035 C 
ATOM      9  C   UNL     1      -3.548   1.921  -2.758  0.00  0.00    +0.008 C 
ATOM     10  C   UNL     1      -2.729   2.534  -1.615  0.00  0.00    +0.040 C 
ATOM     11  C   UNL     1      -2.188   1.402  -0.751  0.00  0.00    +0.138 C 
ATOM     12  C   UNL     1      -3.303   0.786   0.065  0.00  0.00    +0.251 C 
ATOM     13  O   UNL     1      -4.295   0.228  -0.353  0.00  0.00    -0.272 OA
ATOM     14  N   UNL     1      -2.962   0.987   1.354  0.00  0.00    -0.215 N 
ATOM     15  C   UNL     1      -1.797   1.638   1.460  0.00  0.00    +0.310 C 
ATOM     16  O   UNL     1      -1.282   1.933   2.520  0.00  0.00    -0.252 OA
ATOM     17  N   UNL     1      -1.260   1.927   0.260  0.00  0.00    -0.281 N 
ATOM     18  H   UNL     1      -0.424   2.392   0.094  0.00  0.00    +0.152 HD
ENDBRANCH   1  14
BRANCH   1  19
ATOM     19  C   UNL     1      -3.352  -0.842   2.900  0.00  0.00    +0.234 C 
ATOM     20  O   UNL     1      -2.539  -1.449   2.234  0.00  0.00    -0.274 OA
ATOM     21  N   UNL     1      -3.882  -1.412   4.000  0.00  0.00    -0.293 N 
BRANCH  21  22
ATOM     22  C   UNL     1      -3.394  -2.715   4.458  0.00  0.00    +0.076 C 
ATOM     23  C   UNL     1      -1.881  -2.645   4.674  0.00  0.00    +0.022 C 
ATOM     24  C   UNL     1      -1.370  -4.006   5.153  0.00  0.00    +0.002 C 
ATOM     25  C   UNL     1      -1.687  -5.069   4.099  0.00  0.00    +0.000 C 
ATOM     26  C   UNL     1      -3.200  -5.139   3.883  0.00  0.00    +0.002 C 
ATOM     27  C   UNL     1      -3.710  -3.778   3.404  0.00  0.00    +0.022 C 
ENDBRANCH  21  22
BRANCH  21  28
ATOM     28  C   UNL     1      -4.948  -0.729   4.737  0.00  0.00    +0.143 C 
BRANCH  28  29
ATOM     29  C   UNL     1      -6.287  -1.262   4.293  0.00  0.00    -0.030 A 
ATOM     30  C   UNL     1      -6.914  -0.719   3.188  0.00  0.00    +0.008 A 
ATOM     31  C   UNL     1      -8.139  -1.210   2.778  0.00  0.00    +0.038 A 
ATOM     32  C   UNL     1      -8.743  -2.238   3.481  0.00  0.00    +0.123 A 
ATOM     33  C   UNL     1      -8.116  -2.778   4.591  0.00  0.00    +0.038 A 
ATOM     34  C   UNL     1      -6.888  -2.289   4.996  0.00  0.00    +0.008 A 
ATOM     35  F   UNL     1      -9.943  -2.716   3.083  0.00  0.00    -0.205 F 
ENDBRANCH  28  29
ENDBRANCH  21  28
ENDBRANCH   1  19
TORSDOF 5
