REMARK  Name = ZINC39560782
REMARK  10 active torsions:
REMARK  status: ('A' for Active; 'I' for Inactive)
REMARK    1  A    between atoms: C_1  and  O_2
REMARK    2  A    between atoms: O_2  and  C_3
REMARK    3  A    between atoms: C_3  and  C_5
REMARK    4  A    between atoms: C_20  and  C_30
REMARK    5  A    between atoms: C_23  and  N_26
REMARK    6  A    between atoms: N_26  and  C_27
REMARK    7  A    between atoms: C_27  and  C_28
REMARK    8  A    between atoms: C_28  and  O_29
REMARK    9  A    between atoms: C_33  and  O_36
REMARK   10  A    between atoms: O_36  and  C_37
REMARK                            x       y       z     vdW  Elec       q    Type
REMARK                         _______ _______ _______ _____ _____    ______ ____
ROOT
ATOM      1  C   UNL     1       0.657  -2.104  -1.120  0.00  0.00    +0.172 C 
ATOM      2  C   UNL     1       1.517  -2.640   0.034  0.00  0.00    +0.067 C 
ATOM      3  C   UNL     1       2.953  -2.277  -0.252  0.00  0.00    -0.017 C 
ATOM      4  C   UNL     1       4.019  -2.273   0.563  0.00  0.00    -0.013 C 
ATOM      5  C   UNL     1       4.147  -2.625   2.018  0.00  0.00    +0.064 C 
ATOM      6  C   UNL     1       5.572  -2.451   2.460  0.00  0.00    -0.022 C 
ATOM      7  C   UNL     1       6.566  -2.046   1.676  0.00  0.00    -0.002 C 
ATOM      8  C   UNL     1       6.405  -1.724   0.313  0.00  0.00    +0.028 C 
ATOM      9  C   UNL     1       5.126  -1.843  -0.230  0.00  0.00    +0.068 C 
ATOM     10  N   UNL     1       4.681  -1.611  -1.473  0.00  0.00    -0.250 NA
ATOM     11  C   UNL     1       3.397  -1.859  -1.526  0.00  0.00    +0.063 C 
ATOM     12  C   UNL     1       2.469  -1.750  -2.710  0.00  0.00    +0.106 C 
ATOM     13  N   UNL     1       1.244  -2.503  -2.403  0.00  0.00    -0.274 NA
ATOM     14  C   UNL     1       0.275  -2.393  -3.500  0.00  0.00    +0.087 C 
ATOM     15  C   UNL     1       0.872  -3.007  -4.768  0.00  0.00    +0.008 C 
ATOM     16  C   UNL     1       2.169  -2.277  -5.127  0.00  0.00    -0.068 C 
ATOM     17  C   UNL     1       3.142  -2.339  -3.951  0.00  0.00    +0.009 C 
ENDROOT
BRANCH  14  18
ATOM     18  C   UNL     1      -0.988  -3.127  -3.131  0.00  0.00    -0.030 A 
ATOM     19  C   UNL     1      -0.914  -4.336  -2.464  0.00  0.00    +0.009 A 
ATOM     20  C   UNL     1      -2.070  -5.012  -2.126  0.00  0.00    +0.046 A 
ATOM     21  C   UNL     1      -3.307  -4.476  -2.454  0.00  0.00    +0.130 A 
ATOM     22  C   UNL     1      -3.379  -3.262  -3.123  0.00  0.00    +0.046 A 
ATOM     23  C   UNL     1      -2.220  -2.588  -3.455  0.00  0.00    +0.009 A 
BRANCH  21  24
ATOM     24  O   UNL     1      -4.446  -5.139  -2.123  0.00  0.00    -0.406 OA
BRANCH  24  25
ATOM     25  C   UNL     1      -5.684  -4.528  -2.493  0.00  0.00    +0.575 C 
ATOM     26  F   UNL     1      -5.730  -4.373  -3.882  0.00  0.00    -0.133 F 
ATOM     27  F   UNL     1      -6.746  -5.338  -2.078  0.00  0.00    -0.133 F 
ATOM     28  F   UNL     1      -5.786  -3.274  -1.880  0.00  0.00    -0.133 F 
ENDBRANCH  24  25
ENDBRANCH  21  24
ENDBRANCH  14  18
BRANCH  16  29
ATOM     29  N   UNL     1       1.872  -0.869  -5.425  0.00  0.00    +0.382 N 
ATOM     30  H   UNL     1       1.380  -0.457  -4.646  0.00  0.00    -0.085 HD
ATOM     31  H   UNL     1       2.735  -0.369  -5.580  0.00  0.00    -0.085 HD
BRANCH  29  32
ATOM     32  C   UNL     1       1.036  -0.790  -6.630  0.00  0.00    -0.054 C 
BRANCH  32  33
ATOM     33  C   UNL     1       0.727   0.676  -6.940  0.00  0.00    +0.137 C 
BRANCH  33  34
ATOM     34  O   UNL     1       1.937   1.358  -7.274  0.00  0.00    -0.397 OA
ATOM     35  H   UNL     1       1.817   2.294  -7.484  0.00  0.00    +0.209 HD
ENDBRANCH  33  34
ENDBRANCH  32  33
ENDBRANCH  29  32
ENDBRANCH  16  29
BRANCH   1  36
ATOM     36  C   UNL     1       0.598  -0.600  -1.043  0.00  0.00    +0.325 C 
ATOM     37  O   UNL     1       1.576   0.058  -1.309  0.00  0.00    -0.249 OA
BRANCH  36  39
ATOM     38  C   UNL     1      -0.525   1.437  -0.626  0.00  0.00    +0.280 C 
ATOM     39  O   UNL     1      -0.541   0.009  -0.678  0.00  0.00    -0.467 OA
ENDBRANCH  36  39
ENDBRANCH   1  36
TORSDOF 9
