REMARK  Name = ZINC13065190
REMARK  13 active torsions:
REMARK  status: ('A' for Active; 'I' for Inactive)
REMARK    1  A    between atoms: C_1  and  C_2
REMARK    2  A    between atoms: C_2  and  C_3
REMARK    3  A    between atoms: C_3  and  C_5
REMARK    4  A    between atoms: C_3  and  N_73
REMARK    5  A    between atoms: N_9  and  C_10
REMARK    6  A    between atoms: C_15  and  C_16
REMARK    7  A    between atoms: C_15  and  N_73
REMARK    8  A    between atoms: C_19  and  O_22
REMARK    9  A    between atoms: O_22  and  C_23
REMARK   10  A    between atoms: C_24  and  C_25
REMARK   11  A    between atoms: C_24  and  N_73
REMARK   12  A    between atoms: C_28  and  C_38
REMARK   13  A    between atoms: C_31  and  C_37
REMARK                            x       y       z     vdW  Elec       q    Type
REMARK                         _______ _______ _______ _____ _____    ______ ____
ROOT
ATOM      1  N   UNL     1      -0.156   0.009  -0.072  0.00  0.00    +0.392 N 
ATOM      2  H   UNL     1       0.522  -0.396   0.584  0.00  0.00    -0.080 HD
ENDROOT
BRANCH   1   3
ATOM      3  C   UNL     1      -0.415   1.413   0.310  0.00  0.00    +0.003 C 
BRANCH   3   4
ATOM      4  C   UNL     1       0.823   1.967   0.968  0.00  0.00    +0.138 A 
ATOM      5  N   UNL     1       2.066   1.695   0.651  0.00  0.00    -0.115 NA
ATOM      6  N   UNL     1       2.833   2.365   1.441  0.00  0.00    -0.023 NA
ATOM      7  N   UNL     1       2.111   3.050   2.258  0.00  0.00    -0.044 NA
ATOM      8  N   UNL     1       0.867   2.831   1.998  0.00  0.00    -0.228 N 
BRANCH   8   9
ATOM      9  C   UNL     1      -0.283   3.415   2.694  0.00  0.00    +0.111 C 
ATOM     10  C   UNL     1      -0.283   4.948   2.521  0.00  0.00    +0.027 C 
ATOM     11  C   UNL     1      -0.785   5.484   3.885  0.00  0.00    +0.002 C 
ATOM     12  C   UNL     1      -0.118   4.520   4.898  0.00  0.00    +0.002 C 
ATOM     13  C   UNL     1      -0.178   3.143   4.205  0.00  0.00    +0.027 C 
ENDBRANCH   8   9
ENDBRANCH   3   4
BRANCH   3  15
ATOM     14  C   UNL     1      -2.087   1.782  -1.509  0.00  0.00    +0.002 C 
ATOM     15  C   UNL     1      -0.752   2.249  -0.927  0.00  0.00    -0.011 C 
ENDBRANCH   3  15
ENDBRANCH   1   3
BRANCH   1  16
ATOM     16  C   UNL     1       0.405  -0.048  -1.439  0.00  0.00    -0.042 C 
BRANCH  16  17
ATOM     17  C   UNL     1       1.866   0.317  -1.376  0.00  0.00    -0.064 A 
ATOM     18  C   UNL     1       2.288   1.556  -1.822  0.00  0.00    +0.005 A 
ATOM     19  C   UNL     1       3.626   1.894  -1.761  0.00  0.00    +0.046 A 
ATOM     20  C   UNL     1       4.547   0.986  -1.261  0.00  0.00    +0.120 A 
ATOM     21  C   UNL     1       4.122  -0.259  -0.819  0.00  0.00    +0.046 A 
ATOM     22  C   UNL     1       2.782  -0.590  -0.877  0.00  0.00    +0.005 A 
BRANCH  20  23
ATOM     23  O   UNL     1       5.865   1.315  -1.204  0.00  0.00    -0.495 OA
ATOM     24  C   UNL     1       6.231   2.613  -1.676  0.00  0.00    +0.277 C 
ENDBRANCH  20  23
ENDBRANCH  16  17
ENDBRANCH   1  16
BRANCH   1  25
ATOM     25  C   UNL     1      -1.410  -0.771  -0.008  0.00  0.00    -0.036 C 
BRANCH  25  26
ATOM     26  C   UNL     1      -1.681  -1.131   1.430  0.00  0.00    +0.001 A 
ATOM     27  C   UNL     1      -2.512  -0.359   2.174  0.00  0.00    +0.017 A 
ATOM     28  C   UNL     1      -2.758  -0.739   3.567  0.00  0.00    +0.002 A 
ATOM     29  C   UNL     1      -3.610   0.014   4.382  0.00  0.00    -0.041 A 
ATOM     30  C   UNL     1      -3.815  -0.365   5.678  0.00  0.00    +0.004 A 
ATOM     31  C   UNL     1      -3.187  -1.490   6.194  0.00  0.00    +0.005 A 
ATOM     32  C   UNL     1      -2.343  -2.246   5.409  0.00  0.00    -0.026 A 
ATOM     33  C   UNL     1      -2.119  -1.881   4.086  0.00  0.00    +0.052 A 
ATOM     34  N   UNL     1      -1.282  -2.620   3.278  0.00  0.00    -0.322 N 
ATOM     35  H   UNL     1      -0.842  -3.406   3.637  0.00  0.00    +0.169 HD
ATOM     36  C   UNL     1      -1.065  -2.266   1.999  0.00  0.00    +0.251 A 
ATOM     37  O   UNL     1      -0.318  -2.942   1.313  0.00  0.00    -0.268 OA
ATOM     38  C   UNL     1      -1.668  -3.466   5.982  0.00  0.00    +0.046 C 
ATOM     39  C   UNL     1      -4.298   1.237   3.833  0.00  0.00    +0.044 C 
ENDBRANCH  25  26
ENDBRANCH   1  25
TORSDOF 9
