REMARK  Name = ZINC17520092
REMARK  9 active torsions:
REMARK  status: ('A' for Active; 'I' for Inactive)
REMARK    1  A    between atoms: C_1  and  C_2
REMARK    2  A    between atoms: C_6  and  C_18
REMARK    3  A    between atoms: C_9  and  O_11
REMARK    4  A    between atoms: O_11  and  C_12
REMARK    5  A    between atoms: C_12  and  C_13
REMARK    6  A    between atoms: C_13  and  O_14
REMARK    7  A    between atoms: O_14  and  C_15
REMARK    8  A    between atoms: C_15  and  C_16
REMARK    9  A    between atoms: C_15  and  C_17
REMARK                            x       y       z     vdW  Elec       q    Type
REMARK                         _______ _______ _______ _____ _____    ______ ____
ROOT
ATOM      1  C   UNL     1       0.019   1.503   0.007  0.00  0.00    +0.066 C 
ATOM      2  C   UNL     1       0.020  -0.004   0.000  0.00  0.00    +0.049 C 
ATOM      3  N   UNL     1      -0.077  -0.634  -1.147  0.00  0.00    -0.256 NA
ATOM      4  C   UNL     1      -0.091  -1.952  -1.310  0.00  0.00    +0.049 C 
ATOM      5  C   UNL     1      -0.001  -2.807  -0.232  0.00  0.00    +0.028 C 
ATOM      6  C   UNL     1       0.119  -2.201   1.153  0.00  0.00    +0.094 C 
ATOM      7  C   UNL     1       0.129  -0.684   1.212  0.00  0.00    +0.069 C 
ATOM      8  C   UNL     1       0.237  -0.009   2.411  0.00  0.00    +0.338 C 
ATOM      9  O   UNL     1       0.459  -0.693   3.550  0.00  0.00    -0.245 OA
ATOM     10  C   UNL     1      -0.020  -4.188  -0.383  0.00  0.00    +0.162 C 
ATOM     11  O   UNL     1       0.066  -4.901   0.598  0.00  0.00    -0.292 OA
ATOM     12  C   UNL     1      -0.147  -4.812  -1.749  0.00  0.00    +0.080 C 
ATOM     13  C   UNL     1      -0.928  -3.861  -2.660  0.00  0.00    +0.014 C 
ATOM     14  C   UNL     1      -0.204  -2.513  -2.708  0.00  0.00    +0.056 C 
ENDROOT
BRANCH   6  15
ATOM     15  C   UNL     1       1.399  -2.697   1.775  0.00  0.00    -0.018 A 
ATOM     16  C   UNL     1       2.612  -2.424   1.169  0.00  0.00    +0.055 A 
ATOM     17  C   UNL     1       3.789  -2.879   1.738  0.00  0.00    +0.167 A 
ATOM     18  C   UNL     1       3.749  -3.612   2.922  0.00  0.00    +0.167 A 
ATOM     19  C   UNL     1       2.532  -3.882   3.525  0.00  0.00    +0.065 A 
ATOM     20  C   UNL     1       1.359  -3.419   2.954  0.00  0.00    +0.026 A 
ATOM     21 BR   UNL     1      -0.301  -3.783   3.782  0.00  0.00    -0.050 Br
ATOM     22  O   UNL     1       5.026  -3.941   3.275  0.00  0.00    -0.453 OA
ATOM     23  C   UNL     1       5.814  -3.755   2.084  0.00  0.00    +0.466 C 
ATOM     24  O   UNL     1       5.092  -2.750   1.349  0.00  0.00    -0.453 OA
ENDBRANCH   6  15
BRANCH   8  25
ATOM     25  O   UNL     1       0.120   1.332   2.441  0.00  0.00    -0.459 OA
BRANCH  25  26
ATOM     26  C   UNL     1       0.242   1.965   3.717  0.00  0.00    +0.260 C 
BRANCH  26  27
ATOM     27  C   UNL     1       0.083   3.478   3.553  0.00  0.00    +0.201 C 
BRANCH  27  28
ATOM     28  O   UNL     1      -1.244   3.772   3.111  0.00  0.00    -0.374 OA
BRANCH  28  29
ATOM     29  C   UNL     1      -1.500   5.165   2.926  0.00  0.00    +0.112 C 
ATOM     30  C   UNL     1      -1.157   5.560   1.488  0.00  0.00    +0.037 C 
ATOM     31  C   UNL     1      -2.979   5.452   3.195  0.00  0.00    +0.037 C 
ENDBRANCH  28  29
ENDBRANCH  27  28
ENDBRANCH  26  27
ENDBRANCH  25  26
ENDBRANCH   8  25
TORSDOF 6
