REMARK  Name = ZINC18195775
REMARK  6 active torsions:
REMARK  status: ('A' for Active; 'I' for Inactive)
REMARK    1  A    between atoms: C_4  and  N_7
REMARK    2  A    between atoms: C_10  and  C_15
REMARK    3  A    between atoms: C_15  and  C_17
REMARK    4  A    between atoms: C_15  and  O_30
REMARK    5  A    between atoms: C_21  and  O_23
REMARK    6  A    between atoms: O_23  and  C_24
REMARK                            x       y       z     vdW  Elec       q    Type
REMARK                         _______ _______ _______ _____ _____    ______ ____
ROOT
ATOM      1  C   UNL     1       5.647  -2.887   1.102  0.00  0.00    +0.164 C 
ENDROOT
BRANCH   1   5
ATOM      2  N   UNL     1       3.742  -0.446  -0.221  0.00  0.00    -0.159 N 
ATOM      3  C   UNL     1       3.809  -1.793  -0.199  0.00  0.00    +0.252 C 
ATOM      4  O   UNL     1       2.882  -2.576  -0.202  0.00  0.00    -0.273 OA
ATOM      5  C   UNL     1       5.289  -2.119  -0.172  0.00  0.00    +0.174 C 
ATOM      6  C   UNL     1       5.955  -0.759  -0.183  0.00  0.00    +0.126 C 
ATOM      7  N   UNL     1       5.012   0.122  -0.217  0.00  0.00    -0.161 NA
ATOM      8  N   UNL     1       7.313  -0.509  -0.166  0.00  0.00    -0.345 N 
ATOM      9  H   UNL     1       7.942  -1.247  -0.145  0.00  0.00    +0.143 HD
ATOM     10  H   UNL     1       7.638   0.405  -0.175  0.00  0.00    +0.143 HD
BRANCH   2  14
ATOM     11  C   UNL     1       0.192   1.732  -0.310  0.00  0.00    +0.000 A 
ATOM     12  C   UNL     1       1.407   2.393  -0.307  0.00  0.00    +0.002 A 
ATOM     13  C   UNL     1       2.585   1.674  -0.277  0.00  0.00    +0.025 A 
ATOM     14  C   UNL     1       2.550   0.285  -0.251  0.00  0.00    +0.060 A 
ATOM     15  C   UNL     1       1.328  -0.375  -0.254  0.00  0.00    +0.025 A 
ATOM     16  C   UNL     1       0.153   0.350  -0.283  0.00  0.00    +0.002 A 
ENDBRANCH   2  14
ENDBRANCH   1   5
BRANCH   1  17
ATOM     17  C   UNL     1       7.122  -3.198   1.104  0.00  0.00    -0.015 A 
ATOM     18  C   UNL     1       7.605  -4.260   0.362  0.00  0.00    +0.006 A 
ATOM     19  C   UNL     1       8.957  -4.548   0.361  0.00  0.00    +0.004 A 
ATOM     20  C   UNL     1       9.829  -3.774   1.101  0.00  0.00    +0.046 A 
ATOM     21  C   UNL     1       9.348  -2.707   1.846  0.00  0.00    +0.129 A 
ATOM     22  C   UNL     1       7.991  -2.417   1.841  0.00  0.00    +0.052 A 
BRANCH  21  23
ATOM     23  O   UNL     1      10.204  -1.945   2.576  0.00  0.00    -0.456 OA
BRANCH  23  24
ATOM     24  C   UNL     1      10.110  -1.998   3.930  0.00  0.00    +0.128 A 
ATOM     25  C   UNL     1       9.255  -2.910   4.532  0.00  0.00    +0.046 A 
ATOM     26  C   UNL     1       9.161  -2.962   5.910  0.00  0.00    +0.004 A 
ATOM     27  C   UNL     1       9.919  -2.107   6.688  0.00  0.00    +0.000 A 
ATOM     28  C   UNL     1      10.772  -1.197   6.091  0.00  0.00    +0.004 A 
ATOM     29  C   UNL     1      10.874  -1.145   4.714  0.00  0.00    +0.046 A 
ENDBRANCH  23  24
ENDBRANCH  21  23
ENDBRANCH   1  17
BRANCH   1  30
ATOM     30  O   UNL     1       4.903  -4.106   1.148  0.00  0.00    -0.386 OA
ATOM     31  H   UNL     1       5.071  -4.698   0.402  0.00  0.00    +0.210 HD
ENDBRANCH   1  30
TORSDOF 6
