REMARK  Name = ZINC61594642
REMARK  7 active torsions:
REMARK  status: ('A' for Active; 'I' for Inactive)
REMARK    1  A    between atoms: C_1  and  C_2
REMARK    2  A    between atoms: C_2  and  C_4
REMARK    3  A    between atoms: C_2  and  N_24
REMARK    4  A    between atoms: C_4  and  C_6
REMARK    5  A    between atoms: C_4  and  S_13
REMARK    6  A    between atoms: S_13  and  C_14
REMARK    7  A    between atoms: N_20  and  C_21
REMARK                            x       y       z     vdW  Elec       q    Type
REMARK                         _______ _______ _______ _____ _____    ______ ____
ROOT
ATOM      1  C   UNL     1       0.774  -0.430   1.233  0.00  0.00    +0.069 C 
ENDROOT
BRANCH   1   2
ATOM      2  C   UNL     1       0.919  -1.884   1.604  0.00  0.00    -0.035 A 
ATOM      3  C   UNL     1      -0.201  -2.633   1.913  0.00  0.00    +0.005 A 
ATOM      4  C   UNL     1      -0.069  -3.966   2.254  0.00  0.00    +0.001 A 
ATOM      5  C   UNL     1       1.183  -4.551   2.285  0.00  0.00    +0.015 A 
ATOM      6  C   UNL     1       2.304  -3.802   1.976  0.00  0.00    +0.018 A 
ATOM      7  C   UNL     1       2.170  -2.469   1.630  0.00  0.00    +0.020 A 
ATOM      8 BR   UNL     1       4.017  -4.601   2.020  0.00  0.00    -0.050 Br
ENDBRANCH   1   2
BRANCH   1  10
ATOM      9  C   UNL     1      -1.197  -0.906  -0.227  0.00  0.00    -0.013 C 
ATOM     10  C   UNL     1       0.215  -0.320  -0.187  0.00  0.00    -0.060 C 
BRANCH  10  11
ATOM     11  N   UNL     1       1.080  -1.064  -1.113  0.00  0.00    +0.381 N 
ATOM     12  H   UNL     1       0.763  -0.918  -2.060  0.00  0.00    -0.090 HD
ATOM     13  H   UNL     1       2.030  -0.736  -1.022  0.00  0.00    -0.090 HD
ATOM     14  H   UNL     1       1.041  -2.048  -0.893  0.00  0.00    -0.090 HD
ENDBRANCH  10  11
ENDBRANCH   1  10
BRANCH   1  15
ATOM     15  S   UNL     1      -0.360   0.380   2.394  0.00  0.00    -0.080 S 
BRANCH  15  16
ATOM     16  C   UNL     1      -0.236   2.090   1.987  0.00  0.00    +0.193 A 
ATOM     17  N   UNL     1       0.457   2.588   1.004  0.00  0.00    -0.145 NA
ATOM     18  N   UNL     1       0.294   3.980   1.020  0.00  0.00    -0.226 N 
ATOM     19  H   UNL     1       0.694   4.613   0.403  0.00  0.00    +0.194 HD
ATOM     20  C   UNL     1      -0.522   4.279   2.052  0.00  0.00    +0.345 A 
ATOM     21  O   UNL     1      -0.891   5.394   2.379  0.00  0.00    -0.245 OA
ATOM     22  N   UNL     1      -0.861   3.121   2.652  0.00  0.00    -0.268 N 
BRANCH  22  23
ATOM     23  C   UNL     1      -1.740   2.982   3.816  0.00  0.00    +0.094 C 
ATOM     24  C   UNL     1      -2.494   4.229   4.284  0.00  0.00    +0.027 C 
ATOM     25  C   UNL     1      -1.320   3.691   5.106  0.00  0.00    +0.027 C 
ENDBRANCH  22  23
ENDBRANCH  15  16
ENDBRANCH   1  15
TORSDOF 6
