REMARK  Name = ZINC39425963
REMARK  5 active torsions:
REMARK  status: ('A' for Active; 'I' for Inactive)
REMARK    1  A    between atoms: C_1  and  S_2
REMARK    2  A    between atoms: S_2  and  C_3
REMARK    3  A    between atoms: C_11  and  C_18
REMARK    4  A    between atoms: C_13  and  C_16
REMARK    5  A    between atoms: C_14  and  N_15
REMARK                            x       y       z     vdW  Elec       q    Type
REMARK                         _______ _______ _______ _____ _____    ______ ____
ROOT
ATOM      1  C   UNL     1      -1.902  -0.118   0.311  0.00  0.00    +0.160 A 
ATOM      2  N   UNL     1      -2.407  -0.370  -0.888  0.00  0.00    -0.133 NA
ATOM      3  N   UNL     1      -3.482  -1.014  -1.037  0.00  0.00    -0.124 NA
ATOM      4  C   UNL     1      -4.170  -1.477  -0.006  0.00  0.00    +0.194 A 
ATOM      5  S   UNL     1      -3.130  -0.916   1.340  0.00  0.00    -0.024 S 
ATOM      6  N   UNL     1      -5.360  -2.200   0.024  0.00  0.00    -0.237 N 
ATOM      7  C   UNL     1      -6.555  -1.537   0.131  0.00  0.00    +0.026 C 
ATOM      8  C   UNL     1      -7.663  -2.182   0.555  0.00  0.00    +0.025 C 
ATOM      9  C   UNL     1      -7.617  -3.643   0.923  0.00  0.00    +0.100 C 
ATOM     10  C   UNL     1      -6.394  -4.306   0.362  0.00  0.00    +0.077 C 
ATOM     11  C   UNL     1      -5.328  -3.574  -0.061  0.00  0.00    +0.108 C 
ATOM     12  C   UNL     1      -8.893  -1.510   0.671  0.00  0.00    +0.162 C 
ATOM     13  O   UNL     1      -9.875  -2.123   1.039  0.00  0.00    -0.292 OA
ATOM     14  C   UNL     1      -9.015  -0.046   0.346  0.00  0.00    +0.080 C 
ATOM     15  C   UNL     1      -7.665   0.635   0.598  0.00  0.00    +0.014 C 
ATOM     16  C   UNL     1      -6.601  -0.075  -0.241  0.00  0.00    +0.052 C 
ENDROOT
BRANCH   9  17
ATOM     17  C   UNL     1      -7.603  -3.774   2.424  0.00  0.00    +0.002 A 
ATOM     18  C   UNL     1      -6.582  -3.202   3.159  0.00  0.00    +0.022 A 
ATOM     19  C   UNL     1      -6.569  -3.322   4.537  0.00  0.00    +0.018 A 
ATOM     20  C   UNL     1      -7.579  -4.014   5.181  0.00  0.00    +0.018 A 
ATOM     21  C   UNL     1      -8.601  -4.587   4.448  0.00  0.00    +0.040 A 
ATOM     22  C   UNL     1      -8.617  -4.462   3.069  0.00  0.00    +0.128 A 
ATOM     23  F   UNL     1      -9.619  -5.017   2.352  0.00  0.00    -0.205 F 
ATOM     24 BR   UNL     1      -5.171  -2.539   5.541  0.00  0.00    -0.050 Br
ENDBRANCH   9  17
BRANCH  11  25
ATOM     25  N   UNL     1      -4.217  -4.205  -0.568  0.00  0.00    -0.345 N 
ATOM     26  H   UNL     1      -3.424  -3.690  -0.784  0.00  0.00    +0.144 HD
ATOM     27  H   UNL     1      -4.227  -5.164  -0.709  0.00  0.00    +0.144 HD
ENDBRANCH  11  25
BRANCH   1  29
ATOM     28  C   UNL     1       0.277   1.263  -0.825  0.00  0.00    +0.092 C 
ATOM     29  S   UNL     1      -0.436   0.749   0.762  0.00  0.00    -0.100 S 
ENDBRANCH   1  29
BRANCH  10  30
ATOM     30  C   UNL     1      -6.348  -5.734   0.265  0.00  0.00    +0.099 C 
ATOM     31  N   UNL     1      -6.312  -6.866   0.189  0.00  0.00    -0.191 NA
ENDBRANCH  10  30
TORSDOF 4
