REMARK  Name = ZINC35910035
REMARK  10 active torsions:
REMARK  status: ('A' for Active; 'I' for Inactive)
REMARK    1  A    between atoms: C_1  and  C_2
REMARK    2  A    between atoms: C_2  and  C_3
REMARK    3  A    between atoms: N_7  and  C_28
REMARK    4  A    between atoms: C_11  and  N_16
REMARK    5  A    between atoms: N_16  and  S_17
REMARK    6  A    between atoms: S_17  and  C_20
REMARK    7  A    between atoms: C_23  and  C_27
REMARK    8  A    between atoms: C_28  and  C_30
REMARK    9  A    between atoms: C_28  and  C_32
REMARK   10  A    between atoms: C_30  and  C_31
REMARK                            x       y       z     vdW  Elec       q    Type
REMARK                         _______ _______ _______ _____ _____    ______ ____
ROOT
ATOM      1  C   UNL     1       0.030  -0.437   0.125  0.00  0.00    +0.259 C 
ATOM      2  C   UNL     1      -0.499  -1.801  -0.196  0.00  0.00    +0.257 C 
ATOM      3  O   UNL     1      -1.471  -2.110   0.460  0.00  0.00    -0.272 OA
ATOM      4  N   UNL     1      -0.134  -2.699  -1.016  0.00  0.00    -0.287 N 
ATOM      5  C   UNL     1       0.765  -2.698  -2.122  0.00  0.00    +0.147 C 
ATOM      6  C   UNL     1       1.426  -1.414  -2.519  0.00  0.00    +0.013 A 
ATOM      7  C   UNL     1       2.335  -1.573  -3.578  0.00  0.00    +0.033 A 
ATOM      8  C   UNL     1       3.083  -0.514  -4.050  0.00  0.00    +0.049 A 
ATOM      9  C   UNL     1       2.933   0.731  -3.450  0.00  0.00    +0.028 A 
ATOM     10  C   UNL     1       2.030   0.880  -2.431  0.00  0.00    +0.048 A 
ATOM     11  C   UNL     1       1.236  -0.199  -1.971  0.00  0.00    +0.126 A 
ATOM     12  O   UNL     1       0.332   0.270  -1.062  0.00  0.00    -0.479 OA
ENDROOT
BRANCH   1  14
ATOM     13  C   UNL     1       1.769   0.814   1.413  0.00  0.00    +0.008 C 
ATOM     14  C   UNL     1       1.301  -0.573   0.967  0.00  0.00    +0.051 C 
ENDBRANCH   1  14
BRANCH   8  15
ATOM     15  N   UNL     1       3.976  -0.690  -5.112  0.00  0.00    -0.216 N 
ATOM     16  H   UNL     1       4.564  -1.461  -5.129  0.00  0.00    +0.174 HD
BRANCH  15  17
ATOM     17  S   UNL     1       4.029   0.419  -6.341  0.00  0.00    +0.072 S 
ATOM     18  O   UNL     1       4.221   1.689  -5.734  0.00  0.00    -0.150 OA
ATOM     19  O   UNL     1       4.920  -0.101  -7.319  0.00  0.00    -0.150 OA
BRANCH  17  20
ATOM     20  C   UNL     1       2.431   0.451  -7.083  0.00  0.00    +0.111 A 
ATOM     21  C   UNL     1       2.164  -0.341  -8.184  0.00  0.00    +0.029 A 
ATOM     22  C   UNL     1       0.911  -0.317  -8.767  0.00  0.00    +0.008 A 
ATOM     23  C   UNL     1      -0.076   0.501  -8.251  0.00  0.00    -0.015 A 
ATOM     24  C   UNL     1       0.190   1.295  -7.148  0.00  0.00    +0.128 A 
ATOM     25  C   UNL     1       1.444   1.265  -6.561  0.00  0.00    +0.067 A 
ATOM     26  F   UNL     1      -0.774   2.094  -6.643  0.00  0.00    -0.205 F 
ATOM     27  C   UNL     1      -1.442   0.528  -8.887  0.00  0.00    +0.047 C 
ENDBRANCH  17  20
ENDBRANCH  15  17
ENDBRANCH   8  15
BRANCH   4  28
ATOM     28  C   UNL     1      -0.763  -4.000  -0.777  0.00  0.00    +0.106 C 
BRANCH  28  29
ATOM     29  C   UNL     1      -2.162  -3.992  -1.340  0.00  0.00    -0.027 A 
ATOM     30  C   UNL     1      -2.760  -2.796  -1.688  0.00  0.00    +0.005 A 
ATOM     31  C   UNL     1      -4.042  -2.788  -2.204  0.00  0.00    +0.000 A 
ATOM     32  C   UNL     1      -4.726  -3.978  -2.372  0.00  0.00    +0.000 A 
ATOM     33  C   UNL     1      -4.128  -5.174  -2.024  0.00  0.00    +0.000 A 
ATOM     34  C   UNL     1      -2.844  -5.182  -1.513  0.00  0.00    +0.005 A 
ENDBRANCH  28  29
BRANCH  28  35
ATOM     35  C   UNL     1      -0.820  -4.270   0.728  0.00  0.00    +0.024 C 
ATOM     36  C   UNL     1       0.440  -3.714   1.394  0.00  0.00    +0.006 C 
ENDBRANCH  28  35
ENDBRANCH   4  28
TORSDOF 7
