REMARK  Name = ZINC15787863
REMARK  10 active torsions:
REMARK  status: ('A' for Active; 'I' for Inactive)
REMARK    1  A    between atoms: C_1  and  N_55
REMARK    2  A    between atoms: C_2  and  N_55
REMARK    3  A    between atoms: C_3  and  C_5
REMARK    4  A    between atoms: C_3  and  C_25
REMARK    5  A    between atoms: C_3  and  N_55
REMARK    6  A    between atoms: C_5  and  N_6
REMARK    7  A    between atoms: C_7  and  C_9
REMARK    8  A    between atoms: C_12  and  S_15
REMARK    9  A    between atoms: S_15  and  N_18
REMARK   10  A    between atoms: N_18  and  C_19
REMARK                            x       y       z     vdW  Elec       q    Type
REMARK                         _______ _______ _______ _____ _____    ______ ____
ROOT
ATOM      1  N   UNL     1       0.264  -1.414   1.041  0.00  0.00    -0.313 N 
ATOM      2  C   UNL     1      -0.201  -1.312   2.302  0.00  0.00    +0.244 C 
ATOM      3  O   UNL     1      -0.348  -0.217   2.808  0.00  0.00    -0.270 OA
ATOM      4  H   UNL     1       0.381  -2.288   0.636  0.00  0.00    +0.149 HD
ENDROOT
BRANCH   2   5
ATOM      5  C   UNL     1      -0.533  -2.532   3.068  0.00  0.00    +0.037 A 
ATOM      6  C   UNL     1      -0.370  -3.791   2.487  0.00  0.00    +0.015 A 
ATOM      7  C   UNL     1      -0.676  -4.926   3.210  0.00  0.00    +0.029 A 
ATOM      8  C   UNL     1      -1.154  -4.817   4.504  0.00  0.00    +0.109 A 
ATOM      9  C   UNL     1      -1.322  -3.572   5.084  0.00  0.00    +0.029 A 
ATOM     10  C   UNL     1      -1.014  -2.430   4.374  0.00  0.00    +0.015 A 
BRANCH   8  11
ATOM     11  S   UNL     1      -1.549  -6.271   5.418  0.00  0.00    +0.072 S 
ATOM     12  O   UNL     1      -0.889  -7.350   4.770  0.00  0.00    -0.150 OA
ATOM     13  O   UNL     1      -1.336  -5.960   6.788  0.00  0.00    -0.150 OA
BRANCH  11  14
ATOM     14  N   UNL     1      -3.174  -6.535   5.239  0.00  0.00    -0.216 N 
ATOM     15  H   UNL     1      -3.764  -6.466   6.006  0.00  0.00    +0.174 HD
BRANCH  14  16
ATOM     16  C   UNL     1      -3.696  -6.855   3.984  0.00  0.00    +0.048 A 
ATOM     17  C   UNL     1      -4.413  -5.907   3.265  0.00  0.00    +0.024 A 
ATOM     18  C   UNL     1      -4.923  -6.225   2.022  0.00  0.00    +0.002 A 
ATOM     19  C   UNL     1      -4.731  -7.490   1.497  0.00  0.00    +0.000 A 
ATOM     20  C   UNL     1      -4.022  -8.438   2.212  0.00  0.00    +0.002 A 
ATOM     21  C   UNL     1      -3.504  -8.124   3.453  0.00  0.00    +0.024 A 
ENDBRANCH  14  16
ENDBRANCH  11  14
ENDBRANCH   8  11
ENDBRANCH   2   5
BRANCH   1  22
ATOM     22  C   UNL     1       0.592  -0.206   0.281  0.00  0.00    +0.094 C 
BRANCH  22  23
ATOM     23  C   UNL     1       1.001  -0.593  -1.142  0.00  0.00    -0.020 C 
BRANCH  23  24
ATOM     24  C   UNL     1       2.274  -1.398  -1.097  0.00  0.00    -0.041 A 
ATOM     25  C   UNL     1       2.224  -2.776  -1.195  0.00  0.00    +0.003 A 
ATOM     26  C   UNL     1       3.392  -3.514  -1.154  0.00  0.00    +0.000 A 
ATOM     27  C   UNL     1       4.610  -2.876  -1.016  0.00  0.00    +0.001 A 
ATOM     28  C   UNL     1       4.661  -1.498  -0.918  0.00  0.00    +0.020 A 
ATOM     29  C   UNL     1       3.493  -0.758  -0.964  0.00  0.00    +0.043 A 
ATOM     30 CL   UNL     1       3.557   0.973  -0.849  0.00  0.00    -0.083 Cl
ENDBRANCH  23  24
BRANCH  23  33
ATOM     31  C   UNL     1      -1.372  -0.743  -1.599  0.00  0.00    -0.096 C 
ATOM     32  C   UNL     1       0.225  -1.660  -3.172  0.00  0.00    -0.096 C 
ATOM     33  N   UNL     1      -0.066  -1.421  -1.742  0.00  0.00    +0.382 N 
ATOM     34  H   UNL     1      -0.103  -2.323  -1.254  0.00  0.00    -0.082 HD
ENDBRANCH  23  33
ENDBRANCH  22  23
ENDBRANCH   1  22
TORSDOF 8
