REMARK  Name = ZINC06134156
REMARK  10 active torsions:
REMARK  status: ('A' for Active; 'I' for Inactive)
REMARK    1  A    between atoms: C_1  and  C_2
REMARK    2  A    between atoms: C_2  and  O_3
REMARK    3  A    between atoms: O_3  and  C_4
REMARK    4  A    between atoms: C_11  and  C_16
REMARK    5  A    between atoms: C_16  and  C_18
REMARK    6  A    between atoms: C_16  and  N_72
REMARK    7  A    between atoms: N_22  and  C_23
REMARK    8  A    between atoms: C_23  and  C_24
REMARK    9  A    between atoms: N_32  and  C_35
REMARK   10  A    between atoms: C_38  and  O_41
REMARK                            x       y       z     vdW  Elec       q    Type
REMARK                         _______ _______ _______ _____ _____    ______ ____
ROOT
ATOM      1  C   UNL     1      -1.237   2.190   0.020  0.00  0.00    +0.039 C 
ENDROOT
BRANCH   1   9
ATOM      2  C   UNL     1      -3.172   4.397  -5.440  0.00  0.00    +0.121 A 
ATOM      3  C   UNL     1      -3.702   3.196  -5.907  0.00  0.00    +0.047 A 
ATOM      4  C   UNL     1      -3.646   2.057  -5.136  0.00  0.00    +0.030 A 
ATOM      5  C   UNL     1      -3.056   2.098  -3.877  0.00  0.00    +0.049 A 
ATOM      6  C   UNL     1      -2.519   3.309  -3.401  0.00  0.00    +0.002 A 
ATOM      7  C   UNL     1      -2.582   4.460  -4.194  0.00  0.00    +0.055 A 
ATOM      8  C   UNL     1      -1.900   3.338  -2.074  0.00  0.00    +0.017 A 
ATOM      9  C   UNL     1      -1.866   2.193  -1.349  0.00  0.00    +0.011 A 
ATOM     10  C   UNL     1      -2.413   1.003  -1.874  0.00  0.00    +0.251 A 
ATOM     11  O   UNL     1      -2.367  -0.017  -1.208  0.00  0.00    -0.268 OA
ATOM     12  N   UNL     1      -2.989   0.967  -3.089  0.00  0.00    -0.322 N 
ATOM     13  H   UNL     1      -3.374   0.108  -3.426  0.00  0.00    +0.169 HD
BRANCH   2  14
ATOM     14  O   UNL     1      -3.237   5.512  -6.215  0.00  0.00    -0.492 OA
BRANCH  14  16
ATOM     15  C   UNL     1      -3.840   6.727  -8.215  0.00  0.00    +0.048 C 
ATOM     16  C   UNL     1      -3.861   5.378  -7.494  0.00  0.00    +0.225 C 
ENDBRANCH  14  16
ENDBRANCH   2  14
ENDBRANCH   1   9
BRANCH   1  22
ATOM     17  C   UNL     1      -3.445   2.463   0.977  0.00  0.00    -0.058 C 
ATOM     18  C   UNL     1      -4.451   1.851   1.954  0.00  0.00    +0.086 C 
ATOM     19  N   UNL     1      -3.870   1.833   3.304  0.00  0.00    -0.333 N 
ATOM     20  C   UNL     1      -2.628   1.049   3.329  0.00  0.00    +0.086 C 
ATOM     21  C   UNL     1      -1.622   1.661   2.352  0.00  0.00    -0.058 C 
ATOM     22  N   UNL     1      -2.209   1.652   0.995  0.00  0.00    +0.391 N 
ATOM     23  H   UNL     1      -2.440   0.685   0.738  0.00  0.00    -0.080 HD
BRANCH  19  24
ATOM     24  C   UNL     1      -4.790   1.346   4.239  0.00  0.00    +0.030 A 
ATOM     25  C   UNL     1      -4.464   0.252   5.030  0.00  0.00    +0.026 A 
ATOM     26  C   UNL     1      -5.370  -0.225   5.957  0.00  0.00    +0.047 A 
ATOM     27  C   UNL     1      -6.611   0.382   6.090  0.00  0.00    +0.117 A 
ATOM     28  C   UNL     1      -6.940   1.471   5.296  0.00  0.00    +0.047 A 
ATOM     29  C   UNL     1      -6.032   1.952   4.373  0.00  0.00    +0.026 A 
BRANCH  27  30
ATOM     30  O   UNL     1      -7.504  -0.092   6.999  0.00  0.00    -0.507 OA
ATOM     31  H   UNL     1      -8.095  -0.774   6.651  0.00  0.00    +0.292 HD
ENDBRANCH  27  30
ENDBRANCH  19  24
ENDBRANCH   1  22
BRANCH   1  32
ATOM     32  C   UNL     1      -0.016   1.306   0.009  0.00  0.00    +0.143 A 
ATOM     33  N   UNL     1       0.002  -0.004   0.002  0.00  0.00    -0.115 NA
ATOM     34  N   UNL     1       1.233  -0.385  -0.012  0.00  0.00    -0.023 NA
ATOM     35  N   UNL     1       2.000   0.648  -0.014  0.00  0.00    -0.044 NA
ATOM     36  N   UNL     1       1.268   1.710  -0.001  0.00  0.00    -0.228 N 
BRANCH  36  37
ATOM     37  C   UNL     1       1.745   3.096   0.002  0.00  0.00    +0.178 C 
BRANCH  37  38
ATOM     38  C   UNL     1       1.924   3.571   1.445  0.00  0.00    +0.140 C 
ATOM     39  C   UNL     1       2.315   5.064   1.460  0.00  0.00    +0.035 C 
ATOM     40  C   UNL     1       3.364   5.119   2.604  0.00  0.00    +0.031 C 
ATOM     41  C   UNL     1       4.043   3.735   2.447  0.00  0.00    +0.160 C 
ATOM     42  O   UNL     1       2.986   2.839   2.069  0.00  0.00    -0.375 OA
ENDBRANCH  37  38
ENDBRANCH  36  37
ENDBRANCH   1  32
TORSDOF 9
