REMARK  Name = ZINC05487806
REMARK  3 active torsions:
REMARK  status: ('A' for Active; 'I' for Inactive)
REMARK    1  A    between atoms: C_4  and  C_7
REMARK    2  A    between atoms: C_7  and  N_9
REMARK    3  A    between atoms: C_7  and  N_18
REMARK                            x       y       z     vdW  Elec       q    Type
REMARK                         _______ _______ _______ _____ _____    ______ ____
ROOT
ATOM      1  C   UNL     1       0.562   4.532   0.022  0.00  0.00    +0.228 C 
ENDROOT
BRANCH   1   2
ATOM      2  N   UNL     1       1.562   3.464  -0.045  0.00  0.00    -0.219 N 
ATOM      3  C   UNL     1       1.360   2.130   0.219  0.00  0.00    +0.092 A 
ATOM      4  C   UNL     1       0.256   1.379   0.607  0.00  0.00    +0.030 A 
ATOM      5  C   UNL     1       0.384   0.031   0.795  0.00  0.00    +0.002 A 
ATOM      6  C   UNL     1       1.608  -0.597   0.603  0.00  0.00    +0.002 A 
ATOM      7  C   UNL     1       2.706   0.118   0.222  0.00  0.00    +0.032 A 
ATOM      8  C   UNL     1       2.602   1.501   0.023  0.00  0.00    +0.113 A 
ATOM      9  N   UNL     1       3.487   2.449  -0.344  0.00  0.00    -0.129 NA
ATOM     10  N   UNL     1       2.914   3.600  -0.392  0.00  0.00    -0.062 NA
ENDBRANCH   1   2
BRANCH   1  11
ATOM     11  N   UNL     1       0.927   5.478   1.080  0.00  0.00    -0.276 N 
ATOM     12  C   UNL     1       2.210   5.294   1.746  0.00  0.00    +0.110 C 
ATOM     13  C   UNL     1       2.636   6.582   2.452  0.00  0.00    +0.019 C 
ATOM     14  C   UNL     1       1.472   7.074   3.321  0.00  0.00    +0.011 C 
ATOM     15  C   UNL     1       0.333   7.515   2.398  0.00  0.00    +0.096 C 
ATOM     16  C   UNL     1       0.068   6.455   1.369  0.00  0.00    +0.217 C 
ATOM     17  O   UNL     1      -0.987   6.487   0.771  0.00  0.00    -0.276 OA
ENDBRANCH   1  11
BRANCH   1  21
ATOM     18  C   UNL     1       0.411   6.578  -3.725  0.00  0.00    +0.000 A 
ATOM     19  C   UNL     1      -0.603   5.707  -3.372  0.00  0.00    +0.000 A 
ATOM     20  C   UNL     1      -0.554   5.045  -2.160  0.00  0.00    +0.007 A 
ATOM     21  C   UNL     1       0.509   5.254  -1.300  0.00  0.00    -0.005 A 
ATOM     22  C   UNL     1       1.519   6.130  -1.651  0.00  0.00    +0.007 A 
ATOM     23  C   UNL     1       1.472   6.788  -2.865  0.00  0.00    +0.000 A 
ENDBRANCH   1  21
TORSDOF 3
