REMARK  Name = ZINC39684208
REMARK  8 active torsions:
REMARK  status: ('A' for Active; 'I' for Inactive)
REMARK    1  A    between atoms: C_1  and  C_2
REMARK    2  A    between atoms: C_7  and  C_11
REMARK    3  A    between atoms: C_11  and  C_12
REMARK    4  A    between atoms: C_12  and  N_13
REMARK    5  A    between atoms: C_14  and  C_16
REMARK    6  A    between atoms: C_27  and  C_29
REMARK    7  A    between atoms: C_32  and  C_40
REMARK    8  A    between atoms: C_34  and  C_36
REMARK                            x       y       z     vdW  Elec       q    Type
REMARK                         _______ _______ _______ _____ _____    ______ ____
ROOT
ATOM      1  C   UNL     1      -8.680   1.722  -6.216  0.00  0.00    +0.100 C 
ATOM      2  C   UNL     1      -8.192   2.852  -7.151  0.00  0.00    +0.121 C 
ATOM      3  N   UNL     1      -7.816   2.162  -8.407  0.00  0.00    -0.300 N 
ATOM      4  C   UNL     1      -8.858   1.122  -8.584  0.00  0.00    +0.115 C 
ATOM      5  C   UNL     1      -9.119   0.591  -7.161  0.00  0.00    -0.004 C 
ATOM      6  C   UNL     1     -10.604   0.292  -6.973  0.00  0.00    -0.010 C 
ATOM      7  C   UNL     1     -11.003  -0.876  -7.880  0.00  0.00    -0.082 C 
ATOM      8  N   UNL     1     -10.200  -2.057  -7.543  0.00  0.00    +0.379 N 
ATOM      9  C   UNL     1      -8.782  -1.792  -7.815  0.00  0.00    -0.082 C 
ATOM     10  C   UNL     1      -8.288  -0.663  -6.905  0.00  0.00    -0.010 C 
ATOM     11  C   UNL     1      -6.763   2.421  -9.208  0.00  0.00    +0.226 C 
ATOM     12  O   UNL     1      -6.588   1.763 -10.212  0.00  0.00    -0.275 OA
ATOM     13  H   UNL     1     -10.318  -2.275  -6.565  0.00  0.00    -0.086 HD
ATOM     14  H   UNL     1     -10.507  -2.841  -8.100  0.00  0.00    -0.086 HD
ENDROOT
BRANCH  11  15
ATOM     15  C   UNL     1      -5.804   3.530  -8.858  0.00  0.00    +0.150 C 
ATOM     16  C   UNL     1      -5.071   3.226  -7.563  0.00  0.00    +0.030 C 
ATOM     17  C   UNL     1      -3.795   3.470  -7.767  0.00  0.00    +0.092 C 
ATOM     18  O   UNL     1      -3.521   3.912  -9.016  0.00  0.00    -0.484 OA
ATOM     19  C   UNL     1      -4.636   3.595  -9.873  0.00  0.00    +0.292 C 
ATOM     20  C   UNL     1      -2.738   3.275  -6.711  0.00  0.00    +0.085 C 
BRANCH  19  21
ATOM     21  C   UNL     1      -4.868   4.701 -10.904  0.00  0.00    +0.427 C 
ATOM     22  F   UNL     1      -4.964   5.934 -10.251  0.00  0.00    -0.167 F 
ATOM     23  F   UNL     1      -3.796   4.731 -11.803  0.00  0.00    -0.167 F 
ATOM     24  F   UNL     1      -6.054   4.448 -11.601  0.00  0.00    -0.167 F 
ENDBRANCH  19  21
ENDBRANCH  11  15
BRANCH   1  26
ATOM     25  N   UNL     1      -7.816   0.872  -4.060  0.00  0.00    -0.315 N 
ATOM     26  C   UNL     1      -7.557   1.256  -5.326  0.00  0.00    +0.218 C 
ATOM     27  O   UNL     1      -6.421   1.228  -5.748  0.00  0.00    -0.275 OA
ATOM     28  H   UNL     1      -8.725   0.895  -3.723  0.00  0.00    +0.149 HD
BRANCH  25  29
ATOM     29  C   UNL     1      -6.724   0.419  -3.195  0.00  0.00    +0.109 C 
BRANCH  29  30
ATOM     30  C   UNL     1      -7.285   0.044  -1.821  0.00  0.00    +0.056 C 
BRANCH  30  37
ATOM     31  C   UNL     1      -2.471  -0.845   2.098  0.00  0.00    +0.046 C 
ATOM     32  C   UNL     1      -3.428   0.075   1.385  0.00  0.00    -0.027 A 
ATOM     33  C   UNL     1      -3.346   1.438   1.573  0.00  0.00    +0.005 A 
ATOM     34  C   UNL     1      -4.222   2.296   0.922  0.00  0.00    +0.001 A 
ATOM     35  C   UNL     1      -5.181   1.803   0.082  0.00  0.00    +0.010 A 
ATOM     36  C   UNL     1      -5.281   0.426  -0.124  0.00  0.00    +0.003 A 
ATOM     37  C   UNL     1      -6.162  -0.421  -0.930  0.00  0.00    -0.021 A 
ATOM     38  C   UNL     1      -5.779  -1.692  -0.726  0.00  0.00    +0.087 A 
ATOM     39  N   UNL     1      -4.726  -1.727   0.146  0.00  0.00    -0.360 N 
ATOM     40  C   UNL     1      -4.392  -0.448   0.530  0.00  0.00    +0.050 A 
ATOM     41  H   UNL     1      -4.278  -2.534   0.447  0.00  0.00    +0.165 HD
ENDBRANCH  30  37
ENDBRANCH  29  30
ENDBRANCH  25  29
ENDBRANCH   1  26
TORSDOF 6
