REMARK  Name = ZINC33175785
REMARK  5 active torsions:
REMARK  status: ('A' for Active; 'I' for Inactive)
REMARK    1  A    between atoms: C_1  and  C_2
REMARK    2  A    between atoms: C_5  and  C_7
REMARK    3  A    between atoms: C_9  and  C_17
REMARK    4  A    between atoms: C_11  and  C_16
REMARK    5  A    between atoms: N_19  and  C_20
REMARK                            x       y       z     vdW  Elec       q    Type
REMARK                         _______ _______ _______ _____ _____    ______ ____
ROOT
ATOM      1  C   UNL     1       4.048  -6.910   0.817  0.00  0.00    +0.249 C 
ATOM      2  O   UNL     1       4.307  -7.936   1.416  0.00  0.00    -0.270 OA
ATOM      3  N   UNL     1       5.039  -6.184   0.264  0.00  0.00    -0.280 N 
ATOM      4  H   UNL     1       4.840  -5.331  -0.154  0.00  0.00    +0.155 HD
ENDROOT
BRANCH   3   5
ATOM      5  C   UNL     1       6.355  -6.659   0.292  0.00  0.00    +0.056 A 
ATOM      6  C   UNL     1       6.770  -7.492   1.324  0.00  0.00    +0.072 A 
ATOM      7  C   UNL     1       8.071  -7.960   1.350  0.00  0.00    +0.144 A 
ATOM      8  C   UNL     1       8.962  -7.595   0.341  0.00  0.00    +0.077 A 
ATOM      9  C   UNL     1       8.547  -6.764  -0.686  0.00  0.00    +0.048 A 
ATOM     10  C   UNL     1       7.244  -6.302  -0.715  0.00  0.00    +0.064 A 
ATOM     11 CL   UNL     1       6.719  -5.267  -2.007  0.00  0.00    -0.082 Cl
ATOM     12  N   UNL     1      10.280  -8.077   0.383  0.00  0.00    -0.280 N 
ATOM     13  C   UNL     1      10.571  -9.115   1.197  0.00  0.00    +0.255 C 
ATOM     14  O   UNL     1      11.709  -9.529   1.273  0.00  0.00    -0.272 OA
ATOM     15  C   UNL     1       9.476  -9.757   2.011  0.00  0.00    +0.325 C 
ATOM     16  O   UNL     1       8.493  -8.777   2.352  0.00  0.00    -0.481 OA
ATOM     17  H   UNL     1      10.970  -7.672  -0.164  0.00  0.00    +0.155 HD
ENDBRANCH   3   5
BRANCH   1  20
ATOM     18  C   UNL     1       0.973  -4.730   0.643  0.00  0.00    +0.082 A 
ATOM     19  C   UNL     1       2.315  -5.111   0.763  0.00  0.00    +0.042 A 
ATOM     20  C   UNL     1       2.643  -6.460   0.695  0.00  0.00    +0.053 A 
ATOM     21  C   UNL     1       1.596  -7.388   0.506  0.00  0.00    +0.076 A 
ATOM     22  C   UNL     1       1.541  -8.843   0.387  0.00  0.00    +0.091 A 
ATOM     23  N   UNL     1       0.296  -9.172   0.223  0.00  0.00    -0.080 NA
ATOM     24  O   UNL     1      -0.508  -8.010   0.223  0.00  0.00    -0.334 OA
ATOM     25  C   UNL     1       0.273  -6.924   0.394  0.00  0.00    +0.260 A 
ATOM     26  N   UNL     1       0.013  -5.629   0.470  0.00  0.00    -0.209 NA
ATOM     27  C   UNL     1       2.714  -9.787   0.446  0.00  0.00    +0.070 C 
BRANCH  18  32
ATOM     28  C   UNL     1       0.593   0.877   1.034  0.00  0.00    +0.051 C 
ATOM     29  C   UNL     1       0.433  -0.616   0.902  0.00  0.00    -0.013 A 
ATOM     30  C   UNL     1      -0.703  -1.341   0.724  0.00  0.00    +0.011 A 
ATOM     31  C   UNL     1      -0.616  -2.710   0.627  0.00  0.00    +0.018 A 
ATOM     32  C   UNL     1       0.619  -3.300   0.715  0.00  0.00    +0.038 A 
ATOM     33  S   UNL     1       1.687  -1.886   0.932  0.00  0.00    -0.092 S 
ENDBRANCH  18  32
ENDBRANCH   1  20
TORSDOF 3
