REMARK  Name = ZINC30961148
REMARK  15 active torsions:
REMARK  status: ('A' for Active; 'I' for Inactive)
REMARK    1  A    between atoms: C_1  and  C_2
REMARK    2  A    between atoms: C_2  and  O_3
REMARK    3  A    between atoms: O_3  and  C_4
REMARK    4  A    between atoms: C_6  and  C_14
REMARK    5  A    between atoms: C_9  and  O_10
REMARK    6  A    between atoms: O_10  and  C_11
REMARK    7  A    between atoms: C_11  and  C_12
REMARK    8  A    between atoms: N_15  and  N_16
REMARK    9  A    between atoms: C_17  and  C_19
REMARK   10  A    between atoms: C_19  and  C_21
REMARK   11  A    between atoms: C_19  and  N_24
REMARK   12  A    between atoms: C_21  and  C_22
REMARK   13  A    between atoms: C_21  and  C_23
REMARK   14  A    between atoms: C_25  and  C_27
REMARK   15  A    between atoms: C_30  and  C_33
REMARK                            x       y       z     vdW  Elec       q    Type
REMARK                         _______ _______ _______ _____ _____    ______ ____
ROOT
ATOM      1  N   UNL     1      -1.868  -3.317  -0.124  0.00  0.00    -0.205 N 
ATOM      2  C   UNL     1      -0.887  -2.397  -0.039  0.00  0.00    +0.253 C 
ATOM      3  O   UNL     1       0.041  -2.426  -0.819  0.00  0.00    -0.272 OA
ATOM      4  H   UNL     1      -2.710  -3.291   0.583  0.00  0.00    +0.177 HD
ENDROOT
BRANCH   1   6
ATOM      5  C   UNL     1      -2.815  -5.120  -1.273  0.00  0.00    +0.138 C 
ATOM      6  N   UNL     1      -1.816  -4.307  -1.115  0.00  0.00    -0.188 NA
BRANCH   5   9
ATOM      7  C   UNL     1      -6.417  -5.351  -0.238  0.00  0.00    +0.164 A 
ATOM      8  C   UNL     1      -5.164  -5.707  -0.701  0.00  0.00    +0.059 A 
ATOM      9  C   UNL     1      -4.155  -4.745  -0.786  0.00  0.00    -0.001 A 
ATOM     10  C   UNL     1      -4.420  -3.424  -0.414  0.00  0.00    +0.028 A 
ATOM     11  C   UNL     1      -5.675  -3.075   0.042  0.00  0.00    +0.064 A 
ATOM     12  C   UNL     1      -6.675  -4.034   0.132  0.00  0.00    +0.176 A 
ATOM     13 BR   UNL     1      -6.032  -1.288   0.546  0.00  0.00    -0.046 Br
BRANCH   7  14
ATOM     14  O   UNL     1      -7.400  -6.287  -0.148  0.00  0.00    -0.489 OA
BRANCH  14  16
ATOM     15  C   UNL     1      -8.287  -8.524  -0.374  0.00  0.00    +0.048 C 
ATOM     16  C   UNL     1      -7.065  -7.619  -0.543  0.00  0.00    +0.226 C 
ENDBRANCH  14  16
ENDBRANCH   7  14
BRANCH  12  17
ATOM     17  O   UNL     1      -7.910  -3.685   0.582  0.00  0.00    -0.487 OA
BRANCH  17  18
ATOM     18  C   UNL     1      -8.859  -3.254  -0.396  0.00  0.00    +0.226 C 
ATOM     19  C   UNL     1     -10.180  -2.907   0.294  0.00  0.00    +0.048 C 
ENDBRANCH  17  18
ENDBRANCH  12  17
ENDBRANCH   5   9
ENDBRANCH   1   6
BRANCH   2  20
ATOM     20  C   UNL     1      -0.944  -1.332   1.026  0.00  0.00    +0.163 C 
BRANCH  20  21
ATOM     21  N   UNL     1       0.228  -0.462   0.909  0.00  0.00    -0.300 N 
ATOM     22  C   UNL     1       0.177   0.804   1.370  0.00  0.00    +0.245 C 
ATOM     23  O   UNL     1      -0.844   1.224   1.879  0.00  0.00    -0.270 OA
ATOM     24  H   UNL     1       1.151  -0.841   0.444  0.00  0.00    +0.150 HD
BRANCH  22  25
ATOM     25  C   UNL     1       1.360   1.682   1.252  0.00  0.00    +0.037 A 
ATOM     26  C   UNL     1       2.534   1.203   0.668  0.00  0.00    +0.013 A 
ATOM     27  C   UNL     1       3.632   2.030   0.556  0.00  0.00    +0.004 A 
ATOM     28  C   UNL     1       3.576   3.328   1.032  0.00  0.00    -0.050 A 
ATOM     29  C   UNL     1       2.418   3.808   1.616  0.00  0.00    +0.004 A 
ATOM     30  C   UNL     1       1.310   2.993   1.729  0.00  0.00    +0.013 A 
ATOM     31  C   UNL     1       4.783   4.223   0.912  0.00  0.00    +0.044 C 
ENDBRANCH  22  25
ENDBRANCH  20  21
BRANCH  20  32
ATOM     32  C   UNL     1      -0.953  -1.992   2.407  0.00  0.00    +0.012 C 
ATOM     33  C   UNL     1       0.373  -2.720   2.633  0.00  0.00    +0.009 C 
ATOM     34  C   UNL     1      -1.136  -0.920   3.483  0.00  0.00    +0.009 C 
ENDBRANCH  20  32
ENDBRANCH   2  20
TORSDOF 10
