REMARK  Name = ZINC39850545
REMARK  8 active torsions:
REMARK  status: ('A' for Active; 'I' for Inactive)
REMARK    1  A    between atoms: C_1  and  C_2
REMARK    2  A    between atoms: C_5  and  C_13
REMARK    3  A    between atoms: C_6  and  C_7
REMARK    4  A    between atoms: C_6  and  C_8
REMARK    5  A    between atoms: N_11  and  O_12
REMARK    6  A    between atoms: N_15  and  C_16
REMARK    7  A    between atoms: C_19  and  C_22
REMARK    8  A    between atoms: N_24  and  O_25
REMARK                            x       y       z     vdW  Elec       q    Type
REMARK                         _______ _______ _______ _____ _____    ______ ____
ROOT
ATOM      1  C   UNL     1       1.009  -3.261   1.614  0.00  0.00    +0.224 C 
ATOM      2  O   UNL     1       1.592  -2.982   2.640  0.00  0.00    -0.275 OA
ATOM      3  N   UNL     1       0.845  -4.552   1.262  0.00  0.00    -0.285 N 
ATOM      4  H   UNL     1       0.321  -4.778   0.477  0.00  0.00    +0.155 HD
ENDROOT
BRANCH   1   9
ATOM      5  C   UNL     1      -0.033   1.525   0.017  0.00  0.00    +0.018 C 
ATOM      6  C   UNL     1      -0.011  -0.005   0.009  0.00  0.00    +0.015 C 
ATOM      7  C   UNL     1       0.723  -0.667  -1.196  0.00  0.00    +0.014 C 
ATOM      8  C   UNL     1       1.047  -2.100  -0.715  0.00  0.00    +0.018 C 
ATOM      9  C   UNL     1       0.468  -2.165   0.732  0.00  0.00    +0.058 C 
ATOM     10  C   UNL     1       0.724  -0.692   1.212  0.00  0.00    -0.010 C 
ATOM     11  C   UNL     1       0.042  -0.396   2.549  0.00  0.00    +0.013 C 
ATOM     12  C   UNL     1       2.215  -0.350   1.247  0.00  0.00    +0.013 C 
ATOM     13  C   UNL     1      -1.078  -2.126   0.531  0.00  0.00    +0.071 C 
ATOM     14  C   UNL     1      -1.381  -0.694   0.076  0.00  0.00    +0.065 C 
ATOM     15  N   UNL     1      -2.521  -0.184  -0.206  0.00  0.00    -0.096 NA
BRANCH  15  16
ATOM     16  O   UNL     1      -3.695  -0.967  -0.089  0.00  0.00    -0.409 OA
ATOM     17  H   UNL     1      -4.506  -0.496  -0.323  0.00  0.00    +0.328 HD
ENDBRANCH  15  16
ENDBRANCH   1   9
BRANCH   3  18
ATOM     18  C   UNL     1       1.427  -5.562   2.026  0.00  0.00    +0.033 A 
ATOM     19  C   UNL     1       1.517  -5.424   3.408  0.00  0.00    +0.024 A 
ATOM     20  C   UNL     1       2.091  -6.420   4.165  0.00  0.00    +0.015 A 
ATOM     21  C   UNL     1       2.584  -7.571   3.545  0.00  0.00    +0.039 A 
ATOM     22  C   UNL     1       2.492  -7.707   2.157  0.00  0.00    +0.015 A 
ATOM     23  C   UNL     1       1.912  -6.710   1.406  0.00  0.00    +0.024 A 
BRANCH  21  24
ATOM     24  C   UNL     1       3.201  -8.640   4.354  0.00  0.00    +0.267 C 
ATOM     25  O   UNL     1       3.281  -8.520   5.561  0.00  0.00    -0.268 OA
ATOM     26  N   UNL     1       3.676  -9.750   3.754  0.00  0.00    -0.193 N 
ATOM     27  H   UNL     1       3.612  -9.846   2.791  0.00  0.00    +0.183 HD
BRANCH  26  28
ATOM     28  O   UNL     1       4.268 -10.776   4.530  0.00  0.00    -0.295 OA
ATOM     29  H   UNL     1       4.579 -11.531   4.012  0.00  0.00    +0.241 HD
ENDBRANCH  26  28
ENDBRANCH  21  24
ENDBRANCH   3  18
TORSDOF 5
