REMARK  Name = ZINC49019347
REMARK  7 active torsions:
REMARK  status: ('A' for Active; 'I' for Inactive)
REMARK    1  A    between atoms: C_3  and  C_6
REMARK    2  A    between atoms: C_6  and  N_7
REMARK    3  A    between atoms: N_7  and  C_8
REMARK    4  A    between atoms: N_7  and  C_19
REMARK    5  A    between atoms: C_11  and  S_15
REMARK    6  A    between atoms: C_13  and  N_14
REMARK    7  A    between atoms: S_15  and  N_18
REMARK                            x       y       z     vdW  Elec       q    Type
REMARK                         _______ _______ _______ _____ _____    ______ ____
ROOT
ATOM      1  C   UNL     1       4.870   0.938   2.002  0.00  0.00    +0.051 A 
ATOM      2  C   UNL     1       6.247   0.797   1.920  0.00  0.00    +0.027 A 
ATOM      3  C   UNL     1       6.873  -0.256   2.562  0.00  0.00    +0.030 A 
ATOM      4  C   UNL     1       6.130  -1.170   3.286  0.00  0.00    +0.107 A 
ATOM      5  C   UNL     1       4.756  -1.037   3.372  0.00  0.00    +0.053 A 
ATOM      6  C   UNL     1       4.121   0.019   2.736  0.00  0.00    +0.048 A 
ENDROOT
BRANCH   6   7
ATOM      7  N   UNL     1       2.731   0.159   2.827  0.00  0.00    -0.356 N 
ATOM      8  H   UNL     1       2.287   0.896   2.379  0.00  0.00    +0.142 HD
ATOM      9  H   UNL     1       2.211  -0.481   3.338  0.00  0.00    +0.142 HD
ENDBRANCH   6   7
BRANCH   4  10
ATOM     10  S   UNL     1       6.936  -2.509   4.100  0.00  0.00    +0.056 S 
ATOM     11  O   UNL     1       5.963  -3.533   4.257  0.00  0.00    -0.153 OA
ATOM     12  O   UNL     1       8.162  -2.722   3.414  0.00  0.00    -0.153 OA
BRANCH  10  13
ATOM     13  N   UNL     1       7.328  -1.991   5.623  0.00  0.00    -0.204 NA
ATOM     14  H   UNL     1       7.103  -1.090   5.902  0.00  0.00    +0.144 HD
ATOM     15  H   UNL     1       7.783  -2.589   6.236  0.00  0.00    +0.144 HD
ENDBRANCH  10  13
ENDBRANCH   4  10
BRANCH   1  16
ATOM     16  N   UNL     1       4.234   2.004   1.353  0.00  0.00    -0.321 N 
BRANCH  16  17
ATOM     17  C   UNL     1       4.041   3.277   2.052  0.00  0.00    +0.074 C 
ATOM     18  C   UNL     1       3.526   4.462   1.233  0.00  0.00    +0.024 C 
ATOM     19  C   UNL     1       2.605   3.770   2.239  0.00  0.00    +0.024 C 
ENDBRANCH  16  17
BRANCH  16  20
ATOM     20  C   UNL     1       3.761   1.845  -0.024  0.00  0.00    +0.147 C 
BRANCH  20  23
ATOM     21  C   UNL     1      -0.016   1.351   0.009  0.00  0.00    +0.008 A 
ATOM     22  C   UNL     1       1.183   2.038   0.002  0.00  0.00    +0.013 A 
ATOM     23  C   UNL     1       2.343   1.336  -0.013  0.00  0.00    +0.007 A 
ATOM     24  S   UNL     1       1.754  -0.349  -0.017  0.00  0.00    -0.100 S 
ATOM     25  C   UNL     1       0.002  -0.004   0.002  0.00  0.00    +0.045 A 
ENDBRANCH  20  23
ENDBRANCH  16  20
ENDBRANCH   1  16
TORSDOF 7
