REMARK  Name = ZINC12701951
REMARK  6 active torsions:
REMARK  status: ('A' for Active; 'I' for Inactive)
REMARK    1  A    between atoms: C_1  and  C_2
REMARK    2  A    between atoms: C_2  and  C_3
REMARK    3  A    between atoms: C_2  and  N_4
REMARK    4  A    between atoms: C_6  and  C_9
REMARK    5  A    between atoms: C_23  and  C_24
REMARK    6  A    between atoms: C_23  and  N_59
REMARK                            x       y       z     vdW  Elec       q    Type
REMARK                         _______ _______ _______ _____ _____    ______ ____
ROOT
ATOM      1  C   UNL     1       3.620   4.891   0.003  0.00  0.00    +0.014 C 
ATOM      2  C   UNL     1       2.880   3.574  -0.004  0.00  0.00    +0.011 A 
ATOM      3  C   UNL     1       1.534   3.489   0.007  0.00  0.00    -0.022 A 
ATOM      4  C   UNL     1       1.185   2.074   0.002  0.00  0.00    +0.003 A 
ATOM      5  C   UNL     1      -0.016   1.362   0.009  0.00  0.00    +0.010 A 
ATOM      6  C   UNL     1       0.002  -0.004   0.002  0.00  0.00    +0.001 A 
ATOM      7  C   UNL     1       1.207  -0.694  -0.013  0.00  0.00    +0.002 A 
ATOM      8  C   UNL     1       2.404  -0.013  -0.022  0.00  0.00    +0.026 A 
ATOM      9  C   UNL     1       2.410   1.378  -0.014  0.00  0.00    +0.047 A 
ATOM     10  N   UNL     1       3.417   2.320  -0.018  0.00  0.00    -0.359 N 
ATOM     11  H   UNL     1       4.366   2.121  -0.029  0.00  0.00    +0.166 HD
ATOM     12  C   UNL     1       0.619   4.687   0.021  0.00  0.00    +0.019 C 
ATOM     13  C   UNL     1       1.448   5.918  -0.369  0.00  0.00    -0.072 C 
ATOM     14  N   UNL     1       2.678   5.943   0.455  0.00  0.00    +0.391 N 
ATOM     15  H   UNL     1       2.425   5.765   1.434  0.00  0.00    -0.080 HD
ENDROOT
BRANCH   1  18
ATOM     16  N   UNL     1       6.786   4.613   1.791  0.00  0.00    -0.269 N 
ATOM     17  C   UNL     1       6.070   4.601   0.647  0.00  0.00    +0.111 A 
ATOM     18  C   UNL     1       4.774   4.820   0.969  0.00  0.00    -0.018 A 
ATOM     19  C   UNL     1       4.694   4.963   2.358  0.00  0.00    +0.136 A 
ATOM     20  N   UNL     1       5.899   4.840   2.852  0.00  0.00    -0.179 NA
BRANCH  16  22
ATOM     21  C   UNL     1       8.545   2.922   1.953  0.00  0.00    +0.032 C 
ATOM     22  C   UNL     1       8.233   4.419   1.904  0.00  0.00    +0.101 C 
ATOM     23  C   UNL     1       8.928   5.045   0.692  0.00  0.00    +0.032 C 
ENDBRANCH  16  22
ENDBRANCH   1  18
BRANCH  14  24
ATOM     24  C   UNL     1       3.321   7.270   0.360  0.00  0.00    -0.042 C 
BRANCH  24  25
ATOM     25  C   UNL     1       2.430   8.288   1.024  0.00  0.00    -0.063 A 
ATOM     26  C   UNL     1       1.483   8.970   0.282  0.00  0.00    +0.005 A 
ATOM     27  C   UNL     1       0.665   9.903   0.884  0.00  0.00    +0.046 A 
ATOM     28  C   UNL     1       0.793  10.174   2.245  0.00  0.00    +0.124 A 
ATOM     29  C   UNL     1       1.747   9.482   2.979  0.00  0.00    -0.002 A 
ATOM     30  C   UNL     1       2.561   8.548   2.376  0.00  0.00    +0.009 A 
ATOM     31  C   UNL     1       1.643   9.968   4.412  0.00  0.00    +0.080 C 
ATOM     32  C   UNL     1       0.273  10.685   4.407  0.00  0.00    +0.234 C 
ATOM     33  O   UNL     1       0.111  11.054   3.027  0.00  0.00    -0.491 OA
ENDBRANCH  24  25
ENDBRANCH  14  24
TORSDOF 4
