REMARK  Name = ZINC67410273
REMARK  10 active torsions:
REMARK  status: ('A' for Active; 'I' for Inactive)
REMARK    1  A    between atoms: C_1  and  C_2
REMARK    2  A    between atoms: C_2  and  C_4
REMARK    3  A    between atoms: C_2  and  N_12
REMARK    4  A    between atoms: C_4  and  C_5
REMARK    5  A    between atoms: N_15  and  C_16
REMARK    6  A    between atoms: C_16  and  C_18
REMARK    7  A    between atoms: C_16  and  C_19
REMARK    8  A    between atoms: C_23  and  S_25
REMARK    9  A    between atoms: S_25  and  N_28
REMARK   10  A    between atoms: N_28  and  C_29
REMARK                            x       y       z     vdW  Elec       q    Type
REMARK                         _______ _______ _______ _____ _____    ______ ____
ROOT
ATOM      1  N   UNL     1       0.711  -0.489   1.189  0.00  0.00    -0.297 N 
ATOM      2  C   UNL     1       0.051  -0.633   2.355  0.00  0.00    +0.300 C 
ATOM      3  O   UNL     1      -1.132  -0.361   2.423  0.00  0.00    -0.253 OA
ATOM      4  N   UNL     1       0.703  -1.080   3.447  0.00  0.00    -0.293 N 
ATOM      5  H   UNL     1       1.654  -0.707   1.135  0.00  0.00    +0.151 HD
ATOM      6  H   UNL     1       1.647  -1.298   3.394  0.00  0.00    +0.151 HD
ENDROOT
BRANCH   1   8
ATOM      7  C   UNL     1      -0.019   1.526   0.010  0.00  0.00    +0.028 C 
ATOM      8  C   UNL     1       0.002  -0.004   0.002  0.00  0.00    +0.076 C 
BRANCH   8   9
ATOM      9  C   UNL     1       0.718  -0.497  -1.257  0.00  0.00    +0.060 C 
BRANCH   9  10
ATOM     10  C   UNL     1       0.632  -2.000  -1.327  0.00  0.00    -0.010 A 
ATOM     11  C   UNL     1       1.662  -2.776  -0.830  0.00  0.00    +0.006 A 
ATOM     12  C   UNL     1       1.583  -4.155  -0.895  0.00  0.00    +0.000 A 
ATOM     13  C   UNL     1       0.473  -4.759  -1.457  0.00  0.00    +0.003 A 
ATOM     14  C   UNL     1      -0.558  -3.985  -1.954  0.00  0.00    +0.038 A 
ATOM     15  C   UNL     1      -0.482  -2.604  -1.885  0.00  0.00    +0.127 A 
ATOM     16  F   UNL     1      -1.492  -1.847  -2.367  0.00  0.00    -0.205 F 
ENDBRANCH   9  10
ENDBRANCH   8   9
ENDBRANCH   1   8
BRANCH   4  17
ATOM     17  C   UNL     1      -0.014  -1.237   4.715  0.00  0.00    +0.102 C 
ATOM     18  C   UNL     1      -0.701  -2.603   4.747  0.00  0.00    +0.033 C 
BRANCH  17  19
ATOM     19  C   UNL     1       0.962  -1.138   5.859  0.00  0.00    -0.026 A 
ATOM     20  C   UNL     1       2.210  -1.724   5.756  0.00  0.00    +0.005 A 
ATOM     21  C   UNL     1       3.105  -1.634   6.805  0.00  0.00    +0.002 A 
ATOM     22  C   UNL     1       2.753  -0.958   7.958  0.00  0.00    +0.028 A 
ATOM     23  C   UNL     1       1.505  -0.371   8.062  0.00  0.00    +0.106 A 
ATOM     24  C   UNL     1       0.612  -0.458   7.010  0.00  0.00    +0.034 A 
BRANCH  23  25
ATOM     25  S   UNL     1       1.056   0.490   9.531  0.00  0.00    +0.058 S 
ATOM     26  O   UNL     1      -0.364   0.480   9.590  0.00  0.00    -0.153 OA
ATOM     27  O   UNL     1       1.865  -0.036  10.574  0.00  0.00    -0.153 OA
BRANCH  25  28
ATOM     28  N   UNL     1       1.510   2.070   9.332  0.00  0.00    -0.193 NA
ATOM     29  C   UNL     1       0.871   2.891   8.300  0.00  0.00    +0.127 C 
ATOM     30  H   UNL     1       2.200   2.451   9.898  0.00  0.00    +0.148 HD
ENDBRANCH  25  28
ENDBRANCH  23  25
ENDBRANCH  17  19
ENDBRANCH   4  17
TORSDOF 7
