REMARK  Name = ZINC36494010
REMARK  14 active torsions:
REMARK  status: ('A' for Active; 'I' for Inactive)
REMARK    1  A    between atoms: C_1  and  C_2
REMARK    2  A    between atoms: C_2  and  C_3
REMARK    3  A    between atoms: C_2  and  C_4
REMARK    4  A    between atoms: C_2  and  N_5
REMARK    5  A    between atoms: C_6  and  C_8
REMARK    6  A    between atoms: C_8  and  C_10
REMARK    7  A    between atoms: C_8  and  N_17
REMARK    8  A    between atoms: C_15  and  O_16
REMARK    9  A    between atoms: N_17  and  C_18
REMARK   10  A    between atoms: C_18  and  C_19
REMARK   11  A    between atoms: C_24  and  C_26
REMARK   12  A    between atoms: C_32  and  O_34
REMARK   13  A    between atoms: O_34  and  C_35
REMARK   14  A    between atoms: C_35  and  C_36
REMARK                            x       y       z     vdW  Elec       q    Type
REMARK                         _______ _______ _______ _____ _____    ______ ____
ROOT
ATOM      1  N   UNL     1       4.014  -0.012  -2.724  0.00  0.00    -0.277 N 
ATOM      2  C   UNL     1       4.295   0.961  -3.613  0.00  0.00    +0.237 C 
ATOM      3  O   UNL     1       3.566   1.141  -4.566  0.00  0.00    -0.274 OA
ENDROOT
BRANCH   2   4
ATOM      4  C   UNL     1       5.514   1.826  -3.423  0.00  0.00    +0.165 C 
ATOM      5  C   UNL     1       5.218   2.930  -2.385  0.00  0.00    +0.033 C 
ATOM      6  C   UNL     1       5.959   4.162  -2.969  0.00  0.00    +0.021 C 
ATOM      7  C   UNL     1       5.760   3.953  -4.491  0.00  0.00    +0.112 C 
ATOM      8  N   UNL     1       5.857   2.492  -4.688  0.00  0.00    -0.256 N 
ATOM      9  C   UNL     1       6.202   1.872  -5.834  0.00  0.00    +0.404 C 
ATOM     10  O   UNL     1       6.248   0.659  -5.878  0.00  0.00    -0.226 OA
BRANCH   9  11
ATOM     11  O   UNL     1       6.495   2.597  -6.930  0.00  0.00    -0.445 OA
BRANCH  11  12
ATOM     12  C   UNL     1       6.852   1.874  -8.109  0.00  0.00    +0.269 C 
BRANCH  12  13
ATOM     13  C   UNL     1       7.143   2.845  -9.225  0.00  0.00    -0.010 A 
ATOM     14  C   UNL     1       6.125   3.262 -10.061  0.00  0.00    +0.007 A 
ATOM     15  C   UNL     1       6.392   4.153 -11.084  0.00  0.00    +0.000 A 
ATOM     16  C   UNL     1       7.678   4.626 -11.270  0.00  0.00    +0.000 A 
ATOM     17  C   UNL     1       8.696   4.210 -10.433  0.00  0.00    +0.000 A 
ATOM     18  C   UNL     1       8.428   3.323  -9.407  0.00  0.00    +0.007 A 
ENDBRANCH  12  13
ENDBRANCH  11  12
ENDBRANCH   9  11
ENDBRANCH   2   4
BRANCH   1  19
ATOM     19  C   UNL     1       2.785  -0.798  -2.862  0.00  0.00    +0.196 C 
BRANCH  19  20
ATOM     20  C   UNL     1       1.591   0.088  -2.611  0.00  0.00    +0.023 A 
ATOM     21  C   UNL     1       1.714   1.460  -2.716  0.00  0.00    +0.009 A 
ATOM     22  C   UNL     1       0.620   2.272  -2.486  0.00  0.00    +0.001 A 
ATOM     23  C   UNL     1      -0.600   1.714  -2.150  0.00  0.00    +0.004 A 
ATOM     24  C   UNL     1      -0.728   0.343  -2.043  0.00  0.00    +0.046 A 
ATOM     25  C   UNL     1       0.368  -0.475  -2.280  0.00  0.00    +0.122 A 
BRANCH  25  26
ATOM     26  O   UNL     1       0.243  -1.825  -2.182  0.00  0.00    -0.506 OA
ATOM     27  H   UNL     1       0.419  -2.172  -1.297  0.00  0.00    +0.292 HD
ENDBRANCH  25  26
ENDBRANCH  19  20
BRANCH  19  29
ATOM     28  N   UNL     1       1.654  -2.127  -4.615  0.00  0.00    -0.309 N 
ATOM     29  C   UNL     1       2.706  -1.365  -4.256  0.00  0.00    +0.239 C 
ATOM     30  O   UNL     1       3.588  -1.135  -5.055  0.00  0.00    -0.273 OA
ATOM     31  H   UNL     1       0.948  -2.311  -3.975  0.00  0.00    +0.149 HD
BRANCH  28  33
ATOM     32  C   UNL     1       2.788  -3.577  -6.225  0.00  0.00    +0.031 C 
ATOM     33  C   UNL     1       1.577  -2.678  -5.970  0.00  0.00    +0.026 C 
ATOM     34  C   UNL     1       1.567  -1.534  -6.986  0.00  0.00    +0.031 C 
ATOM     35  C   UNL     1       0.293  -3.499  -6.114  0.00  0.00    +0.031 C 
ENDBRANCH  28  33
ENDBRANCH  19  29
ENDBRANCH   1  19
BRANCH   1  36
ATOM     36  C   UNL     1       4.936  -0.283  -1.619  0.00  0.00    +0.183 C 
BRANCH  36  37
ATOM     37  C   UNL     1       5.859  -1.412  -2.001  0.00  0.00    +0.122 A 
ATOM     38  C   UNL     1       7.093  -1.278  -2.521  0.00  0.00    +0.046 A 
ATOM     39  C   UNL     1       7.595  -2.584  -2.725  0.00  0.00    +0.041 A 
ATOM     40  C   UNL     1       6.638  -3.438  -2.318  0.00  0.00    +0.195 A 
ATOM     41  O   UNL     1       5.591  -2.722  -1.875  0.00  0.00    -0.466 OA
ENDBRANCH  36  37
ENDBRANCH   1  36
TORSDOF 11
