REMARK  Name = ZINC08694031
REMARK  8 active torsions:
REMARK  status: ('A' for Active; 'I' for Inactive)
REMARK    1  A    between atoms: C_1  and  C_2
REMARK    2  A    between atoms: C_8  and  C_12
REMARK    3  A    between atoms: C_12  and  O_14
REMARK    4  A    between atoms: O_14  and  C_15
REMARK    5  A    between atoms: C_15  and  C_16
REMARK    6  A    between atoms: N_18  and  C_19
REMARK    7  A    between atoms: C_23  and  S_25
REMARK    8  A    between atoms: S_25  and  N_28
REMARK                            x       y       z     vdW  Elec       q    Type
REMARK                         _______ _______ _______ _____ _____    ______ ____
ROOT
ATOM      1  C   UNL     1      -1.229   1.454   6.644  0.00  0.00    +0.255 C 
ATOM      2  O   UNL     1      -2.367   1.044   6.553  0.00  0.00    -0.272 OA
ATOM      3  N   UNL     1      -0.720   1.768   7.851  0.00  0.00    -0.283 N 
ATOM      4  H   UNL     1       0.210   2.031   7.932  0.00  0.00    +0.155 HD
ENDROOT
BRANCH   3   5
ATOM      5  C   UNL     1      -1.534   1.716   8.989  0.00  0.00    +0.035 A 
ATOM      6  C   UNL     1      -2.516   0.740   9.097  0.00  0.00    +0.023 A 
ATOM      7  C   UNL     1      -3.318   0.692  10.221  0.00  0.00    +0.004 A 
ATOM      8  C   UNL     1      -3.143   1.614  11.237  0.00  0.00    +0.028 A 
ATOM      9  C   UNL     1      -2.167   2.587  11.131  0.00  0.00    +0.107 A 
ATOM     10  C   UNL     1      -1.358   2.637  10.013  0.00  0.00    +0.051 A 
BRANCH   9  11
ATOM     11  S   UNL     1      -1.950   3.760  12.428  0.00  0.00    +0.061 S 
ATOM     12  O   UNL     1      -1.335   4.900  11.845  0.00  0.00    -0.153 OA
ATOM     13  O   UNL     1      -3.188   3.833  13.122  0.00  0.00    -0.153 OA
BRANCH  11  14
ATOM     14  N   UNL     1      -0.851   3.119  13.488  0.00  0.00    -0.177 NA
ATOM     15  C   UNL     1      -1.334   2.303  14.579  0.00  0.00    +0.109 C 
ATOM     16  C   UNL     1      -1.642   3.200  15.803  0.00  0.00    +0.017 C 
ATOM     17  C   UNL     1      -0.392   3.693  16.401  0.00  0.00    +0.001 C 
ATOM     18  C   UNL     1       0.437   4.583  15.480  0.00  0.00    +0.001 C 
ATOM     19  C   UNL     1       1.308   3.720  14.602  0.00  0.00    +0.017 C 
ATOM     20  C   UNL     1       0.583   3.401  13.277  0.00  0.00    +0.109 C 
ENDBRANCH  11  14
ENDBRANCH   9  11
ENDBRANCH   3   5
BRANCH   1  21
ATOM     21  C   UNL     1      -0.384   1.610   5.406  0.00  0.00    +0.328 C 
BRANCH  21  22
ATOM     22  O   UNL     1      -1.140   1.215   4.260  0.00  0.00    -0.454 OA
BRANCH  22  23
ATOM     23  C   UNL     1      -0.527   1.295   3.068  0.00  0.00    +0.329 C 
ATOM     24  O   UNL     1       0.614   1.687   3.001  0.00  0.00    -0.249 OA
BRANCH  23  32
ATOM     25  C   UNL     1      -0.106   3.544   0.203  0.00  0.00    +0.044 C 
ATOM     26  C   UNL     1      -0.737   2.214  -0.216  0.00  0.00    +0.082 C 
ATOM     27  C   UNL     1      -0.315   1.768  -1.624  0.00  0.00    +0.046 C 
ATOM     28  C   UNL     1       0.951   0.940  -1.288  0.00  0.00    +0.099 C 
ATOM     29  C   UNL     1       0.717   0.457   0.125  0.00  0.00    +0.217 C 
ATOM     30  O   UNL     1       1.396  -0.371   0.693  0.00  0.00    -0.276 OA
ATOM     31  N   UNL     1      -0.362   1.082   0.670  0.00  0.00    -0.273 N 
ATOM     32  C   UNL     1      -1.262   0.895   1.814  0.00  0.00    +0.196 C 
ATOM     33  C   UNL     1      -2.578   1.706   1.745  0.00  0.00    +0.105 C 
ATOM     34  S   UNL     1      -2.569   2.197  -0.039  0.00  0.00    -0.133 S 
ENDBRANCH  23  32
ENDBRANCH  22  23
ENDBRANCH  21  22
ENDBRANCH   1  21
TORSDOF 7
