REMARK  Name = ZINC13064618
REMARK  12 active torsions:
REMARK  status: ('A' for Active; 'I' for Inactive)
REMARK    1  A    between atoms: C_1  and  C_2
REMARK    2  A    between atoms: C_2  and  C_3
REMARK    3  A    between atoms: C_3  and  C_5
REMARK    4  A    between atoms: C_3  and  N_75
REMARK    5  A    between atoms: N_9  and  C_10
REMARK    6  A    between atoms: C_16  and  C_17
REMARK    7  A    between atoms: C_16  and  N_75
REMARK    8  A    between atoms: C_17  and  C_18
REMARK    9  A    between atoms: C_24  and  C_25
REMARK   10  A    between atoms: C_24  and  N_75
REMARK   11  A    between atoms: C_29  and  C_38
REMARK   12  A    between atoms: C_30  and  C_37
REMARK                            x       y       z     vdW  Elec       q    Type
REMARK                         _______ _______ _______ _____ _____    ______ ____
ROOT
ATOM      1  N   UNL     1      -5.499   4.100  -1.652  0.00  0.00    +0.389 N 
ATOM      2  H   UNL     1      -4.906   4.527  -2.373  0.00  0.00    -0.080 HD
ENDROOT
BRANCH   1   3
ATOM      3  C   UNL     1      -6.790   4.819  -1.603  0.00  0.00    +0.003 C 
BRANCH   3   4
ATOM      4  C   UNL     1      -6.540   6.275  -1.903  0.00  0.00    +0.138 A 
ATOM      5  N   UNL     1      -5.557   7.011  -1.446  0.00  0.00    -0.115 NA
ATOM      6  N   UNL     1      -5.689   8.197  -1.931  0.00  0.00    -0.023 NA
ATOM      7  N   UNL     1      -6.736   8.239  -2.679  0.00  0.00    -0.044 NA
ATOM      8  N   UNL     1      -7.288   7.073  -2.688  0.00  0.00    -0.228 N 
BRANCH   8   9
ATOM      9  C   UNL     1      -8.501   6.690  -3.415  0.00  0.00    +0.111 C 
ATOM     10  C   UNL     1      -8.287   6.906  -4.914  0.00  0.00    +0.027 C 
ATOM     11  C   UNL     1      -9.553   6.506  -5.673  0.00  0.00    +0.002 C 
ATOM     12  C   UNL     1     -10.726   7.365  -5.197  0.00  0.00    +0.000 C 
ATOM     13  C   UNL     1     -10.941   7.148  -3.697  0.00  0.00    +0.002 C 
ATOM     14  C   UNL     1      -9.674   7.549  -2.938  0.00  0.00    +0.027 C 
ENDBRANCH   8   9
ENDBRANCH   3   4
BRANCH   3  16
ATOM     15  C   UNL     1      -7.807   3.225   0.029  0.00  0.00    +0.002 C 
ATOM     16  C   UNL     1      -7.424   4.685  -0.217  0.00  0.00    -0.011 C 
ENDBRANCH   3  16
ENDBRANCH   1   3
BRANCH   1  17
ATOM     17  C   UNL     1      -5.724   2.680  -1.994  0.00  0.00    -0.073 C 
BRANCH  17  18
ATOM     18  C   UNL     1      -6.227   2.594  -3.436  0.00  0.00    +0.016 C 
BRANCH  18  19
ATOM     19  C   UNL     1      -6.324   1.147  -3.848  0.00  0.00    -0.049 A 
ATOM     20  C   UNL     1      -5.241   0.522  -4.438  0.00  0.00    +0.003 A 
ATOM     21  C   UNL     1      -5.329  -0.806  -4.811  0.00  0.00    +0.000 A 
ATOM     22  C   UNL     1      -6.503  -1.506  -4.604  0.00  0.00    +0.000 A 
ATOM     23  C   UNL     1      -7.587  -0.879  -4.019  0.00  0.00    +0.000 A 
ATOM     24  C   UNL     1      -7.498   0.447  -3.641  0.00  0.00    +0.003 A 
ENDBRANCH  18  19
ENDBRANCH  17  18
ENDBRANCH   1  17
BRANCH   1  25
ATOM     25  C   UNL     1      -4.814   4.203  -0.346  0.00  0.00    -0.037 C 
BRANCH  25  26
ATOM     26  C   UNL     1      -3.382   3.764  -0.513  0.00  0.00    +0.001 A 
ATOM     27  C   UNL     1      -2.415   4.687  -0.742  0.00  0.00    +0.017 A 
ATOM     28  C   UNL     1      -1.035   4.228  -0.906  0.00  0.00    -0.001 A 
ATOM     29  C   UNL     1       0.003   5.130  -1.161  0.00  0.00    +0.013 A 
ATOM     30  C   UNL     1       1.280   4.670  -1.308  0.00  0.00    -0.047 A 
ATOM     31  C   UNL     1       1.558   3.313  -1.207  0.00  0.00    -0.046 A 
ATOM     32  C   UNL     1       0.552   2.406  -0.957  0.00  0.00    +0.030 A 
ATOM     33  C   UNL     1      -0.758   2.851  -0.808  0.00  0.00    +0.049 A 
ATOM     34  N   UNL     1      -1.785   1.965  -0.563  0.00  0.00    -0.322 N 
ATOM     35  H   UNL     1      -1.592   1.017  -0.492  0.00  0.00    +0.169 HD
ATOM     36  C   UNL     1      -3.051   2.396  -0.419  0.00  0.00    +0.251 A 
ATOM     37  O   UNL     1      -3.934   1.584  -0.203  0.00  0.00    -0.268 OA
ATOM     38  C   UNL     1       2.975   2.828  -1.374  0.00  0.00    +0.044 C 
ATOM     39  C   UNL     1       2.398   5.643  -1.583  0.00  0.00    +0.044 C 
ENDBRANCH  25  26
ENDBRANCH   1  25
TORSDOF 9
