REMARK  Name = ZINC58372784
REMARK  13 active torsions:
REMARK  status: ('A' for Active; 'I' for Inactive)
REMARK    1  A    between atoms: C_1  and  C_2
REMARK    2  A    between atoms: C_2  and  C_3
REMARK    3  A    between atoms: C_2  and  C_4
REMARK    4  A    between atoms: C_7  and  C_10
REMARK    5  A    between atoms: C_10  and  N_11
REMARK    6  A    between atoms: N_11  and  C_12
REMARK    7  A    between atoms: N_11  and  C_32
REMARK    8  A    between atoms: C_12  and  C_13
REMARK    9  A    between atoms: N_15  and  N_16
REMARK   10  A    between atoms: C_19  and  C_23
REMARK   11  A    between atoms: C_19  and  C_24
REMARK   12  A    between atoms: C_27  and  O_30
REMARK   13  A    between atoms: O_30  and  C_31
REMARK                            x       y       z     vdW  Elec       q    Type
REMARK                         _______ _______ _______ _____ _____    ______ ____
ROOT
ATOM      1  C   UNL     1       3.171  -0.560   8.040  0.00  0.00    +0.213 C 
ATOM      2  O   UNL     1       2.472   0.429   7.976  0.00  0.00    -0.276 OA
ATOM      3  N   UNL     1       3.815  -0.858   9.186  0.00  0.00    -0.225 N 
ATOM      4  H   UNL     1       4.374  -1.649   9.237  0.00  0.00    +0.173 HD
ENDROOT
BRANCH   3   5
ATOM      5  N   UNL     1       3.676  -0.024  10.304  0.00  0.00    -0.137 N 
ATOM      6  C   UNL     1       4.623   0.835  10.729  0.00  0.00    +0.267 C 
ATOM      7  O   UNL     1       5.713   1.026  10.236  0.00  0.00    -0.271 OA
ATOM      8  C   UNL     1       4.040   1.514  11.953  0.00  0.00    +0.137 C 
ATOM      9  N   UNL     1       2.707   0.901  12.087  0.00  0.00    -0.280 N 
ATOM     10  C   UNL     1       2.585   0.020  11.078  0.00  0.00    +0.327 C 
ATOM     11  O   UNL     1       1.596  -0.661  10.891  0.00  0.00    -0.251 OA
ATOM     12  C   UNL     1       4.894   1.223  13.188  0.00  0.00    +0.047 C 
ATOM     13  H   UNL     1       2.045   1.096  12.769  0.00  0.00    +0.152 HD
BRANCH   8  14
ATOM     14  C   UNL     1       3.919   3.000  11.728  0.00  0.00    -0.015 A 
ATOM     15  C   UNL     1       4.808   3.645  10.887  0.00  0.00    +0.010 A 
ATOM     16  C   UNL     1       4.700   5.006  10.680  0.00  0.00    +0.046 A 
ATOM     17  C   UNL     1       3.699   5.726  11.315  0.00  0.00    +0.120 A 
ATOM     18  C   UNL     1       2.808   5.077  12.158  0.00  0.00    +0.046 A 
ATOM     19  C   UNL     1       2.917   3.714  12.358  0.00  0.00    +0.010 A 
BRANCH  17  20
ATOM     20  O   UNL     1       3.591   7.066  11.113  0.00  0.00    -0.495 OA
ATOM     21  C   UNL     1       2.536   7.743  11.800  0.00  0.00    +0.277 C 
ENDBRANCH  17  20
ENDBRANCH   8  14
ENDBRANCH   3   5
BRANCH   1  22
ATOM     22  C   UNL     1       3.320  -1.456   6.838  0.00  0.00    +0.021 C 
BRANCH  22  23
ATOM     23  N   UNL     1       2.526  -0.919   5.725  0.00  0.00    +0.390 N 
ATOM     24  H   UNL     1       1.569  -0.799   6.021  0.00  0.00    -0.080 HD
BRANCH  23  25
ATOM     25  C   UNL     1       3.077   0.379   5.312  0.00  0.00    -0.068 C 
ATOM     26  C   UNL     1       2.182   1.610   5.476  0.00  0.00    -0.017 C 
ATOM     27  C   UNL     1       2.463   1.048   4.081  0.00  0.00    -0.017 C 
ENDBRANCH  23  25
BRANCH  23  28
ATOM     28  C   UNL     1       2.575  -1.853   4.592  0.00  0.00    -0.042 C 
BRANCH  28  32
ATOM     29  C   UNL     1       0.606  -5.491   5.660  0.00  0.00    -0.045 A 
ATOM     30  C   UNL     1      -0.129  -4.421   5.186  0.00  0.00    +0.004 A 
ATOM     31  C   UNL     1       0.508  -3.243   4.840  0.00  0.00    +0.002 A 
ATOM     32  C   UNL     1       1.880  -3.136   4.970  0.00  0.00    -0.064 A 
ATOM     33  C   UNL     1       2.615  -4.207   5.445  0.00  0.00    +0.002 A 
ATOM     34  C   UNL     1       1.978  -5.382   5.794  0.00  0.00    +0.004 A 
BRANCH  29  36
ATOM     35  C   UNL     1      -1.105  -6.498   7.145  0.00  0.00    +0.012 C 
ATOM     36  C   UNL     1      -0.088  -6.774   6.036  0.00  0.00    +0.013 C 
ATOM     37  C   UNL     1      -0.810  -7.342   4.812  0.00  0.00    +0.012 C 
ENDBRANCH  29  36
ENDBRANCH  28  32
ENDBRANCH  23  28
ENDBRANCH  22  23
ENDBRANCH   1  22
TORSDOF 9
