REMARK  Name = ZINC09890930
REMARK  8 active torsions:
REMARK  status: ('A' for Active; 'I' for Inactive)
REMARK    1  A    between atoms: C_1  and  C_2
REMARK    2  A    between atoms: C_2  and  C_4
REMARK    3  A    between atoms: C_2  and  C_26
REMARK    4  A    between atoms: C_4  and  C_5
REMARK    5  A    between atoms: N_10  and  C_13
REMARK    6  A    between atoms: C_16  and  S_22
REMARK    7  A    between atoms: C_18  and  N_19
REMARK    8  A    between atoms: S_22  and  C_25
REMARK                            x       y       z     vdW  Elec       q    Type
REMARK                         _______ _______ _______ _____ _____    ______ ____
ROOT
ATOM      1  C   UNL     1       4.684  -2.264  -0.126  0.00  0.00    +0.216 C 
ATOM      2  O   UNL     1       4.883  -2.874   0.903  0.00  0.00    -0.276 OA
ATOM      3  N   UNL     1       4.223  -0.999  -0.081  0.00  0.00    -0.298 N 
ATOM      4  C   UNL     1       3.955  -0.338   1.205  0.00  0.00    +0.126 C 
ATOM      5  C   UNL     1       2.539   0.246   1.166  0.00  0.00    +0.124 C 
ATOM      6  N   UNL     1       2.401   1.108  -0.015  0.00  0.00    -0.325 N 
ATOM      7  C   UNL     1       2.559   0.340  -1.257  0.00  0.00    +0.124 C 
ATOM      8  C   UNL     1       3.976  -0.241  -1.317  0.00  0.00    +0.126 C 
ENDROOT
BRANCH   6   9
ATOM      9  C   UNL     1       1.181   1.788   0.000  0.00  0.00    +0.060 A 
ATOM     10  C   UNL     1      -0.013   1.076   0.008  0.00  0.00    +0.027 A 
ATOM     11  C   UNL     1      -1.217   1.751   0.017  0.00  0.00    +0.029 A 
ATOM     12  C   UNL     1      -1.237   3.134   0.031  0.00  0.00    +0.090 A 
ATOM     13  C   UNL     1      -0.051   3.845   0.023  0.00  0.00    +0.061 A 
ATOM     14  C   UNL     1       1.157   3.176   0.008  0.00  0.00    +0.149 A 
BRANCH  12  15
ATOM     15  S   UNL     1      -2.776   3.991   0.050  0.00  0.00    -0.006 S 
ATOM     16  O   UNL     1      -3.688   3.085   0.657  0.00  0.00    -0.170 OA
ATOM     17  O   UNL     1      -2.486   5.242   0.657  0.00  0.00    -0.170 OA
ATOM     18  C   UNL     1      -3.200   4.227  -1.698  0.00  0.00    +0.200 C 
ENDBRANCH  12  15
BRANCH  14  19
ATOM     19  N   UNL     1       2.426   3.939   0.001  0.00  0.00    +0.058 N 
ATOM     20  O   UNL     1       2.405   5.156   0.007  0.00  0.00    -0.126 OA
ATOM     21  O   UNL     1       3.491   3.348  -0.012  0.00  0.00    -0.126 OA
ENDBRANCH  14  19
ENDBRANCH   6   9
BRANCH   1  22
ATOM     22  C   UNL     1       4.953  -2.922  -1.455  0.00  0.00    +0.104 C 
BRANCH  22  24
ATOM     23  C   UNL     1       4.364  -5.185  -0.574  0.00  0.00    +0.013 C 
ATOM     24  C   UNL     1       5.465  -4.345  -1.226  0.00  0.00    +0.025 C 
BRANCH  24  25
ATOM     25  C   UNL     1       5.850  -4.960  -2.547  0.00  0.00    -0.044 A 
ATOM     26  C   UNL     1       4.902  -5.107  -3.543  0.00  0.00    +0.004 A 
ATOM     27  C   UNL     1       5.256  -5.667  -4.756  0.00  0.00    +0.000 A 
ATOM     28  C   UNL     1       6.555  -6.088  -4.971  0.00  0.00    +0.000 A 
ATOM     29  C   UNL     1       7.501  -5.945  -3.973  0.00  0.00    +0.000 A 
ATOM     30  C   UNL     1       7.149  -5.381  -2.761  0.00  0.00    +0.004 A 
ENDBRANCH  24  25
ENDBRANCH  22  24
ENDBRANCH   1  22
TORSDOF 6
