REMARK  Name = ZINC12003242
REMARK  13 active torsions:
REMARK  status: ('A' for Active; 'I' for Inactive)
REMARK    1  A    between atoms: C_1  and  C_2
REMARK    2  A    between atoms: C_2  and  C_3
REMARK    3  A    between atoms: C_2  and  C_4
REMARK    4  A    between atoms: C_4  and  C_5
REMARK    5  A    between atoms: C_5  and  C_6
REMARK    6  A    between atoms: C_6  and  C_13
REMARK    7  A    between atoms: C_18  and  C_19
REMARK    8  A    between atoms: C_18  and  N_66
REMARK    9  A    between atoms: C_22  and  C_25
REMARK   10  A    between atoms: C_26  and  C_27
REMARK   11  A    between atoms: C_27  and  C_28
REMARK   12  A    between atoms: C_27  and  C_29
REMARK   13  A    between atoms: C_27  and  O_30
REMARK                            x       y       z     vdW  Elec       q    Type
REMARK                         _______ _______ _______ _____ _____    ______ ____
ROOT
ATOM      1  C   UNL     1      -4.343   1.529   2.541  0.00  0.00    +0.018 C 
ATOM      2  C   UNL     1      -5.090   1.888   1.254  0.00  0.00    -0.013 C 
ATOM      3  C   UNL     1      -6.531   1.381   1.348  0.00  0.00    -0.078 C 
ATOM      4  C   UNL     1      -6.520   1.620   3.759  0.00  0.00    -0.078 C 
ATOM      5  C   UNL     1      -5.080   2.136   3.737  0.00  0.00    -0.013 C 
ATOM      6  N   UNL     1      -7.192   2.021   2.505  0.00  0.00    +0.382 N 
ATOM      7  H   UNL     1      -7.127   3.041   2.403  0.00  0.00    -0.081 HD
ENDROOT
BRANCH   1   8
ATOM      8  C   UNL     1      -2.920   2.088   2.478  0.00  0.00    +0.115 C 
ATOM      9  C   UNL     1      -2.940   3.603   2.521  0.00  0.00    +0.244 C 
ATOM     10  O   UNL     1      -3.459   4.352   1.721  0.00  0.00    -0.273 OA
ATOM     11  N   UNL     1      -2.261   3.945   3.634  0.00  0.00    -0.238 N 
ATOM     12  C   UNL     1      -1.820   2.868   4.294  0.00  0.00    +0.307 C 
ATOM     13  O   UNL     1      -1.182   2.923   5.327  0.00  0.00    -0.252 OA
ATOM     14  N   UNL     1      -2.161   1.718   3.686  0.00  0.00    -0.285 N 
ATOM     15  H   UNL     1      -2.112   4.859   3.922  0.00  0.00    +0.159 HD
ATOM     16  H   UNL     1      -1.949   0.819   3.984  0.00  0.00    +0.151 HD
BRANCH   8  17
ATOM     17  C   UNL     1      -2.204   1.595   1.220  0.00  0.00    +0.036 C 
BRANCH  17  18
ATOM     18  C   UNL     1      -0.735   2.019   1.269  0.00  0.00    +0.005 C 
BRANCH  18  20
ATOM     19  C   UNL     1       0.002  -0.004   0.002  0.00  0.00    +0.007 C 
ATOM     20  C   UNL     1      -0.019   1.526   0.010  0.00  0.00    -0.017 C 
ATOM     21  C   UNL     1       1.417   2.055  -0.000  0.00  0.00    +0.007 C 
ENDBRANCH  18  20
ENDBRANCH  17  18
ENDBRANCH   8  17
ENDBRANCH   1   8
BRANCH   6  22
ATOM     22  C   UNL     1      -8.617   1.633   2.550  0.00  0.00    -0.043 C 
BRANCH  22  23
ATOM     23  C   UNL     1      -9.323   2.242   1.365  0.00  0.00    -0.064 A 
ATOM     24  C   UNL     1      -9.880   3.505   1.470  0.00  0.00    +0.003 A 
ATOM     25  C   UNL     1     -10.522   4.070   0.388  0.00  0.00    +0.017 A 
ATOM     26  C   UNL     1     -10.621   3.361  -0.810  0.00  0.00    +0.025 A 
ATOM     27  C   UNL     1     -10.063   2.086  -0.907  0.00  0.00    +0.017 A 
ATOM     28  C   UNL     1      -9.417   1.534   0.181  0.00  0.00    +0.003 A 
BRANCH  26  29
ATOM     29  C   UNL     1     -11.293   3.939  -1.935  0.00  0.00    -0.063 C 
ATOM     30  C   UNL     1     -11.843   4.413  -2.857  0.00  0.00    -0.063 C 
BRANCH  30  31
ATOM     31  C   UNL     1     -12.534   5.007  -4.013  0.00  0.00    +0.121 C 
ATOM     32  C   UNL     1     -13.047   6.399  -3.641  0.00  0.00    +0.055 C 
ATOM     33  C   UNL     1     -11.558   5.121  -5.187  0.00  0.00    +0.055 C 
BRANCH  31  34
ATOM     34  O   UNL     1     -13.635   4.177  -4.388  0.00  0.00    -0.377 OA
ATOM     35  H   UNL     1     -13.383   3.278  -4.638  0.00  0.00    +0.211 HD
ENDBRANCH  31  34
ENDBRANCH  30  31
ENDBRANCH  26  29
ENDBRANCH  22  23
ENDBRANCH   6  22
TORSDOF 9
