REMARK  Name = ZINC63362276
REMARK  8 active torsions:
REMARK  status: ('A' for Active; 'I' for Inactive)
REMARK    1  A    between atoms: C_1  and  C_2
REMARK    2  A    between atoms: C_2  and  C_4
REMARK    3  A    between atoms: C_2  and  N_16
REMARK    4  A    between atoms: N_6  and  C_7
REMARK    5  A    between atoms: C_7  and  C_8
REMARK    6  A    between atoms: C_13  and  O_14
REMARK    7  A    between atoms: O_14  and  C_15
REMARK    8  A    between atoms: C_19  and  C_35
REMARK                            x       y       z     vdW  Elec       q    Type
REMARK                         _______ _______ _______ _____ _____    ______ ____
ROOT
ATOM      1  N   UNL     1       0.711  -0.489   1.189  0.00  0.00    -0.212 N 
ATOM      2  C   UNL     1       0.159  -1.285   2.128  0.00  0.00    +0.249 C 
ATOM      3  O   UNL     1      -0.984  -1.689   2.168  0.00  0.00    -0.273 OA
ATOM      4  C   UNL     1       1.263  -1.569   3.122  0.00  0.00    +0.136 C 
ATOM      5  C   UNL     1       0.869  -1.089   4.518  0.00  0.00    +0.139 C 
ATOM      6  C   UNL     1       1.754   0.102   4.855  0.00  0.00    -0.034 C 
ATOM      7  C   UNL     1       0.929   1.105   5.150  0.00  0.00    -0.001 A 
ATOM      8  C   UNL     1       1.188   2.478   5.610  0.00  0.00    +0.010 A 
ATOM      9  C   UNL     1       0.093   3.259   5.810  0.00  0.00    +0.001 A 
ATOM     10  C   UNL     1      -1.216   2.815   5.601  0.00  0.00    +0.002 A 
ATOM     11  C   UNL     1      -1.546   1.567   5.183  0.00  0.00    +0.026 A 
ATOM     12  C   UNL     1      -0.479   0.653   4.943  0.00  0.00    +0.043 A 
ATOM     13  N   UNL     1      -0.512  -0.604   4.560  0.00  0.00    -0.375 N 
ATOM     14  C   UNL     1       3.260   0.077   4.770  0.00  0.00    +0.052 C 
ATOM     15  C   UNL     1       3.623  -0.470   3.375  0.00  0.00    +0.115 C 
ATOM     16  N   UNL     1       2.374  -0.717   2.649  0.00  0.00    -0.269 N 
ATOM     17  C   UNL     1       1.988  -0.202   1.473  0.00  0.00    +0.313 C 
ATOM     18  O   UNL     1       2.713   0.452   0.749  0.00  0.00    -0.252 OA
ATOM     19  C   UNL     1       1.653  -3.048   3.115  0.00  0.00    +0.044 C 
ATOM     20  H   UNL     1      -1.302  -1.122   4.339  0.00  0.00    +0.160 HD
ENDROOT
BRANCH   1  22
ATOM     21  C   UNL     1      -0.019   1.526   0.010  0.00  0.00    +0.038 C 
ATOM     22  C   UNL     1       0.002  -0.004   0.002  0.00  0.00    +0.168 C 
BRANCH  22  23
ATOM     23  C   UNL     1       0.707  -0.490  -1.238  0.00  0.00    +0.234 C 
ATOM     24  O   UNL     1       1.704  -1.174  -1.140  0.00  0.00    -0.274 OA
ATOM     25  N   UNL     1       0.231  -0.164  -2.456  0.00  0.00    -0.310 N 
ATOM     26  H   UNL     1      -0.566   0.383  -2.534  0.00  0.00    +0.149 HD
BRANCH  25  27
ATOM     27  C   UNL     1       0.917  -0.637  -3.661  0.00  0.00    +0.143 C 
BRANCH  27  28
ATOM     28  C   UNL     1       0.188  -0.137  -4.882  0.00  0.00    +0.011 A 
ATOM     29  C   UNL     1      -0.679  -0.973  -5.559  0.00  0.00    +0.009 A 
ATOM     30  C   UNL     1      -1.348  -0.516  -6.680  0.00  0.00    +0.001 A 
ATOM     31  C   UNL     1      -1.151   0.778  -7.125  0.00  0.00    +0.004 A 
ATOM     32  C   UNL     1      -0.286   1.618  -6.451  0.00  0.00    +0.046 A 
ATOM     33  C   UNL     1       0.383   1.163  -5.323  0.00  0.00    +0.125 A 
BRANCH  33  34
ATOM     34  O   UNL     1       1.230   1.989  -4.655  0.00  0.00    -0.495 OA
ATOM     35  C   UNL     1       1.382   3.315  -5.166  0.00  0.00    +0.277 C 
ENDBRANCH  33  34
ENDBRANCH  27  28
ENDBRANCH  25  27
ENDBRANCH  22  23
ENDBRANCH   1  22
TORSDOF 5
