REMARK  Name = ZINC06691454
REMARK  8 active torsions:
REMARK  status: ('A' for Active; 'I' for Inactive)
REMARK    1  A    between atoms: C_1  and  C_2
REMARK    2  A    between atoms: C_2  and  C_21
REMARK    3  A    between atoms: N_3  and  N_4
REMARK    4  A    between atoms: C_5  and  C_7
REMARK    5  A    between atoms: C_9  and  C_13
REMARK    6  A    between atoms: C_18  and  O_19
REMARK    7  A    between atoms: O_19  and  C_20
REMARK    8  A    between atoms: C_26  and  O_27
REMARK                            x       y       z     vdW  Elec       q    Type
REMARK                         _______ _______ _______ _____ _____    ______ ____
ROOT
ATOM      1  N   UNL     1       0.024   0.035   2.340  0.00  0.00    -0.201 N 
ATOM      2  C   UNL     1       0.044  -0.645   3.503  0.00  0.00    +0.281 C 
ATOM      3  O   UNL     1       0.060  -1.862   3.497  0.00  0.00    -0.267 OA
ATOM      4  H   UNL     1       0.011   1.005   2.345  0.00  0.00    +0.178 HD
ENDROOT
BRANCH   2   5
ATOM      5  C   UNL     1       0.046   0.083   4.781  0.00  0.00    +0.122 A 
ATOM      6  C   UNL     1       0.071  -0.468   6.048  0.00  0.00    +0.062 A 
ATOM      7  C   UNL     1       0.063   0.628   6.931  0.00  0.00    +0.097 A 
ATOM      8  N   UNL     1       0.035   1.724   6.202  0.00  0.00    -0.173 NA
ATOM      9  N   UNL     1       0.030   1.440   4.950  0.00  0.00    -0.272 N 
ATOM     10  H   UNL     1       0.015   2.090   4.231  0.00  0.00    +0.189 HD
BRANCH   7  11
ATOM     11  C   UNL     1       0.082   0.560   8.413  0.00  0.00    +0.044 A 
ATOM     12  C   UNL     1       0.117  -0.674   9.056  0.00  0.00    +0.014 A 
ATOM     13  C   UNL     1       0.136  -0.732  10.435  0.00  0.00    +0.001 A 
ATOM     14  C   UNL     1       0.119   0.433  11.182  0.00  0.00    +0.004 A 
ATOM     15  C   UNL     1       0.084   1.663  10.553  0.00  0.00    +0.046 A 
ATOM     16  C   UNL     1       0.071   1.735   9.169  0.00  0.00    +0.129 A 
BRANCH  16  17
ATOM     17  O   UNL     1       0.042   2.944   8.550  0.00  0.00    -0.494 OA
ATOM     18  C   UNL     1       0.032   4.102   9.388  0.00  0.00    +0.277 C 
ENDBRANCH  16  17
ENDBRANCH   7  11
ENDBRANCH   2   5
BRANCH   1  21
ATOM     19  C   UNL     1      -0.018   1.503   0.010  0.00  0.00    +0.068 C 
ATOM     20  C   UNL     1       0.002  -0.004   0.002  0.00  0.00    +0.067 C 
ATOM     21  N   UNL     1       0.022  -0.659   1.123  0.00  0.00    -0.184 NA
BRANCH  20  22
ATOM     22  C   UNL     1      -0.000  -0.734  -1.278  0.00  0.00    +0.039 A 
ATOM     23  C   UNL     1      -0.015  -0.033  -2.486  0.00  0.00    +0.013 A 
ATOM     24  C   UNL     1      -0.017  -0.722  -3.681  0.00  0.00    +0.001 A 
ATOM     25  C   UNL     1      -0.004  -2.107  -3.688  0.00  0.00    +0.004 A 
ATOM     26  C   UNL     1       0.010  -2.812  -2.499  0.00  0.00    +0.046 A 
ATOM     27  C   UNL     1       0.019  -2.135  -1.290  0.00  0.00    +0.126 A 
BRANCH  27  28
ATOM     28  O   UNL     1       0.039  -2.827  -0.122  0.00  0.00    -0.506 OA
ATOM     29  H   UNL     1      -0.838  -3.040   0.225  0.00  0.00    +0.292 HD
ENDBRANCH  27  28
ENDBRANCH  20  22
ENDBRANCH   1  21
TORSDOF 6
