REMARK  Name = ZINC09644568
REMARK  6 active torsions:
REMARK  status: ('A' for Active; 'I' for Inactive)
REMARK    1  A    between atoms: C_4  and  N_7
REMARK    2  A    between atoms: C_8  and  C_29
REMARK    3  A    between atoms: C_10  and  S_12
REMARK    4  A    between atoms: S_12  and  C_13
REMARK    5  A    between atoms: C_13  and  C_14
REMARK    6  A    between atoms: N_16  and  N_17
REMARK                            x       y       z     vdW  Elec       q    Type
REMARK                         _______ _______ _______ _____ _____    ______ ____
ROOT
ATOM      1  C   UNL     1      -6.524   0.966  -2.447  0.00  0.00    +0.240 C 
ATOM      2  O   UNL     1      -7.349   1.820  -2.200  0.00  0.00    -0.273 OA
ATOM      3  N   UNL     1      -6.859  -0.092  -3.212  0.00  0.00    -0.223 N 
ATOM      4  H   UNL     1      -6.199  -0.775  -3.410  0.00  0.00    +0.174 HD
ENDROOT
BRANCH   3   5
ATOM      5  N   UNL     1      -8.159  -0.205  -3.722  0.00  0.00    -0.137 N 
ATOM      6  C   UNL     1      -8.492   0.029  -5.008  0.00  0.00    +0.263 C 
ATOM      7  O   UNL     1      -7.753   0.363  -5.909  0.00  0.00    -0.271 OA
ATOM      8  C   UNL     1      -9.982  -0.215  -5.089  0.00  0.00    +0.114 C 
ATOM      9  C   UNL     1     -10.282  -1.353  -6.059  0.00  0.00    +0.035 C 
ATOM     10  C   UNL     1     -11.792  -1.603  -6.106  0.00  0.00    +0.003 C 
ATOM     11  C   UNL     1     -12.505  -0.326  -6.556  0.00  0.00    +0.000 C 
ATOM     12  C   UNL     1     -12.214   0.799  -5.560  0.00  0.00    +0.003 C 
ATOM     13  C   UNL     1     -10.706   1.059  -5.511  0.00  0.00    +0.035 C 
ATOM     14  N   UNL     1     -10.357  -0.592  -3.721  0.00  0.00    -0.284 N 
ATOM     15  C   UNL     1      -9.223  -0.564  -2.994  0.00  0.00    +0.326 C 
ATOM     16  O   UNL     1      -9.173  -0.831  -1.809  0.00  0.00    -0.251 OA
ATOM     17  H   UNL     1     -11.245  -0.820  -3.404  0.00  0.00    +0.151 HD
ENDBRANCH   3   5
BRANCH   1  18
ATOM     18  C   UNL     1      -5.125   1.087  -1.900  0.00  0.00    +0.174 C 
BRANCH  18  19
ATOM     19  S   UNL     1      -4.990   2.607  -0.918  0.00  0.00    -0.075 S 
BRANCH  19  23
ATOM     20  N   UNL     1      -1.239   2.070   0.019  0.00  0.00    -0.216 N 
ATOM     21  C   UNL     1      -1.508   3.229   0.650  0.00  0.00    +0.137 A 
ATOM     22  N   UNL     1      -2.757   3.542   0.413  0.00  0.00    -0.205 NA
ATOM     23  C   UNL     1      -3.321   2.604  -0.355  0.00  0.00    +0.210 A 
ATOM     24  N   UNL     1      -2.426   1.681  -0.622  0.00  0.00    -0.138 NA
BRANCH  20  28
ATOM     25  C   UNL     1       2.396   0.031  -0.021  0.00  0.00    +0.000 A 
ATOM     26  C   UNL     1       1.208  -0.677  -0.013  0.00  0.00    +0.002 A 
ATOM     27  C   UNL     1       0.002  -0.004   0.002  0.00  0.00    +0.028 A 
ATOM     28  C   UNL     1      -0.017   1.384   0.010  0.00  0.00    +0.067 A 
ATOM     29  C   UNL     1       1.178   2.092   0.002  0.00  0.00    +0.028 A 
ATOM     30  C   UNL     1       2.381   1.413  -0.013  0.00  0.00    +0.002 A 
ENDBRANCH  20  28
BRANCH  21  31
ATOM     31  C   UNL     1      -0.539   4.029   1.481  0.00  0.00    +0.057 C 
ATOM     32  C   UNL     1      -1.098   5.208   2.279  0.00  0.00    +0.012 C 
ATOM     33  C   UNL     1      -0.241   5.462   1.036  0.00  0.00    +0.012 C 
ENDBRANCH  21  31
ENDBRANCH  19  23
ENDBRANCH  18  19
ENDBRANCH   1  18
TORSDOF 6
