REMARK  Name = ZINC21781935
REMARK  8 active torsions:
REMARK  status: ('A' for Active; 'I' for Inactive)
REMARK    1  A    between atoms: C_1  and  C_2
REMARK    2  A    between atoms: C_2  and  C_26
REMARK    3  A    between atoms: C_5  and  C_21
REMARK    4  A    between atoms: N_11  and  C_12
REMARK    5  A    between atoms: C_12  and  C_13
REMARK    6  A    between atoms: C_16  and  S_19
REMARK    7  A    between atoms: S_19  and  C_20
REMARK    8  A    between atoms: N_28  and  C_29
REMARK                            x       y       z     vdW  Elec       q    Type
REMARK                         _______ _______ _______ _____ _____    ______ ____
ROOT
ATOM      1  C   UNL     1      -6.288   2.585   0.772  0.00  0.00    +0.043 C 
ATOM      2  C   UNL     1      -5.209   3.641   1.019  0.00  0.00    +0.129 C 
ATOM      3  C   UNL     1      -3.940   3.237   0.267  0.00  0.00    +0.157 C 
ATOM      4  N   UNL     1      -3.009   4.368   0.251  0.00  0.00    -0.331 N 
ATOM      5  C   UNL     1      -1.654   4.382   0.209  0.00  0.00    +0.085 A 
ATOM      6  C   UNL     1      -1.234   5.703   0.187  0.00  0.00    +0.032 A 
ATOM      7  C   UNL     1      -2.372   6.512   0.229  0.00  0.00    +0.033 A 
ATOM      8  C   UNL     1      -3.458   5.684   0.284  0.00  0.00    +0.105 A 
ATOM      9  C   UNL     1      -4.892   5.985   0.344  0.00  0.00    +0.264 C 
ATOM     10  O   UNL     1      -5.318   7.113   0.176  0.00  0.00    -0.268 OA
ATOM     11  N   UNL     1      -5.717   4.942   0.598  0.00  0.00    -0.276 N 
ENDROOT
BRANCH   5  12
ATOM     12  C   UNL     1      -0.780   3.200   0.185  0.00  0.00    +0.151 A 
ATOM     13  C   UNL     1       0.583   3.211   0.234  0.00  0.00    +0.051 A 
ATOM     14  C   UNL     1       1.000   1.868   0.184  0.00  0.00    +0.042 A 
ATOM     15  C   UNL     1      -0.114   1.110   0.109  0.00  0.00    +0.196 A 
ATOM     16  O   UNL     1      -1.186   1.917   0.104  0.00  0.00    -0.461 OA
ENDBRANCH   5  12
BRANCH   2  17
ATOM     17  C   UNL     1      -4.906   3.690   2.494  0.00  0.00    +0.238 C 
ATOM     18  O   UNL     1      -3.964   3.070   2.941  0.00  0.00    -0.273 OA
ATOM     19  N   UNL     1      -5.681   4.423   3.317  0.00  0.00    -0.311 N 
ATOM     20  H   UNL     1      -6.535   4.986   2.912  0.00  0.00    +0.149 HD
BRANCH  19  21
ATOM     21  C   UNL     1      -5.387   4.471   4.752  0.00  0.00    +0.073 C 
ATOM     22  C   UNL     1      -6.037   3.272   5.446  0.00  0.00    +0.022 C 
ATOM     23  C   UNL     1      -5.730   3.321   6.944  0.00  0.00    +0.002 C 
ATOM     24  C   UNL     1      -6.287   4.618   7.536  0.00  0.00    +0.000 C 
ATOM     25  C   UNL     1      -5.637   5.816   6.842  0.00  0.00    +0.002 C 
ATOM     26  C   UNL     1      -5.944   5.767   5.344  0.00  0.00    +0.022 C 
ENDBRANCH  19  21
ENDBRANCH   2  17
BRANCH  11  27
ATOM     27  C   UNL     1      -7.162   5.125   0.446  0.00  0.00    +0.144 C 
BRANCH  27  28
ATOM     28  C   UNL     1      -7.545   4.922  -0.998  0.00  0.00    -0.030 A 
ATOM     29  C   UNL     1      -7.415   5.963  -1.899  0.00  0.00    +0.006 A 
ATOM     30  C   UNL     1      -7.760   5.779  -3.223  0.00  0.00    +0.015 A 
ATOM     31  C   UNL     1      -8.248   4.549  -3.648  0.00  0.00    +0.008 A 
ATOM     32  C   UNL     1      -8.383   3.507  -2.739  0.00  0.00    +0.015 A 
ATOM     33  C   UNL     1      -8.031   3.697  -1.417  0.00  0.00    +0.006 A 
BRANCH  31  34
ATOM     34  S   UNL     1      -8.697   4.312  -5.335  0.00  0.00    -0.129 S 
ATOM     35  C   UNL     1      -8.353   5.916  -6.111  0.00  0.00    +0.090 C 
ENDBRANCH  31  34
ENDBRANCH  27  28
ENDBRANCH  11  27
TORSDOF 6
