REMARK  Name = ZINC36304426
REMARK  16 active torsions:
REMARK  status: ('A' for Active; 'I' for Inactive)
REMARK    1  A    between atoms: C_1  and  C_2
REMARK    2  A    between atoms: C_2  and  C_3
REMARK    3  A    between atoms: C_3  and  C_4
REMARK    4  A    between atoms: C_4  and  C_6
REMARK    5  A    between atoms: C_4  and  O_37
REMARK    6  A    between atoms: C_6  and  N_7
REMARK    7  A    between atoms: N_7  and  C_8
REMARK    8  A    between atoms: N_7  and  C_15
REMARK    9  A    between atoms: C_8  and  C_9
REMARK   10  A    between atoms: C_15  and  C_16
REMARK   11  A    between atoms: C_17  and  C_36
REMARK   12  A    between atoms: N_19  and  C_30
REMARK   13  A    between atoms: C_20  and  O_21
REMARK   14  A    between atoms: O_21  and  C_22
REMARK   15  A    between atoms: C_27  and  O_28
REMARK   16  A    between atoms: O_28  and  C_29
REMARK                            x       y       z     vdW  Elec       q    Type
REMARK                         _______ _______ _______ _____ _____    ______ ____
ROOT
ATOM      1  C   UNL     1      -4.025  -5.341   0.990  0.00  0.00    +0.021 A 
ATOM      2  C   UNL     1      -3.834  -6.357   0.049  0.00  0.00    +0.065 A 
ATOM      3  N   UNL     1      -3.808  -7.505   0.677  0.00  0.00    -0.168 NA
ATOM      4  N   UNL     1      -3.982  -7.263   2.046  0.00  0.00    -0.200 N 
ATOM      5  C   UNL     1      -4.108  -5.919   2.218  0.00  0.00    +0.225 A 
ATOM      6  C   UNL     1      -3.684  -6.164  -1.438  0.00  0.00    +0.068 C 
ENDROOT
BRANCH   4   7
ATOM      7  C   UNL     1      -4.014  -8.231   3.059  0.00  0.00    +0.069 A 
ATOM      8  C   UNL     1      -3.456  -7.959   4.300  0.00  0.00    +0.028 A 
ATOM      9  C   UNL     1      -3.489  -8.915   5.296  0.00  0.00    +0.002 A 
ATOM     10  C   UNL     1      -4.078 -10.143   5.057  0.00  0.00    +0.000 A 
ATOM     11  C   UNL     1      -4.635 -10.418   3.822  0.00  0.00    +0.002 A 
ATOM     12  C   UNL     1      -4.610  -9.463   2.824  0.00  0.00    +0.028 A 
ENDBRANCH   4   7
BRANCH   1  13
ATOM     13  C   UNL     1      -4.115  -3.866   0.696  0.00  0.00    -0.035 C 
BRANCH  13  14
ATOM     14  N   UNL     1      -3.348  -3.118   1.702  0.00  0.00    +0.387 N 
ATOM     15  H   UNL     1      -3.664  -3.376   2.625  0.00  0.00    -0.081 HD
BRANCH  14  16
ATOM     16  C   UNL     1      -3.550  -1.677   1.499  0.00  0.00    -0.046 C 
BRANCH  16  17
ATOM     17  C   UNL     1      -3.483  -0.959   2.848  0.00  0.00    +0.098 C 
BRANCH  17  18
ATOM     18  O   UNL     1      -2.220  -1.218   3.464  0.00  0.00    -0.394 OA
ATOM     19  H   UNL     1      -1.474  -0.781   3.030  0.00  0.00    +0.210 HD
ENDBRANCH  17  18
BRANCH  17  20
ATOM     20  C   UNL     1      -3.647   0.547   2.633  0.00  0.00    +0.029 C 
BRANCH  20  22
ATOM     21  C   UNL     1      -3.868   2.759   3.773  0.00  0.00    +0.004 C 
ATOM     22  C   UNL     1      -3.705   1.253   3.989  0.00  0.00    -0.001 C 
ENDBRANCH  20  22
ENDBRANCH  17  20
ENDBRANCH  16  17
ENDBRANCH  14  16
BRANCH  14  23
ATOM     23  C   UNL     1      -1.921  -3.437   1.565  0.00  0.00    -0.042 C 
BRANCH  23  24
ATOM     24  C   UNL     1      -1.536  -3.406   0.108  0.00  0.00    -0.064 A 
ATOM     25  C   UNL     1      -1.511  -4.578  -0.625  0.00  0.00    +0.002 A 
ATOM     26  C   UNL     1      -1.158  -4.550  -1.961  0.00  0.00    +0.000 A 
ATOM     27  C   UNL     1      -0.831  -3.350  -2.564  0.00  0.00    +0.000 A 
ATOM     28  C   UNL     1      -0.857  -2.178  -1.831  0.00  0.00    +0.000 A 
ATOM     29  C   UNL     1      -1.214  -2.206  -0.496  0.00  0.00    +0.002 A 
ENDBRANCH  23  24
ENDBRANCH  14  23
ENDBRANCH  13  14
ENDBRANCH   1  13
BRANCH   5  30
ATOM     30  O   UNL     1      -4.287  -5.274   3.398  0.00  0.00    -0.434 OA
BRANCH  30  31
ATOM     31  C   UNL     1      -5.551  -5.182   3.890  0.00  0.00    +0.172 A 
ATOM     32  C   UNL     1      -6.596  -5.826   3.246  0.00  0.00    +0.050 A 
ATOM     33  C   UNL     1      -7.880  -5.731   3.747  0.00  0.00    +0.004 A 
ATOM     34  C   UNL     1      -8.127  -4.995   4.891  0.00  0.00    +0.004 A 
ATOM     35  C   UNL     1      -7.090  -4.350   5.538  0.00  0.00    +0.049 A 
ATOM     36  C   UNL     1      -5.799  -4.445   5.045  0.00  0.00    +0.162 A 
BRANCH  36  37
ATOM     37  O   UNL     1      -4.776  -3.815   5.683  0.00  0.00    -0.491 OA
ATOM     38  C   UNL     1      -5.105  -3.078   6.862  0.00  0.00    +0.277 C 
ENDBRANCH  36  37
ENDBRANCH  30  31
ENDBRANCH   5  30
TORSDOF 13
