REMARK  Name = ZINC27215471
REMARK  11 active torsions:
REMARK  status: ('A' for Active; 'I' for Inactive)
REMARK    1  A    between atoms: C_3  and  C_7
REMARK    2  A    between atoms: C_7  and  C_9
REMARK    3  A    between atoms: C_7  and  O_34
REMARK    4  A    between atoms: C_9  and  N_10
REMARK    5  A    between atoms: N_10  and  C_11
REMARK    6  A    between atoms: C_11  and  C_12
REMARK    7  A    between atoms: C_12  and  C_13
REMARK    8  A    between atoms: C_16  and  N_19
REMARK    9  A    between atoms: C_20  and  C_21
REMARK   10  A    between atoms: C_21  and  N_22
REMARK   11  A    between atoms: N_25  and  C_26
REMARK                            x       y       z     vdW  Elec       q    Type
REMARK                         _______ _______ _______ _____ _____    ______ ____
ROOT
ATOM      1  C   UNL     1       8.162   7.476  -4.769  0.00  0.00    -0.049 A 
ATOM      2  C   UNL     1       7.452   6.348  -5.138  0.00  0.00    +0.005 A 
ATOM      3  C   UNL     1       7.890   5.566  -6.187  0.00  0.00    +0.028 A 
ATOM      4  C   UNL     1       9.051   5.916  -6.877  0.00  0.00    +0.066 A 
ATOM      5  C   UNL     1       9.762   7.056  -6.501  0.00  0.00    +0.028 A 
ATOM      6  C   UNL     1       9.312   7.832  -5.453  0.00  0.00    +0.005 A 
ENDROOT
BRANCH   4   7
ATOM      7  N   UNL     1       9.492   5.143  -7.921  0.00  0.00    -0.235 NA
ATOM      8  C   UNL     1       8.706   4.905  -8.932  0.00  0.00    +0.126 C 
ATOM      9  N   UNL     1       7.365   4.718  -8.727  0.00  0.00    -0.301 N 
ATOM     10  H   UNL     1       7.051   4.325  -7.898  0.00  0.00    +0.153 HD
BRANCH   9  11
ATOM     11  C   UNL     1       6.449   5.094  -9.713  0.00  0.00    +0.035 A 
ATOM     12  C   UNL     1       6.787   4.983 -11.056  0.00  0.00    +0.043 A 
ATOM     13  C   UNL     1       5.879   5.356 -12.029  0.00  0.00    +0.044 A 
ATOM     14  C   UNL     1       4.634   5.840 -11.667  0.00  0.00    +0.040 A 
ATOM     15  C   UNL     1       4.294   5.952 -10.330  0.00  0.00    +0.044 A 
ATOM     16  C   UNL     1       5.196   5.574  -9.353  0.00  0.00    +0.043 A 
ATOM     17 CL   UNL     1       2.732   6.560  -9.880  0.00  0.00    -0.083 Cl
ATOM     18 CL   UNL     1       6.301   5.218 -13.708  0.00  0.00    -0.083 Cl
ENDBRANCH   9  11
BRANCH   8  19
ATOM     19  C   UNL     1       9.272   4.834 -10.326  0.00  0.00    +0.282 C 
BRANCH  19  20
ATOM     20  N   UNL     1      10.734   4.903 -10.263  0.00  0.00    +0.030 N 
ATOM     21  O   UNL     1      11.336   4.242  -9.449  0.00  0.00    -0.131 OA
ATOM     22  O   UNL     1      11.339   5.620 -11.026  0.00  0.00    -0.131 OA
ENDBRANCH  19  20
ENDBRANCH   8  19
ENDBRANCH   4   7
BRANCH   1  23
ATOM     23  C   UNL     1       7.679   8.326  -3.622  0.00  0.00    +0.016 C 
BRANCH  23  24
ATOM     24  C   UNL     1       6.641   9.328  -4.132  0.00  0.00    -0.078 C 
BRANCH  24  25
ATOM     25  N   UNL     1       6.087  10.079  -2.997  0.00  0.00    +0.381 N 
ATOM     26  H   UNL     1       6.830  10.573  -2.526  0.00  0.00    -0.086 HD
ATOM     27  H   UNL     1       5.648   9.438  -2.353  0.00  0.00    -0.086 HD
BRANCH  25  28
ATOM     28  C   UNL     1       5.091  11.041  -3.486  0.00  0.00    -0.046 C 
BRANCH  28  29
ATOM     29  C   UNL     1       4.513  11.823  -2.305  0.00  0.00    +0.129 C 
BRANCH  29  32
ATOM     30  C   UNL     1       2.879  14.996  -3.529  0.00  0.00    +0.020 A 
ATOM     31  C   UNL     1       3.853  14.123  -3.068  0.00  0.00    +0.009 A 
ATOM     32  C   UNL     1       3.491  12.810  -2.807  0.00  0.00    -0.003 A 
ATOM     33  C   UNL     1       2.182  12.418  -3.013  0.00  0.00    +0.116 A 
ATOM     34  N   UNL     1       1.282  13.276  -3.452  0.00  0.00    -0.263 NA
ATOM     35  C   UNL     1       1.590  14.532  -3.711  0.00  0.00    +0.111 A 
ENDBRANCH  29  32
BRANCH  29  36
ATOM     36  O   UNL     1       3.892  10.916  -1.392  0.00  0.00    -0.389 OA
ATOM     37  H   UNL     1       3.167  10.405  -1.777  0.00  0.00    +0.210 HD
ENDBRANCH  29  36
ENDBRANCH  28  29
ENDBRANCH  25  28
ENDBRANCH  24  25
ENDBRANCH  23  24
ENDBRANCH   1  23
TORSDOF 11
