REMARK  Name = ZINC27529475
REMARK  6 active torsions:
REMARK  status: ('A' for Active; 'I' for Inactive)
REMARK    1  A    between atoms: C_1  and  C_2
REMARK    2  A    between atoms: C_2  and  O_3
REMARK    3  A    between atoms: O_3  and  C_4
REMARK    4  A    between atoms: C_4  and  C_6
REMARK    5  A    between atoms: C_10  and  N_11
REMARK    6  A    between atoms: N_25  and  C_28
REMARK                            x       y       z     vdW  Elec       q    Type
REMARK                         _______ _______ _______ _____ _____    ______ ____
ROOT
ATOM      1  C   UNL     1      -2.831  -2.446   0.016  0.00  0.00    +0.091 A 
ATOM      2  C   UNL     1      -3.539  -2.736  -1.215  0.00  0.00    -0.025 A 
ATOM      3  C   UNL     1      -4.786  -3.229  -1.037  0.00  0.00    -0.021 A 
ATOM      4  S   UNL     1      -4.992  -3.300   0.716  0.00  0.00    -0.079 S 
ATOM      5  C   UNL     1      -3.497  -2.709   1.204  0.00  0.00    +0.096 A 
ATOM      6  C   UNL     1      -5.746  -3.612  -2.119  0.00  0.00    -0.036 C 
ATOM      7  N   UNL     1      -5.278  -3.020  -3.385  0.00  0.00    +0.381 N 
ATOM      8  C   UNL     1      -3.859  -3.343  -3.587  0.00  0.00    -0.074 C 
ATOM      9  C   UNL     1      -2.990  -2.532  -2.620  0.00  0.00    +0.018 C 
ATOM     10  C   UNL     1      -6.066  -3.562  -4.500  0.00  0.00    -0.096 C 
ATOM     11  H   UNL     1      -5.392  -2.018  -3.350  0.00  0.00    -0.082 HD
ENDROOT
BRANCH   5  12
ATOM     12  N   UNL     1      -3.034  -2.523   2.502  0.00  0.00    -0.203 N 
ATOM     13  C   UNL     1      -3.153  -1.347   3.176  0.00  0.00    +0.230 C 
ATOM     14  O   UNL     1      -3.836  -0.395   2.866  0.00  0.00    -0.274 OA
ATOM     15  C   UNL     1      -2.270  -1.468   4.377  0.00  0.00    +0.088 C 
ATOM     16  C   UNL     1      -2.670  -0.784   5.666  0.00  0.00    +0.013 C 
ATOM     17  C   UNL     1      -1.580  -1.140   6.697  0.00  0.00    +0.001 C 
ATOM     18  C   UNL     1      -1.435  -2.648   6.872  0.00  0.00    +0.001 C 
ATOM     19  C   UNL     1      -1.219  -3.369   5.529  0.00  0.00    +0.013 C 
ATOM     20  C   UNL     1      -2.369  -3.002   4.632  0.00  0.00    +0.088 C 
ATOM     21  C   UNL     1      -2.423  -3.501   3.224  0.00  0.00    +0.230 C 
ATOM     22  O   UNL     1      -2.005  -4.560   2.810  0.00  0.00    -0.274 OA
ENDBRANCH   5  12
BRANCH   1  23
ATOM     23  C   UNL     1      -1.469  -1.905   0.006  0.00  0.00    +0.342 C 
ATOM     24  O   UNL     1      -0.515  -2.659   0.004  0.00  0.00    -0.245 OA
BRANCH  23  25
ATOM     25  O   UNL     1      -1.274  -0.571  -0.001  0.00  0.00    -0.461 OA
BRANCH  25  27
ATOM     26  C   UNL     1       0.101   1.417  -0.017  0.00  0.00    +0.048 C 
ATOM     27  C   UNL     1       0.080  -0.113  -0.010  0.00  0.00    +0.229 C 
ENDBRANCH  25  27
ENDBRANCH  23  25
ENDBRANCH   1  23
TORSDOF 4
