REMARK  Name = ZINC06149119
REMARK  11 active torsions:
REMARK  status: ('A' for Active; 'I' for Inactive)
REMARK    1  A    between atoms: C_1  and  C_2
REMARK    2  A    between atoms: C_2  and  C_3
REMARK    3  A    between atoms: C_3  and  C_4
REMARK    4  A    between atoms: C_3  and  C_5
REMARK    5  A    between atoms: C_3  and  N_6
REMARK    6  A    between atoms: C_7  and  C_11
REMARK    7  A    between atoms: C_11  and  C_13
REMARK    8  A    between atoms: C_11  and  N_70
REMARK    9  A    between atoms: C_17  and  C_26
REMARK   10  A    between atoms: C_19  and  C_25
REMARK   11  A    between atoms: C_29  and  C_32
REMARK                            x       y       z     vdW  Elec       q    Type
REMARK                         _______ _______ _______ _____ _____    ______ ____
ROOT
ATOM      1  C   UNL     1       1.116   7.544   0.074  0.00  0.00    +0.039 C 
ENDROOT
BRANCH   1   2
ATOM      2  C   UNL     1       1.304   6.057   0.234  0.00  0.00    +0.011 A 
ATOM      3  C   UNL     1       0.224   5.238   0.255  0.00  0.00    +0.017 A 
ATOM      4  C   UNL     1       0.440   3.799   0.413  0.00  0.00    -0.001 A 
ATOM      5  C   UNL     1      -0.635   2.904   0.442  0.00  0.00    +0.013 A 
ATOM      6  C   UNL     1      -0.400   1.567   0.584  0.00  0.00    -0.050 A 
ATOM      7  C   UNL     1       0.897   1.087   0.713  0.00  0.00    +0.008 A 
ATOM      8  C   UNL     1       1.972   1.950   0.687  0.00  0.00    -0.026 A 
ATOM      9  C   UNL     1       1.756   3.316   0.537  0.00  0.00    +0.052 A 
ATOM     10  N   UNL     1       2.812   4.202   0.509  0.00  0.00    -0.322 N 
ATOM     11  H   UNL     1       3.747   3.858   0.598  0.00  0.00    +0.169 HD
ATOM     12  C   UNL     1       2.604   5.522   0.363  0.00  0.00    +0.251 A 
ATOM     13  O   UNL     1       3.561   6.276   0.342  0.00  0.00    -0.268 OA
ATOM     14  C   UNL     1       3.374   1.416   0.822  0.00  0.00    +0.046 C 
ATOM     15  C   UNL     1      -1.558   0.602   0.608  0.00  0.00    +0.044 C 
ENDBRANCH   1   2
BRANCH   1  21
ATOM     16  C   UNL     1       1.196   7.850   2.477  0.00  0.00    -0.072 C 
ATOM     17  C   UNL     1       2.114   8.349   3.596  0.00  0.00    +0.017 C 
ATOM     18  C   UNL     1       2.445   9.799   3.371  0.00  0.00    -0.048 C 
ATOM     19  C   UNL     1       2.260  10.398   2.215  0.00  0.00    -0.041 C 
ATOM     20  C   UNL     1       1.696   9.699   1.011  0.00  0.00    -0.049 C 
ATOM     21  N   UNL     1       1.802   8.239   1.188  0.00  0.00    +0.392 N 
ATOM     22  H   UNL     1       2.793   7.972   1.188  0.00  0.00    -0.080 HD
BRANCH  18  23
ATOM     23  C   UNL     1       2.999  10.582   4.495  0.00  0.00    -0.022 A 
ATOM     24  C   UNL     1       4.249  10.259   5.024  0.00  0.00    +0.011 A 
ATOM     25  C   UNL     1       4.765  10.997   6.069  0.00  0.00    +0.039 A 
ATOM     26  C   UNL     1       4.039  12.050   6.601  0.00  0.00    +0.123 A 
ATOM     27  C   UNL     1       2.794  12.371   6.083  0.00  0.00    +0.039 A 
ATOM     28  C   UNL     1       2.272  11.644   5.034  0.00  0.00    +0.011 A 
ATOM     29  F   UNL     1       4.546  12.767   7.628  0.00  0.00    -0.205 F 
ENDBRANCH  18  23
ENDBRANCH   1  21
BRANCH   1  31
ATOM     30  N   UNL     1       1.057   8.413  -2.323  0.00  0.00    -0.225 N 
ATOM     31  C   UNL     1       1.722   7.989  -1.232  0.00  0.00    +0.143 A 
ATOM     32  N   UNL     1       2.998   8.032  -1.529  0.00  0.00    -0.115 NA
ATOM     33  N   UNL     1       3.111   8.465  -2.737  0.00  0.00    -0.023 NA
ATOM     34  N   UNL     1       1.940   8.700  -3.219  0.00  0.00    -0.043 NA
BRANCH  30  35
ATOM     35  C   UNL     1      -0.397   8.531  -2.465  0.00  0.00    +0.061 C 
ATOM     36  C   UNL     1      -1.047   7.172  -2.197  0.00  0.00    +0.036 C 
ATOM     37  C   UNL     1      -0.926   9.556  -1.460  0.00  0.00    +0.036 C 
BRANCH  35  39
ATOM     38  C   UNL     1      -2.253   9.111  -4.033  0.00  0.00    +0.006 C 
ATOM     39  C   UNL     1      -0.735   8.988  -3.885  0.00  0.00    +0.026 C 
ENDBRANCH  35  39
ENDBRANCH  30  35
ENDBRANCH   1  31
TORSDOF 6
