REMARK  Name = ZINC11854992
REMARK  5 active torsions:
REMARK  status: ('A' for Active; 'I' for Inactive)
REMARK    1  A    between atoms: C_1  and  C_2
REMARK    2  A    between atoms: C_3  and  C_37
REMARK    3  A    between atoms: C_11  and  N_20
REMARK    4  A    between atoms: C_13  and  C_15
REMARK    5  A    between atoms: C_21  and  C_23
REMARK                            x       y       z     vdW  Elec       q    Type
REMARK                         _______ _______ _______ _____ _____    ______ ____
ROOT
ATOM      1  C   UNL     1      -0.561  12.700   0.074  0.00  0.00    +0.051 C 
ATOM      2  C   UNL     1      -0.158  11.248   0.062  0.00  0.00    +0.035 A 
ATOM      3  C   UNL     1       1.160  10.895   0.049  0.00  0.00    +0.050 A 
ATOM      4  N   UNL     1       1.506   9.608   0.044  0.00  0.00    -0.217 NA
ATOM      5  C   UNL     1       0.600   8.655   0.042  0.00  0.00    +0.234 A 
ATOM      6  N   UNL     1      -0.728   8.945   0.055  0.00  0.00    -0.291 N 
ATOM      7  H   UNL     1      -1.383   8.229   0.058  0.00  0.00    +0.172 HD
ATOM      8  C   UNL     1      -1.133  10.233   0.066  0.00  0.00    +0.256 A 
ATOM      9  O   UNL     1      -2.321  10.512   0.078  0.00  0.00    -0.267 OA
ATOM     10  N   UNL     1       1.005   7.334   0.031  0.00  0.00    -0.185 N 
ATOM     11  C   UNL     1       2.297   6.891   0.017  0.00  0.00    +0.132 A 
ATOM     12  C   UNL     1       2.267   5.534   0.010  0.00  0.00    +0.074 A 
ATOM     13  C   UNL     1       0.915   5.132   0.020  0.00  0.00    +0.102 A 
ATOM     14  N   UNL     1       0.164   6.215   0.027  0.00  0.00    -0.162 NA
ATOM     15  C   UNL     1       2.225  11.960   0.045  0.00  0.00    +0.066 C 
ENDROOT
BRANCH  13  16
ATOM     16  C   UNL     1       0.425   3.737   0.017  0.00  0.00    +0.039 A 
ATOM     17  C   UNL     1      -0.864   3.276   0.026  0.00  0.00    +0.018 A 
ATOM     18  C   UNL     1      -1.080   1.915   0.017  0.00  0.00    +0.008 A 
ATOM     19  C   UNL     1      -0.013   1.076   0.008  0.00  0.00    +0.046 A 
ATOM     20  S   UNL     1       1.360   2.217   0.001  0.00  0.00    -0.095 S 
ENDBRANCH  13  16
BRANCH  11  21
ATOM     21  N   UNL     1       3.440   7.688   0.011  0.00  0.00    -0.269 N 
ATOM     22  C   UNL     1       4.660   7.116  -0.003  0.00  0.00    +0.230 C 
ATOM     23  O   UNL     1       4.764   5.908  -0.010  0.00  0.00    -0.274 OA
ATOM     24  H   UNL     1       3.357   8.654   0.016  0.00  0.00    +0.156 HD
BRANCH  22  25
ATOM     25  C   UNL     1       5.896   7.978  -0.009  0.00  0.00    +0.142 C 
ATOM     26  C   UNL     1       5.880   8.860  -1.228  0.00  0.00    +0.011 A 
ATOM     27  C   UNL     1       5.072   9.983  -1.242  0.00  0.00    +0.008 A 
ATOM     28  C   UNL     1       5.042  10.804  -2.353  0.00  0.00    +0.001 A 
ATOM     29  C   UNL     1       5.821  10.506  -3.456  0.00  0.00    +0.004 A 
ATOM     30  C   UNL     1       6.629   9.389  -3.446  0.00  0.00    +0.046 A 
ATOM     31  C   UNL     1       6.662   8.560  -2.331  0.00  0.00    +0.133 A 
ATOM     32  O   UNL     1       7.463   7.467  -2.342  0.00  0.00    -0.455 OA
ATOM     33  C   UNL     1       7.836   6.888  -1.176  0.00  0.00    +0.133 A 
ATOM     34  C   UNL     1       7.116   7.097  -0.012  0.00  0.00    +0.011 A 
ATOM     35  C   UNL     1       7.517   6.492   1.166  0.00  0.00    +0.008 A 
ATOM     36  C   UNL     1       8.635   5.679   1.184  0.00  0.00    +0.001 A 
ATOM     37  C   UNL     1       9.357   5.469   0.024  0.00  0.00    +0.004 A 
ATOM     38  C   UNL     1       8.961   6.070  -1.154  0.00  0.00    +0.046 A 
ENDBRANCH  22  25
ENDBRANCH  11  21
TORSDOF 3
