REMARK  Name = ZINC25671487
REMARK  10 active torsions:
REMARK  status: ('A' for Active; 'I' for Inactive)
REMARK    1  A    between atoms: C_1  and  C_2
REMARK    2  A    between atoms: C_2  and  O_3
REMARK    3  A    between atoms: O_3  and  C_4
REMARK    4  A    between atoms: C_4  and  C_6
REMARK    5  A    between atoms: C_7  and  C_20
REMARK    6  A    between atoms: C_12  and  C_14
REMARK    7  A    between atoms: C_17  and  C_19
REMARK    8  A    between atoms: C_20  and  S_21
REMARK    9  A    between atoms: S_21  and  C_22
REMARK   10  A    between atoms: C_25  and  C_28
REMARK                            x       y       z     vdW  Elec       q    Type
REMARK                         _______ _______ _______ _____ _____    ______ ____
ROOT
ATOM      1  C   UNL     1      -5.215   4.910  -1.081  0.00  0.00    +0.082 C 
ATOM      2  C   UNL     1      -4.692   4.495   0.094  0.00  0.00    +0.034 C 
ATOM      3  N   UNL     1      -5.050   5.087   1.272  0.00  0.00    -0.272 N 
ATOM      4  C   UNL     1      -5.915   6.105   1.359  0.00  0.00    +0.304 C 
ATOM      5  O   UNL     1      -6.167   6.570   2.454  0.00  0.00    -0.252 OA
ATOM      6  N   UNL     1      -6.519   6.628   0.274  0.00  0.00    -0.285 N 
ATOM      7  C   UNL     1      -6.206   6.056  -1.046  0.00  0.00    +0.179 C 
ATOM      8  H   UNL     1      -4.620   4.730   2.219  0.00  0.00    +0.156 HD
ATOM      9  H   UNL     1      -7.232   7.462   0.357  0.00  0.00    +0.151 HD
ENDROOT
BRANCH   7  10
ATOM     10  C   UNL     1      -5.666   7.162  -1.916  0.00  0.00    +0.130 A 
ATOM     11  C   UNL     1      -6.048   7.428  -3.178  0.00  0.00    +0.047 A 
ATOM     12  C   UNL     1      -5.290   8.541  -3.609  0.00  0.00    +0.045 A 
ATOM     13  C   UNL     1      -4.490   8.888  -2.585  0.00  0.00    +0.102 A 
ATOM     14  O   UNL     1      -4.726   8.053  -1.560  0.00  0.00    -0.463 OA
ATOM     15  C   UNL     1      -3.502  10.026  -2.585  0.00  0.00    +0.086 C 
ENDBRANCH   7  10
BRANCH   1  16
ATOM     16  C   UNL     1      -4.850   4.295  -2.301  0.00  0.00    +0.339 C 
ATOM     17  O   UNL     1      -5.596   3.487  -2.822  0.00  0.00    -0.245 OA
BRANCH  16  18
ATOM     18  O   UNL     1      -3.674   4.603  -2.887  0.00  0.00    -0.462 OA
BRANCH  18  20
ATOM     19  C   UNL     1      -2.007   4.418  -4.626  0.00  0.00    +0.048 C 
ATOM     20  C   UNL     1      -3.370   3.944  -4.117  0.00  0.00    +0.229 C 
ENDBRANCH  18  20
ENDBRANCH  16  18
ENDBRANCH   1  16
BRANCH   2  21
ATOM     21  C   UNL     1      -3.704   3.358   0.105  0.00  0.00    +0.128 C 
BRANCH  21  22
ATOM     22  S   UNL     1      -2.036   4.011   0.366  0.00  0.00    -0.082 S 
BRANCH  22  23
ATOM     23  C   UNL     1      -1.112   2.511   0.335  0.00  0.00    +0.167 A 
ATOM     24  N   UNL     1       0.237   2.406   0.487  0.00  0.00    -0.333 N 
ATOM     25  H   UNL     1       0.845   3.310   0.644  0.00  0.00    +0.168 HD
ATOM     26  C   UNL     1       0.548   1.060   0.397  0.00  0.00    +0.067 A 
ATOM     27  C   UNL     1      -0.623   0.403   0.195  0.00  0.00    +0.139 A 
ATOM     28  N   UNL     1      -1.610   1.308   0.157  0.00  0.00    -0.230 NA
BRANCH  26  29
ATOM     29  C   UNL     1       1.893   0.456   0.501  0.00  0.00    +0.000 A 
ATOM     30  C   UNL     1       3.012   1.267   0.704  0.00  0.00    +0.013 A 
ATOM     31  C   UNL     1       4.264   0.697   0.805  0.00  0.00    +0.039 A 
ATOM     32  C   UNL     1       4.414  -0.676   0.694  0.00  0.00    +0.123 A 
ATOM     33  C   UNL     1       3.308  -1.484   0.486  0.00  0.00    +0.039 A 
ATOM     34  C   UNL     1       2.051  -0.926   0.389  0.00  0.00    +0.013 A 
ATOM     35  F   UNL     1       5.644  -1.228   0.789  0.00  0.00    -0.205 F 
ENDBRANCH  26  29
ENDBRANCH  22  23
ENDBRANCH  21  22
ENDBRANCH   2  21
TORSDOF 8
