REMARK  Name = ZINC09794789
REMARK  9 active torsions:
REMARK  status: ('A' for Active; 'I' for Inactive)
REMARK    1  A    between atoms: C_1  and  O_2
REMARK    2  A    between atoms: O_2  and  C_3
REMARK    3  A    between atoms: C_6  and  N_9
REMARK    4  A    between atoms: C_10  and  S_14
REMARK    5  A    between atoms: S_14  and  C_15
REMARK    6  A    between atoms: C_15  and  C_16
REMARK    7  A    between atoms: N_18  and  C_19
REMARK    8  A    between atoms: N_18  and  C_26
REMARK    9  A    between atoms: C_19  and  C_20
REMARK                            x       y       z     vdW  Elec       q    Type
REMARK                         _______ _______ _______ _____ _____    ______ ____
ROOT
ATOM      1  C   UNL     1      -1.046   6.122  -2.218  0.00  0.00    +0.226 C 
ATOM      2  O   UNL     1      -0.866   6.346  -3.396  0.00  0.00    -0.275 OA
ATOM      3  N   UNL     1       0.005   5.880  -1.409  0.00  0.00    -0.292 N 
ENDROOT
BRANCH   3   4
ATOM      4  C   UNL     1       1.370   6.000  -1.927  0.00  0.00    +0.099 C 
ATOM      5  C   UNL     1       1.593   7.418  -2.479  0.00  0.00    +0.047 C 
ATOM      6  C   UNL     1       2.900   7.462  -3.307  0.00  0.00    +0.168 C 
ATOM      7  S   UNL     1       3.047   5.735  -3.922  0.00  0.00    -0.029 S 
ATOM      8  O   UNL     1       4.228   5.153  -3.388  0.00  0.00    -0.174 OA
ATOM      9  O   UNL     1       2.835   5.724  -5.327  0.00  0.00    -0.174 OA
ATOM     10  C   UNL     1       1.582   4.989  -3.089  0.00  0.00    +0.188 C 
ENDBRANCH   3   4
BRANCH   1  11
ATOM     11  C   UNL     1      -2.445   6.113  -1.658  0.00  0.00    +0.173 C 
BRANCH  11  12
ATOM     12  S   UNL     1      -3.635   6.336  -3.004  0.00  0.00    -0.075 S 
BRANCH  12  14
ATOM     13  N   UNL     1      -6.394   6.413  -2.597  0.00  0.00    -0.187 N 
ATOM     14  C   UNL     1      -5.142   6.288  -2.092  0.00  0.00    +0.214 A 
ATOM     15  N   UNL     1      -5.264   6.129  -0.791  0.00  0.00    -0.101 NA
ATOM     16  N   UNL     1      -6.502   6.141  -0.451  0.00  0.00    -0.022 NA
ATOM     17  N   UNL     1      -7.251   6.306  -1.487  0.00  0.00    -0.038 NA
BRANCH  13  21
ATOM     18  C   UNL     1      -7.474   6.985  -6.586  0.00  0.00    +0.120 A 
ATOM     19  C   UNL     1      -8.276   6.218  -5.753  0.00  0.00    +0.048 A 
ATOM     20  C   UNL     1      -7.920   6.029  -4.433  0.00  0.00    +0.031 A 
ATOM     21  C   UNL     1      -6.758   6.605  -3.939  0.00  0.00    +0.070 A 
ATOM     22  C   UNL     1      -5.958   7.377  -4.771  0.00  0.00    +0.031 A 
ATOM     23  C   UNL     1      -6.312   7.562  -6.092  0.00  0.00    +0.048 A 
BRANCH  18  25
ATOM     24  C   UNL     1      -6.953   7.972  -8.686  0.00  0.00    +0.277 C 
ATOM     25  O   UNL     1      -7.825   7.171  -7.886  0.00  0.00    -0.495 OA
ENDBRANCH  18  25
ENDBRANCH  13  21
ENDBRANCH  12  14
ENDBRANCH  11  12
ENDBRANCH   1  11
BRANCH   3  26
ATOM     26  C   UNL     1      -0.219   5.497  -0.013  0.00  0.00    +0.143 C 
BRANCH  26  27
ATOM     27  C   UNL     1      -0.180   3.995   0.108  0.00  0.00    -0.030 A 
ATOM     28  C   UNL     1       1.032   3.344   0.242  0.00  0.00    +0.005 A 
ATOM     29  C   UNL     1       1.068   1.967   0.353  0.00  0.00    +0.000 A 
ATOM     30  C   UNL     1      -0.108   1.241   0.330  0.00  0.00    +0.000 A 
ATOM     31  C   UNL     1      -1.319   1.892   0.191  0.00  0.00    +0.000 A 
ATOM     32  C   UNL     1      -1.356   3.269   0.086  0.00  0.00    +0.005 A 
ENDBRANCH  26  27
ENDBRANCH   3  26
TORSDOF 8
