REMARK  Name = ZINC12369015
REMARK  10 active torsions:
REMARK  status: ('A' for Active; 'I' for Inactive)
REMARK    1  A    between atoms: C_3  and  C_28
REMARK    2  A    between atoms: C_6  and  C_7
REMARK    3  A    between atoms: C_7  and  N_49
REMARK    4  A    between atoms: C_8  and  C_9
REMARK    5  A    between atoms: C_8  and  N_49
REMARK    6  A    between atoms: C_9  and  C_11
REMARK    7  A    between atoms: C_9  and  O_27
REMARK    8  A    between atoms: C_11  and  O_12
REMARK    9  A    between atoms: O_12  and  N_13
REMARK   10  A    between atoms: C_14  and  C_15
REMARK                            x       y       z     vdW  Elec       q    Type
REMARK                         _______ _______ _______ _____ _____    ______ ____
ROOT
ATOM      1  C   UNL     1       7.545   7.774   0.303  0.00  0.00    +0.138 C 
ENDROOT
BRANCH   1   2
ATOM      2  O   UNL     1       8.021   7.773  -1.044  0.00  0.00    -0.390 OA
ATOM      3  H   UNL     1       7.476   8.287  -1.655  0.00  0.00    +0.210 HD
ENDBRANCH   1   2
BRANCH   1   4
ATOM      4  C   UNL     1       7.508   9.210   0.830  0.00  0.00    -0.047 C 
BRANCH   4   5
ATOM      5  N   UNL     1       8.869   9.777   0.785  0.00  0.00    +0.383 N 
ATOM      6  H   UNL     1       9.493   9.207   1.369  0.00  0.00    -0.085 HD
ATOM      7  H   UNL     1       9.207   9.770  -0.184  0.00  0.00    -0.085 HD
BRANCH   5   8
ATOM      8  C   UNL     1       8.864  11.163   1.288  0.00  0.00    -0.047 C 
BRANCH   8  14
ATOM      9  C   UNL     1      11.110  11.571   2.316  0.00  0.00    +0.002 A 
ATOM     10  C   UNL     1      12.396  12.073   2.261  0.00  0.00    +0.012 A 
ATOM     11  C   UNL     1      12.836  12.727   1.126  0.00  0.00    +0.055 A 
ATOM     12  C   UNL     1      11.990  12.876   0.043  0.00  0.00    +0.012 A 
ATOM     13  C   UNL     1      10.704  12.370   0.095  0.00  0.00    +0.002 A 
ATOM     14  C   UNL     1      10.265  11.715   1.231  0.00  0.00    -0.064 A 
BRANCH  11  15
ATOM     15  C   UNL     1      14.237  13.279   1.068  0.00  0.00    +0.417 C 
ATOM     16  F   UNL     1      14.240  14.595   1.543  0.00  0.00    -0.166 F 
ATOM     17  F   UNL     1      15.080  12.495   1.863  0.00  0.00    -0.166 F 
ATOM     18  F   UNL     1      14.692  13.260  -0.255  0.00  0.00    -0.166 F 
ENDBRANCH  11  15
ENDBRANCH   8  14
ENDBRANCH   5   8
ENDBRANCH   4   5
ENDBRANCH   1   4
BRANCH   1  19
ATOM     19  C   UNL     1       6.136   7.179   0.346  0.00  0.00    +0.292 C 
BRANCH  19  20
ATOM     20  O   UNL     1       6.189   5.803  -0.035  0.00  0.00    -0.391 OA
BRANCH  20  21
ATOM     21  N   UNL     1       4.929   5.155  -0.029  0.00  0.00    -0.093 NA
ATOM     22  C   UNL     1       4.843   3.901  -0.356  0.00  0.00    +0.161 C 
BRANCH  22  23
ATOM     23  C   UNL     1       3.543   3.233  -0.349  0.00  0.00    +0.030 C 
ATOM     24  C   UNL     1       2.426   3.918  -0.001  0.00  0.00    +0.060 C 
ATOM     25  C   UNL     1       1.146   3.189   0.008  0.00  0.00    +0.037 A 
ATOM     26  C   UNL     1      -0.074   3.862   0.024  0.00  0.00    +0.033 A 
ATOM     27  C   UNL     1      -1.250   3.138   0.031  0.00  0.00    +0.042 A 
ATOM     28  C   UNL     1      -1.219   1.752   0.017  0.00  0.00    +0.023 A 
ATOM     29  C   UNL     1      -0.013   1.076   0.008  0.00  0.00    +0.048 A 
ATOM     30  C   UNL     1       1.175   1.785   0.000  0.00  0.00    +0.130 A 
ATOM     31  O   UNL     1       2.374   1.151  -0.014  0.00  0.00    -0.487 OA
ATOM     32  C   UNL     1       3.438   1.779  -0.729  0.00  0.00    +0.267 C 
ATOM     33 CL   UNL     1      -2.776   3.967   0.050  0.00  0.00    -0.084 Cl
ATOM     34 CL   UNL     1       2.502   5.601   0.420  0.00  0.00    -0.082 Cl
ENDBRANCH  22  23
ENDBRANCH  20  21
ENDBRANCH  19  20
ENDBRANCH   1  19
TORSDOF 10
