REMARK  Name = ZINC39945941
REMARK  14 active torsions:
REMARK  status: ('A' for Active; 'I' for Inactive)
REMARK    1  A    between atoms: C_1  and  C_2
REMARK    2  A    between atoms: C_2  and  C_3
REMARK    3  A    between atoms: C_3  and  C_4
REMARK    4  A    between atoms: C_7  and  C_12
REMARK    5  A    between atoms: N_9  and  C_11
REMARK    6  A    between atoms: N_14  and  C_15
REMARK    7  A    between atoms: C_15  and  C_17
REMARK    8  A    between atoms: C_15  and  C_33
REMARK    9  A    between atoms: C_19  and  O_32
REMARK   10  A    between atoms: C_21  and  O_31
REMARK   11  A    between atoms: C_23  and  O_30
REMARK   12  A    between atoms: C_25  and  S_28
REMARK   13  A    between atoms: S_28  and  C_29
REMARK   14  A    between atoms: C_33  and  C_35
REMARK                            x       y       z     vdW  Elec       q    Type
REMARK                         _______ _______ _______ _____ _____    ______ ____
ROOT
ATOM      1  C   UNL     1      -0.725  -4.722  -5.198  0.00  0.00    +0.122 C 
ENDROOT
BRANCH   1   2
ATOM      2  C   UNL     1       0.645  -4.441  -5.817  0.00  0.00    +0.172 C 
ATOM      3  C   UNL     1       0.954  -2.945  -5.716  0.00  0.00    +0.176 C 
ATOM      4  C   UNL     1      -0.088  -2.161  -6.520  0.00  0.00    +0.177 C 
ATOM      5  C   UNL     1      -0.081  -2.659  -7.968  0.00  0.00    +0.184 C 
ATOM      6  C   UNL     1      -0.350  -4.167  -7.982  0.00  0.00    +0.207 C 
ATOM      7  O   UNL     1       0.637  -4.833  -7.191  0.00  0.00    -0.356 OA
BRANCH   6   8
ATOM      8  S   UNL     1      -0.273  -4.779  -9.688  0.00  0.00    -0.131 S 
ATOM      9  C   UNL     1      -0.902  -6.476  -9.573  0.00  0.00    +0.087 C 
ENDBRANCH   6   8
BRANCH   5  10
ATOM     10  O   UNL     1       1.194  -2.395  -8.558  0.00  0.00    -0.386 OA
ATOM     11  H   UNL     1       1.270  -2.685  -9.477  0.00  0.00    +0.210 HD
ENDBRANCH   5  10
BRANCH   4  12
ATOM     12  O   UNL     1      -1.383  -2.363  -5.949  0.00  0.00    -0.386 OA
ATOM     13  H   UNL     1      -2.092  -1.895  -6.409  0.00  0.00    +0.210 HD
ENDBRANCH   4  12
BRANCH   3  14
ATOM     14  O   UNL     1       0.907  -2.539  -4.347  0.00  0.00    -0.387 OA
ATOM     15  H   UNL     1       1.094  -1.600  -4.208  0.00  0.00    +0.210 HD
ENDBRANCH   3  14
ENDBRANCH   1   2
BRANCH   1  18
ATOM     16  C   UNL     1      -1.917  -3.901  -3.238  0.00  0.00    +0.200 C 
ATOM     17  O   UNL     1      -2.953  -4.006  -3.860  0.00  0.00    -0.278 OA
ATOM     18  N   UNL     1      -0.747  -4.234  -3.817  0.00  0.00    -0.310 N 
ATOM     19  H   UNL     1       0.082  -4.151  -3.319  0.00  0.00    +0.149 HD
BRANCH  16  22
ATOM     20  C   UNL     1      -1.744  -1.420  -0.437  0.00  0.00    -0.029 C 
ATOM     21  C   UNL     1      -1.126  -2.087  -1.688  0.00  0.00    -0.005 C 
ATOM     22  C   UNL     1      -1.939  -3.400  -1.817  0.00  0.00    +0.019 C 
ATOM     23  N   UNL     1      -3.312  -2.990  -1.423  0.00  0.00    +0.386 N 
ATOM     24  C   UNL     1      -3.143  -2.047  -0.293  0.00  0.00    -0.075 C 
ATOM     25  C   UNL     1      -4.086  -4.161  -0.992  0.00  0.00    -0.095 C 
ATOM     26  H   UNL     1      -3.772  -2.531  -2.195  0.00  0.00    -0.081 HD
BRANCH  20  27
ATOM     27  C   UNL     1      -1.858   0.092  -0.643  0.00  0.00    +0.001 C 
BRANCH  27  29
ATOM     28  C   UNL     1      -0.572   2.218  -0.900  0.00  0.00    +0.004 C 
ATOM     29  C   UNL     1      -0.458   0.707  -0.694  0.00  0.00    -0.003 C 
ENDBRANCH  27  29
ENDBRANCH  20  27
ENDBRANCH  16  22
ENDBRANCH   1  18
BRANCH   1  30
ATOM     30  C   UNL     1      -0.992  -6.228  -5.212  0.00  0.00    +0.100 C 
ATOM     31  C   UNL     1      -2.363  -6.509  -4.593  0.00  0.00    +0.026 C 
ATOM     32 CL   UNL     1       0.283  -7.072  -4.256  0.00  0.00    -0.120 Cl
ENDBRANCH   1  30
TORSDOF 10
