REMARK  Name = ZINC16225207
REMARK  4 active torsions:
REMARK  status: ('A' for Active; 'I' for Inactive)
REMARK    1  A    between atoms: C_9  and  O_19
REMARK    2  A    between atoms: C_10  and  C_11
REMARK    3  A    between atoms: O_19  and  S_20
REMARK    4  A    between atoms: S_20  and  C_23
REMARK                            x       y       z     vdW  Elec       q    Type
REMARK                         _______ _______ _______ _____ _____    ______ ____
ROOT
ATOM      1  C   UNL     1      -0.016   1.358   0.009  0.00  0.00    +0.001 A 
ATOM      2  C   UNL     1       1.167   2.091   0.002  0.00  0.00    +0.001 A 
ATOM      3  C   UNL     1       2.379   1.464  -0.013  0.00  0.00    +0.009 A 
ATOM      4  C   UNL     1       2.434   0.066  -0.021  0.00  0.00    -0.007 A 
ATOM      5  C   UNL     1       1.232  -0.682  -0.013  0.00  0.00    -0.017 A 
ATOM      6  C   UNL     1       0.002  -0.004   0.002  0.00  0.00    +0.008 A 
ATOM      7  C   UNL     1       1.290  -2.088  -0.020  0.00  0.00    +0.012 A 
ATOM      8  C   UNL     1       2.484  -2.737  -0.035  0.00  0.00    +0.050 A 
ATOM      9  C   UNL     1       3.695  -2.047  -0.043  0.00  0.00    +0.165 A 
ATOM     10  C   UNL     1       3.712  -0.647  -0.037  0.00  0.00    +0.028 A 
ENDROOT
BRANCH  10  11
ATOM     11  C   UNL     1       4.977   0.085  -0.046  0.00  0.00    +0.032 C 
ATOM     12  C   UNL     1       5.955  -0.234   0.846  0.00  0.00    +0.080 C 
ATOM     13  C   UNL     1       7.297   0.359   1.032  0.00  0.00    +0.276 C 
ATOM     14  O   UNL     1       7.696   1.281   0.338  0.00  0.00    -0.267 OA
ATOM     15  N   UNL     1       8.037  -0.160   1.988  0.00  0.00    -0.155 NA
ATOM     16  C   UNL     1       7.617  -1.159   2.748  0.00  0.00    +0.149 C 
ATOM     17  S   UNL     1       5.974  -1.482   2.126  0.00  0.00    -0.052 S 
ATOM     18  N   UNL     1       8.280  -1.788   3.769  0.00  0.00    -0.339 N 
ATOM     19  H   UNL     1       9.176  -1.508   4.011  0.00  0.00    +0.144 HD
ATOM     20  H   UNL     1       7.853  -2.514   4.249  0.00  0.00    +0.144 HD
ENDBRANCH  10  11
BRANCH   9  21
ATOM     21  O   UNL     1       4.864  -2.736  -0.057  0.00  0.00    -0.342 OA
BRANCH  21  22
ATOM     22  S   UNL     1       5.384  -3.043  -1.454  0.00  0.00    +0.151 S 
ATOM     23  O   UNL     1       6.480  -3.933  -1.292  0.00  0.00    -0.131 OA
ATOM     24  O   UNL     1       4.250  -3.368  -2.247  0.00  0.00    -0.131 OA
BRANCH  22  25
ATOM     25  C   UNL     1       6.043  -1.545  -2.107  0.00  0.00    +0.128 A 
ATOM     26  C   UNL     1       5.228  -0.683  -2.817  0.00  0.00    +0.032 A 
ATOM     27  C   UNL     1       5.744   0.492  -3.329  0.00  0.00    +0.022 A 
ATOM     28  C   UNL     1       7.077   0.806  -3.131  0.00  0.00    +0.041 A 
ATOM     29  C   UNL     1       7.892  -0.057  -2.420  0.00  0.00    +0.022 A 
ATOM     30  C   UNL     1       7.373  -1.229  -1.903  0.00  0.00    +0.032 A 
ATOM     31 CL   UNL     1       7.726   2.282  -3.774  0.00  0.00    -0.084 Cl
ENDBRANCH  22  25
ENDBRANCH  21  22
ENDBRANCH   9  21
TORSDOF 4
