REMARK  Name = ZINC20572887
REMARK  9 active torsions:
REMARK  status: ('A' for Active; 'I' for Inactive)
REMARK    1  A    between atoms: C_1  and  C_2
REMARK    2  A    between atoms: C_2  and  C_3
REMARK    3  A    between atoms: C_3  and  C_5
REMARK    4  A    between atoms: C_3  and  O_18
REMARK    5  A    between atoms: N_7  and  N_8
REMARK    6  A    between atoms: C_9  and  C_10
REMARK    7  A    between atoms: C_13  and  O_17
REMARK    8  A    between atoms: C_15  and  O_16
REMARK    9  A    between atoms: O_18  and  C_19
REMARK                            x       y       z     vdW  Elec       q    Type
REMARK                         _______ _______ _______ _____ _____    ______ ____
ROOT
ATOM      1  C   UNL     1       4.470   7.955  -0.916  0.00  0.00    +0.273 C 
ATOM      2  O   UNL     1       5.307   7.199  -1.363  0.00  0.00    -0.270 OA
ATOM      3  N   UNL     1       4.566   9.279  -1.147  0.00  0.00    -0.204 N 
ATOM      4  H   UNL     1       3.806   9.964  -0.741  0.00  0.00    +0.177 HD
ENDROOT
BRANCH   3   5
ATOM      5  N   UNL     1       5.632   9.783  -1.902  0.00  0.00    -0.188 NA
ATOM      6  C   UNL     1       5.724  11.059  -2.124  0.00  0.00    +0.142 C 
BRANCH   6   7
ATOM      7  C   UNL     1       6.846  11.589  -2.919  0.00  0.00    +0.036 A 
ATOM      8  C   UNL     1       6.948  12.962  -3.159  0.00  0.00    +0.016 A 
ATOM      9  C   UNL     1       7.999  13.454  -3.902  0.00  0.00    +0.046 A 
ATOM     10  C   UNL     1       8.959  12.589  -4.414  0.00  0.00    +0.120 A 
ATOM     11  C   UNL     1       8.867  11.224  -4.181  0.00  0.00    +0.091 A 
ATOM     12  C   UNL     1       7.818  10.719  -3.432  0.00  0.00    +0.129 A 
BRANCH  12  13
ATOM     13  O   UNL     1       7.729   9.384  -3.198  0.00  0.00    -0.506 OA
ATOM     14  H   UNL     1       8.493   8.703  -3.602  0.00  0.00    +0.292 HD
ENDBRANCH  12  13
BRANCH  10  15
ATOM     15  O   UNL     1       9.992  13.082  -5.145  0.00  0.00    -0.507 OA
ATOM     16  H   UNL     1      10.754  12.399  -5.551  0.00  0.00    +0.292 HD
ENDBRANCH  10  15
ENDBRANCH   6   7
ENDBRANCH   3   5
BRANCH   1  17
ATOM     17  C   UNL     1       3.322   7.412  -0.103  0.00  0.00    +0.260 C 
BRANCH  17  19
ATOM     18  C   UNL     1       2.119   7.576   2.080  0.00  0.00    +0.008 C 
ATOM     19  C   UNL     1       3.352   8.030   1.296  0.00  0.00    +0.051 C 
ENDBRANCH  17  19
BRANCH  17  20
ATOM     20  O   UNL     1       3.441   5.992  -0.000  0.00  0.00    -0.478 OA
BRANCH  20  21
ATOM     21  C   UNL     1       2.293   5.269  -0.080  0.00  0.00    +0.136 A 
ATOM     22  C   UNL     1       1.063   5.932  -0.134  0.00  0.00    +0.047 A 
ATOM     23  C   UNL     1      -0.103   5.237  -0.214  0.00  0.00    +0.012 A 
ATOM     24  C   UNL     1      -0.077   3.831  -0.242  0.00  0.00    -0.017 A 
ATOM     25  C   UNL     1      -1.263   3.082  -0.324  0.00  0.00    +0.008 A 
ATOM     26  C   UNL     1      -1.200   1.723  -0.356  0.00  0.00    +0.001 A 
ATOM     27  C   UNL     1       0.024   1.059  -0.297  0.00  0.00    +0.001 A 
ATOM     28  C   UNL     1       1.193   1.752  -0.217  0.00  0.00    +0.010 A 
ATOM     29  C   UNL     1       1.169   3.157  -0.188  0.00  0.00    -0.000 A 
ATOM     30  C   UNL     1       2.355   3.905  -0.106  0.00  0.00    +0.067 A 
ATOM     31 BR   UNL     1       4.029   3.027  -0.031  0.00  0.00    -0.046 Br
ENDBRANCH  20  21
ENDBRANCH  17  20
ENDBRANCH   1  17
TORSDOF 8
