REMARK  Name = ZINC46633741
REMARK  4 active torsions:
REMARK  status: ('A' for Active; 'I' for Inactive)
REMARK    1  A    between atoms: C_1  and  C_2
REMARK    2  A    between atoms: N_11  and  C_15
REMARK    3  A    between atoms: C_15  and  C_16
REMARK    4  A    between atoms: C_22  and  C_25
REMARK                            x       y       z     vdW  Elec       q    Type
REMARK                         _______ _______ _______ _____ _____    ______ ____
ROOT
ATOM      1  C   UNL     1       3.332   1.546   2.915  0.00  0.00    +0.213 C 
ENDROOT
BRANCH   1  11
ATOM      2  C   UNL     1      -0.019   1.526   0.010  0.00  0.00    +0.010 C 
ATOM      3  C   UNL     1       0.002  -0.004   0.002  0.00  0.00    +0.018 C 
ATOM      4  C   UNL     1       0.718  -0.497  -1.258  0.00  0.00    +0.006 C 
ATOM      5  C   UNL     1       0.756  -2.027  -1.256  0.00  0.00    +0.000 C 
ATOM      6  C   UNL     1       1.519  -2.517  -0.023  0.00  0.00    +0.003 C 
ATOM      7  C   UNL     1       0.807  -2.032   1.242  0.00  0.00    +0.035 C 
ATOM      8  C   UNL     1       0.739  -0.509   1.238  0.00  0.00    +0.115 C 
ATOM      9  C   UNL     1       2.128   0.083   1.303  0.00  0.00    +0.247 C 
ATOM     10  O   UNL     1       3.022  -0.055   0.496  0.00  0.00    -0.273 OA
ATOM     11  N   UNL     1       2.163   0.796   2.447  0.00  0.00    -0.215 N 
ATOM     12  C   UNL     1       0.998   0.734   3.103  0.00  0.00    +0.310 C 
ATOM     13  O   UNL     1       0.786   1.296   4.159  0.00  0.00    -0.252 OA
ATOM     14  N   UNL     1       0.086  -0.021   2.460  0.00  0.00    -0.285 N 
ATOM     15  H   UNL     1      -0.822  -0.205   2.747  0.00  0.00    +0.151 HD
ENDBRANCH   1  11
BRANCH   1  16
ATOM     16  C   UNL     1       3.277   2.951   2.373  0.00  0.00    +0.234 C 
ATOM     17  O   UNL     1       2.353   3.293   1.666  0.00  0.00    -0.274 OA
ATOM     18  N   UNL     1       4.255   3.827   2.674  0.00  0.00    -0.295 N 
ATOM     19  C   UNL     1       5.390   3.434   3.525  0.00  0.00    +0.136 C 
ATOM     20  C   UNL     1       6.688   3.830   2.813  0.00  0.00    +0.179 C 
ATOM     21  O   UNL     1       6.620   5.210   2.444  0.00  0.00    -0.369 OA
ATOM     22  C   UNL     1       5.577   5.516   1.516  0.00  0.00    +0.166 C 
ATOM     23  C   UNL     1       4.224   5.205   2.157  0.00  0.00    +0.144 C 
BRANCH  22  24
ATOM     24  C   UNL     1       5.640   6.977   1.153  0.00  0.00    -0.017 A 
ATOM     25  C   UNL     1       6.028   7.908   2.098  0.00  0.00    +0.009 A 
ATOM     26  C   UNL     1       6.087   9.248   1.765  0.00  0.00    +0.039 A 
ATOM     27  C   UNL     1       5.756   9.659   0.485  0.00  0.00    +0.123 A 
ATOM     28  C   UNL     1       5.367   8.725  -0.461  0.00  0.00    +0.039 A 
ATOM     29  C   UNL     1       5.314   7.385  -0.128  0.00  0.00    +0.009 A 
ATOM     30  F   UNL     1       5.813  10.968   0.159  0.00  0.00    -0.205 F 
ENDBRANCH  22  24
ENDBRANCH   1  16
TORSDOF 3
