REMARK  Name = ZINC09549182
REMARK  10 active torsions:
REMARK  status: ('A' for Active; 'I' for Inactive)
REMARK    1  A    between atoms: C_1  and  C_2
REMARK    2  A    between atoms: C_5  and  N_8
REMARK    3  A    between atoms: C_9  and  C_32
REMARK    4  A    between atoms: C_10  and  N_14
REMARK    5  A    between atoms: C_11  and  C_13
REMARK    6  A    between atoms: C_15  and  C_17
REMARK    7  A    between atoms: C_17  and  S_18
REMARK    8  A    between atoms: S_18  and  C_19
REMARK    9  A    between atoms: N_24  and  C_25
REMARK   10  A    between atoms: C_25  and  C_26
REMARK                            x       y       z     vdW  Elec       q    Type
REMARK                         _______ _______ _______ _____ _____    ______ ____
ROOT
ATOM      1  N   UNL     1      -5.330  -0.268  -0.192  0.00  0.00    -0.282 N 
ATOM      2  C   UNL     1      -4.096  -0.784  -0.025  0.00  0.00    +0.228 C 
ATOM      3  O   UNL     1      -3.962  -1.953   0.267  0.00  0.00    -0.275 OA
ATOM      4  H   UNL     1      -5.442   0.685  -0.336  0.00  0.00    +0.155 HD
ENDROOT
BRANCH   1   7
ATOM      5  N   UNL     1      -8.492  -1.867   0.143  0.00  0.00    -0.235 N 
ATOM      6  C   UNL     1      -7.696  -0.771   0.278  0.00  0.00    +0.063 A 
ATOM      7  C   UNL     1      -6.456  -1.111  -0.157  0.00  0.00    +0.078 A 
ATOM      8  C   UNL     1      -6.494  -2.455  -0.560  0.00  0.00    +0.082 A 
ATOM      9  N   UNL     1      -7.710  -2.905  -0.380  0.00  0.00    -0.170 NA
ATOM     10  C   UNL     1      -5.334  -3.245  -1.106  0.00  0.00    +0.069 C 
ATOM     11  C   UNL     1      -8.116   0.575   0.809  0.00  0.00    +0.068 C 
BRANCH   5  16
ATOM     12  C   UNL     1     -13.997  -2.183   1.488  0.00  0.00    +0.044 C 
ATOM     13  C   UNL     1     -12.535  -2.099   1.131  0.00  0.00    -0.050 A 
ATOM     14  C   UNL     1     -12.046  -0.978   0.486  0.00  0.00    +0.005 A 
ATOM     15  C   UNL     1     -10.707  -0.898   0.158  0.00  0.00    +0.028 A 
ATOM     16  C   UNL     1      -9.851  -1.945   0.475  0.00  0.00    +0.066 A 
ATOM     17  C   UNL     1     -10.347  -3.072   1.118  0.00  0.00    +0.028 A 
ATOM     18  C   UNL     1     -11.686  -3.144   1.449  0.00  0.00    +0.005 A 
ENDBRANCH   5  16
ENDBRANCH   1   7
BRANCH   2  19
ATOM     19  C   UNL     1      -2.883   0.093  -0.201  0.00  0.00    +0.172 C 
BRANCH  19  20
ATOM     20  S   UNL     1      -1.383  -0.886   0.088  0.00  0.00    -0.088 S 
BRANCH  20  21
ATOM     21  C   UNL     1      -0.070   0.265  -0.152  0.00  0.00    +0.160 A 
ATOM     22  N   UNL     1      -0.128   1.544  -0.469  0.00  0.00    -0.133 NA
ATOM     23  N   UNL     1       1.034   2.268  -0.609  0.00  0.00    -0.125 NA
ATOM     24  C   UNL     1       2.200   1.679  -0.426  0.00  0.00    +0.182 A 
ATOM     25  S   UNL     1       1.694   0.011  -0.032  0.00  0.00    -0.025 S 
ATOM     26  N   UNL     1       3.480   2.213  -0.515  0.00  0.00    -0.320 N 
ATOM     27  H   UNL     1       4.253   1.650  -0.350  0.00  0.00    +0.148 HD
BRANCH  26  28
ATOM     28  C   UNL     1       3.662   3.626  -0.857  0.00  0.00    +0.135 C 
BRANCH  28  29
ATOM     29  C   UNL     1       5.156   3.954  -0.888  0.00  0.00    +0.135 C 
ATOM     30  C   UNL     1       5.369   5.466  -1.123  0.00  0.00    +0.035 C 
ATOM     31  C   UNL     1       6.616   5.532  -2.033  0.00  0.00    +0.031 C 
ATOM     32  C   UNL     1       7.009   4.053  -2.240  0.00  0.00    +0.160 C 
ATOM     33  O   UNL     1       5.789   3.312  -2.016  0.00  0.00    -0.375 OA
ENDBRANCH  28  29
ENDBRANCH  26  28
ENDBRANCH  20  21
ENDBRANCH  19  20
ENDBRANCH   2  19
TORSDOF 7
