REMARK  Name = ZINC39687255
REMARK  8 active torsions:
REMARK  status: ('A' for Active; 'I' for Inactive)
REMARK    1  A    between atoms: C_4  and  C_7
REMARK    2  A    between atoms: C_7  and  C_8
REMARK    3  A    between atoms: C_8  and  C_10
REMARK    4  A    between atoms: C_8  and  N_18
REMARK    5  A    between atoms: C_19  and  C_21
REMARK    6  A    between atoms: C_32  and  C_34
REMARK    7  A    between atoms: C_34  and  C_35
REMARK    8  A    between atoms: C_35  and  C_36
REMARK                            x       y       z     vdW  Elec       q    Type
REMARK                         _______ _______ _______ _____ _____    ______ ____
ROOT
ATOM      1  C   UNL     1       3.324   2.467   2.949  0.00  0.00    +0.100 C 
ATOM      2  C   UNL     1       3.739   3.470   1.849  0.00  0.00    +0.121 C 
ATOM      3  N   UNL     1       2.459   4.017   1.339  0.00  0.00    -0.300 N 
ATOM      4  C   UNL     1       1.619   4.178   2.550  0.00  0.00    +0.115 C 
ATOM      5  C   UNL     1       1.934   2.938   3.409  0.00  0.00    -0.004 C 
ATOM      6  C   UNL     1       1.966   3.313   4.887  0.00  0.00    -0.010 C 
ATOM      7  C   UNL     1       0.560   3.721   5.336  0.00  0.00    -0.082 C 
ATOM      8  N   UNL     1      -0.370   2.608   5.113  0.00  0.00    +0.379 N 
ATOM      9  C   UNL     1      -0.465   2.315   3.678  0.00  0.00    -0.082 C 
ATOM     10  C   UNL     1       0.897   1.847   3.159  0.00  0.00    -0.010 C 
ATOM     11  C   UNL     1       2.133   4.303   0.063  0.00  0.00    +0.216 C 
ATOM     12  O   UNL     1       1.071   4.833  -0.187  0.00  0.00    -0.276 OA
ATOM     13  H   UNL     1      -0.036   1.790   5.600  0.00  0.00    -0.086 HD
ATOM     14  H   UNL     1      -1.282   2.858   5.465  0.00  0.00    -0.086 HD
ENDROOT
BRANCH   1  16
ATOM     15  N   UNL     1       3.336   0.007   3.205  0.00  0.00    -0.303 N 
ATOM     16  C   UNL     1       3.245   1.072   2.384  0.00  0.00    +0.219 C 
ATOM     17  O   UNL     1       3.100   0.908   1.191  0.00  0.00    -0.275 OA
ATOM     18  H   UNL     1       3.385   0.137   4.165  0.00  0.00    +0.149 HD
BRANCH  15  19
ATOM     19  C   UNL     1       3.360  -1.348   2.647  0.00  0.00    +0.163 C 
BRANCH  19  20
ATOM     20  C   UNL     1       2.650  -2.290   3.585  0.00  0.00    +0.236 C 
ATOM     21  O   UNL     1       2.320  -1.912   4.689  0.00  0.00    -0.274 OA
ATOM     22  N   UNL     1       2.383  -3.553   3.197  0.00  0.00    -0.300 N 
ATOM     23  C   UNL     1       2.858  -4.054   1.900  0.00  0.00    +0.108 C 
ATOM     24  C   UNL     1       3.643  -5.349   2.130  0.00  0.00    +0.019 C 
ATOM     25  C   UNL     1       2.772  -6.339   2.905  0.00  0.00    +0.003 C 
ATOM     26  C   UNL     1       2.411  -5.745   4.269  0.00  0.00    +0.019 C 
ATOM     27  C   UNL     1       1.617  -4.456   4.066  0.00  0.00    +0.108 C 
ENDBRANCH  19  20
BRANCH  19  28
ATOM     28  C   UNL     1       4.810  -1.801   2.469  0.00  0.00    +0.067 C 
BRANCH  28  32
ATOM     29  C   UNL     1       6.698   0.599  -0.518  0.00  0.00    +0.000 A 
ATOM     30  C   UNL     1       6.771   0.967   0.812  0.00  0.00    +0.000 A 
ATOM     31  C   UNL     1       6.160   0.191   1.779  0.00  0.00    +0.004 A 
ATOM     32  C   UNL     1       5.475  -0.954   1.415  0.00  0.00    -0.045 A 
ATOM     33  C   UNL     1       5.402  -1.322   0.085  0.00  0.00    +0.004 A 
ATOM     34  C   UNL     1       6.014  -0.546  -0.882  0.00  0.00    +0.000 A 
ENDBRANCH  28  32
ENDBRANCH  19  28
ENDBRANCH  15  19
ENDBRANCH   1  16
BRANCH  11  35
ATOM     35  C   UNL     1       3.087   3.963  -1.053  0.00  0.00    +0.096 C 
BRANCH  35  36
ATOM     36  C   UNL     1       2.539   4.504  -2.375  0.00  0.00    +0.013 C 
BRANCH  36  37
ATOM     37  C   UNL     1       3.508   4.159  -3.508  0.00  0.00    -0.011 C 
ATOM     38  C   UNL     1       4.822   4.949  -3.337  0.00  0.00    +0.003 C 
ATOM     39  C   UNL     1       5.240   5.308  -4.785  0.00  0.00    +0.000 C 
ATOM     40  C   UNL     1       3.883   5.621  -5.464  0.00  0.00    +0.000 C 
ATOM     41  C   UNL     1       2.911   4.587  -4.860  0.00  0.00    +0.003 C 
ENDBRANCH  36  37
ENDBRANCH  35  36
ENDBRANCH  11  35
TORSDOF 8
