REMARK  Name = ZINC09279026
REMARK  10 active torsions:
REMARK  status: ('A' for Active; 'I' for Inactive)
REMARK    1  A    between atoms: C_1  and  C_2
REMARK    2  A    between atoms: C_5  and  C_35
REMARK    3  A    between atoms: C_6  and  N_8
REMARK    4  A    between atoms: C_9  and  C_24
REMARK    5  A    between atoms: C_12  and  S_13
REMARK    6  A    between atoms: S_13  and  C_14
REMARK    7  A    between atoms: C_14  and  C_15
REMARK    8  A    between atoms: C_21  and  C_23
REMARK    9  A    between atoms: C_24  and  N_25
REMARK   10  A    between atoms: C_26  and  C_28
REMARK                            x       y       z     vdW  Elec       q    Type
REMARK                         _______ _______ _______ _____ _____    ______ ____
ROOT
ATOM      1  N   UNL     1      -6.721   2.416  -1.056  0.00  0.00    -0.273 N 
ATOM      2  C   UNL     1      -6.094   1.889   0.041  0.00  0.00    +0.156 A 
ATOM      3  N   UNL     1      -6.685   2.375   1.096  0.00  0.00    -0.132 NA
ATOM      4  N   UNL     1      -7.629   3.173   0.746  0.00  0.00    -0.122 NA
ATOM      5  C   UNL     1      -7.700   3.235  -0.563  0.00  0.00    +0.197 A 
ENDROOT
BRANCH   1  11
ATOM      6  C   UNL     1      -7.424  -0.250  -5.130  0.00  0.00    +0.044 C 
ATOM      7  C   UNL     1      -6.749   0.883  -4.401  0.00  0.00    -0.048 A 
ATOM      8  C   UNL     1      -5.834   1.681  -5.063  0.00  0.00    +0.004 A 
ATOM      9  C   UNL     1      -5.212   2.722  -4.398  0.00  0.00    +0.005 A 
ATOM     10  C   UNL     1      -5.508   2.971  -3.072  0.00  0.00    -0.026 A 
ATOM     11  C   UNL     1      -6.423   2.169  -2.404  0.00  0.00    +0.053 A 
ATOM     12  C   UNL     1      -7.045   1.124  -3.074  0.00  0.00    +0.030 A 
ATOM     13  C   UNL     1      -4.835   4.109  -2.350  0.00  0.00    +0.046 C 
ENDBRANCH   1  11
BRANCH   5  14
ATOM     14  S   UNL     1      -8.840   4.191  -1.507  0.00  0.00    -0.076 S 
BRANCH  14  15
ATOM     15  C   UNL     1      -9.777   4.973  -0.170  0.00  0.00    +0.173 C 
BRANCH  15  16
ATOM     16  C   UNL     1     -10.841   5.865  -0.757  0.00  0.00    +0.229 C 
ATOM     17  O   UNL     1     -10.954   5.963  -1.960  0.00  0.00    -0.275 OA
ATOM     18  N   UNL     1     -11.666   6.554   0.056  0.00  0.00    -0.263 N 
ATOM     19  C   UNL     1     -12.647   7.377  -0.485  0.00  0.00    +0.188 A 
ATOM     20  N   UNL     1     -12.937   7.622  -1.752  0.00  0.00    -0.126 NA
ATOM     21  N   UNL     1     -13.871   8.405  -2.083  0.00  0.00    -0.145 NA
ATOM     22  C   UNL     1     -14.596   9.011  -1.165  0.00  0.00    +0.101 A 
ATOM     23  S   UNL     1     -13.835   8.361   0.318  0.00  0.00    -0.036 S 
ATOM     24  C   UNL     1     -15.745   9.974  -1.320  0.00  0.00    +0.075 C 
ATOM     25  H   UNL     1     -11.575   6.476   1.019  0.00  0.00    +0.157 HD
ENDBRANCH  15  16
ENDBRANCH  14  15
ENDBRANCH   5  14
BRANCH   2  26
ATOM     26  C   UNL     1      -4.938   0.922   0.030  0.00  0.00    +0.181 C 
BRANCH  26  27
ATOM     27  N   UNL     1      -3.677   1.667   0.029  0.00  0.00    -0.304 N 
ATOM     28  C   UNL     1      -2.503   1.006   0.019  0.00  0.00    +0.245 C 
ATOM     29  O   UNL     1      -2.490  -0.210   0.013  0.00  0.00    -0.270 OA
ATOM     30  H   UNL     1      -3.687   2.637   0.034  0.00  0.00    +0.149 HD
BRANCH  28  31
ATOM     31  C   UNL     1      -1.230   1.758   0.017  0.00  0.00    +0.039 A 
ATOM     32  C   UNL     1      -0.013   1.076   0.008  0.00  0.00    +0.013 A 
ATOM     33  C   UNL     1       1.172   1.783   0.000  0.00  0.00    +0.004 A 
ATOM     34  C   UNL     1       1.156   3.166   0.007  0.00  0.00    +0.038 A 
ATOM     35  C   UNL     1      -0.048   3.851   0.021  0.00  0.00    +0.124 A 
ATOM     36  C   UNL     1      -1.242   3.154   0.029  0.00  0.00    +0.051 A 
ATOM     37  F   UNL     1      -0.056   5.202   0.027  0.00  0.00    -0.205 F 
ENDBRANCH  28  31
ENDBRANCH  26  27
ENDBRANCH   2  26
TORSDOF 7
