REMARK  Name = ZINC24898303
REMARK  10 active torsions:
REMARK  status: ('A' for Active; 'I' for Inactive)
REMARK    1  A    between atoms: C_1  and  C_2
REMARK    2  A    between atoms: C_2  and  O_3
REMARK    3  A    between atoms: O_3  and  C_4
REMARK    4  A    between atoms: C_4  and  C_6
REMARK    5  A    between atoms: C_6  and  N_7
REMARK    6  A    between atoms: C_13  and  N_16
REMARK    7  A    between atoms: C_25  and  C_27
REMARK    8  A    between atoms: C_27  and  C_28
REMARK    9  A    between atoms: N_30  and  C_31
REMARK   10  A    between atoms: N_30  and  C_32
REMARK                            x       y       z     vdW  Elec       q    Type
REMARK                         _______ _______ _______ _____ _____    ______ ____
ROOT
ATOM      1  N   UNL     1      -3.128  -2.433   1.109  0.00  0.00    +0.387 N 
ATOM      2  C   UNL     1      -4.464  -3.050   1.078  0.00  0.00    -0.073 C 
ATOM      3  C   UNL     1      -4.312  -4.549   1.336  0.00  0.00    +0.017 C 
ATOM      4  C   UNL     1      -3.262  -5.125   0.422  0.00  0.00    -0.047 A 
ATOM      5  C   UNL     1      -3.220  -6.500   0.246  0.00  0.00    +0.004 A 
ATOM      6  C   UNL     1      -2.271  -7.069  -0.579  0.00  0.00    +0.000 A 
ATOM      7  C   UNL     1      -1.357  -6.264  -1.233  0.00  0.00    +0.000 A 
ATOM      8  C   UNL     1      -1.399  -4.895  -1.060  0.00  0.00    +0.002 A 
ATOM      9  C   UNL     1      -2.353  -4.322  -0.232  0.00  0.00    -0.057 A 
ATOM     10  C   UNL     1      -2.361  -2.823  -0.078  0.00  0.00    -0.028 C 
ATOM     11  H   UNL     1      -2.595  -2.798   1.999  0.00  0.00    -0.081 HD
ENDROOT
BRANCH   1  18
ATOM     12  N   UNL     1      -6.443   2.664   0.743  0.00  0.00    -0.289 N 
ATOM     13  C   UNL     1      -5.681   2.272   1.783  0.00  0.00    +0.303 C 
ATOM     14  O   UNL     1      -5.945   2.651   2.908  0.00  0.00    -0.253 OA
ATOM     15  N   UNL     1      -4.626   1.459   1.576  0.00  0.00    -0.286 N 
ATOM     16  C   UNL     1      -4.223   1.087   0.213  0.00  0.00    +0.108 C 
ATOM     17  C   UNL     1      -4.152  -0.440   0.120  0.00  0.00    +0.004 C 
ATOM     18  C   UNL     1      -3.225  -0.972   1.216  0.00  0.00    -0.065 C 
ATOM     19  C   UNL     1      -3.789  -0.597   2.589  0.00  0.00    +0.004 C 
ATOM     20  C   UNL     1      -3.857   0.928   2.710  0.00  0.00    +0.108 C 
ATOM     21  H   UNL     1      -6.259   2.252  -0.260  0.00  0.00    +0.151 HD
BRANCH  12  22
ATOM     22  C   UNL     1      -7.517   3.640   0.949  0.00  0.00    +0.226 C 
BRANCH  22  23
ATOM     23  C   UNL     1      -8.211   3.906  -0.362  0.00  0.00    +0.324 C 
ATOM     24  O   UNL     1      -7.847   3.339  -1.365  0.00  0.00    -0.249 OA
BRANCH  23  25
ATOM     25  O   UNL     1      -9.235   4.772  -0.415  0.00  0.00    -0.464 OA
BRANCH  25  27
ATOM     26  C   UNL     1     -10.995   5.993  -1.574  0.00  0.00    +0.048 C 
ATOM     27  C   UNL     1      -9.857   4.980  -1.711  0.00  0.00    +0.229 C 
ENDBRANCH  25  27
ENDBRANCH  23  25
ENDBRANCH  22  23
ENDBRANCH  12  22
ENDBRANCH   1  18
BRANCH  10  28
ATOM     28  C   UNL     1      -0.922  -2.323   0.064  0.00  0.00    +0.085 C 
BRANCH  28  29
ATOM     29  C   UNL     1      -0.319  -2.879   1.327  0.00  0.00    +0.214 C 
ATOM     30  O   UNL     1      -0.959  -3.642   2.020  0.00  0.00    -0.276 OA
ATOM     31  N   UNL     1       0.932  -2.530   1.688  0.00  0.00    -0.308 N 
ATOM     32  C   UNL     1       1.558  -3.152   2.857  0.00  0.00    +0.131 C 
ATOM     33  C   UNL     1       1.666  -1.529   0.909  0.00  0.00    +0.131 C 
ENDBRANCH  28  29
ENDBRANCH  10  28
TORSDOF 7
