REMARK  Name = ZINC40342686
REMARK  8 active torsions:
REMARK  status: ('A' for Active; 'I' for Inactive)
REMARK    1  A    between atoms: C_1  and  C_2
REMARK    2  A    between atoms: C_2  and  O_3
REMARK    3  A    between atoms: O_3  and  C_4
REMARK    4  A    between atoms: C_6  and  C_11
REMARK    5  A    between atoms: C_9  and  O_10
REMARK    6  A    between atoms: C_14  and  C_28
REMARK    7  A    between atoms: N_21  and  C_22
REMARK    8  A    between atoms: C_22  and  C_23
REMARK                            x       y       z     vdW  Elec       q    Type
REMARK                         _______ _______ _______ _____ _____    ______ ____
ROOT
ATOM      1  C   UNL     1       0.654  -4.954  -0.018  0.00  0.00    +0.142 C 
ATOM      2  C   UNL     1       0.915  -5.485   1.365  0.00  0.00    +0.035 A 
ATOM      3  C   UNL     1       1.217  -5.198   2.700  0.00  0.00    +0.099 A 
ATOM      4  N   UNL     1       1.283  -6.346   3.345  0.00  0.00    -0.173 NA
ATOM      5  N   UNL     1       1.052  -7.329   2.549  0.00  0.00    -0.272 N 
ATOM      6  H   UNL     1       1.049  -8.265   2.805  0.00  0.00    +0.189 HD
ATOM      7  C   UNL     1       0.813  -6.860   1.288  0.00  0.00    +0.126 A 
ATOM      8  C   UNL     1       0.496  -7.229  -0.096  0.00  0.00    +0.266 C 
ATOM      9  O   UNL     1       0.340  -8.368  -0.493  0.00  0.00    -0.268 OA
ATOM     10  N   UNL     1       0.402  -6.127  -0.865  0.00  0.00    -0.278 N 
ENDROOT
BRANCH   3  11
ATOM     11  C   UNL     1       1.426  -3.849   3.284  0.00  0.00    +0.003 A 
ATOM     12  C   UNL     1       2.031  -2.847   2.529  0.00  0.00    +0.011 A 
ATOM     13  C   UNL     1       2.222  -1.595   3.076  0.00  0.00    +0.020 A 
ATOM     14  C   UNL     1       1.815  -1.334   4.373  0.00  0.00    +0.041 A 
ATOM     15  C   UNL     1       1.213  -2.327   5.128  0.00  0.00    +0.020 A 
ATOM     16  C   UNL     1       1.012  -3.580   4.587  0.00  0.00    +0.011 A 
ATOM     17 CL   UNL     1       2.059   0.243   5.057  0.00  0.00    -0.084 Cl
ENDBRANCH   3  11
BRANCH   1  20
ATOM     18  C   UNL     1      -1.498  -1.849   0.006  0.00  0.00    +0.162 A 
ATOM     19  C   UNL     1      -0.389  -2.680  -0.003  0.00  0.00    +0.055 A 
ATOM     20  C   UNL     1      -0.553  -4.052  -0.008  0.00  0.00    -0.019 A 
ATOM     21  C   UNL     1      -1.823  -4.600  -0.005  0.00  0.00    +0.009 A 
ATOM     22  C   UNL     1      -2.934  -3.777   0.004  0.00  0.00    +0.049 A 
ATOM     23  C   UNL     1      -2.776  -2.400   0.016  0.00  0.00    +0.158 A 
BRANCH  23  24
ATOM     24  O   UNL     1      -3.868  -1.589   0.030  0.00  0.00    -0.503 OA
ATOM     25  H   UNL     1      -4.192  -1.350  -0.849  0.00  0.00    +0.292 HD
ENDBRANCH  23  24
BRANCH  18  26
ATOM     26  O   UNL     1      -1.339  -0.499   0.012  0.00  0.00    -0.489 OA
BRANCH  26  28
ATOM     27  C   UNL     1      -0.019   1.526   0.010  0.00  0.00    +0.048 C 
ATOM     28  C   UNL     1       0.002  -0.004   0.002  0.00  0.00    +0.226 C 
ENDBRANCH  26  28
ENDBRANCH  18  26
ENDBRANCH   1  20
BRANCH  10  29
ATOM     29  C   UNL     1       0.099  -6.103  -2.298  0.00  0.00    +0.183 C 
BRANCH  29  30
ATOM     30  C   UNL     1       1.383  -6.180  -3.084  0.00  0.00    +0.122 A 
ATOM     31  C   UNL     1       1.982  -7.309  -3.503  0.00  0.00    +0.046 A 
ATOM     32  C   UNL     1       3.151  -6.920  -4.196  0.00  0.00    +0.041 A 
ATOM     33  C   UNL     1       3.196  -5.577  -4.159  0.00  0.00    +0.195 A 
ATOM     34  O   UNL     1       2.120  -5.133  -3.489  0.00  0.00    -0.466 OA
ENDBRANCH  29  30
ENDBRANCH  10  29
TORSDOF 7
