REMARK  Name = ZINC34683661
REMARK  9 active torsions:
REMARK  status: ('A' for Active; 'I' for Inactive)
REMARK    1  A    between atoms: C_1  and  C_2
REMARK    2  A    between atoms: C_2  and  C_3
REMARK    3  A    between atoms: C_2  and  C_4
REMARK    4  A    between atoms: C_4  and  C_5
REMARK    5  A    between atoms: C_5  and  N_6
REMARK    6  A    between atoms: C_9  and  N_12
REMARK    7  A    between atoms: N_12  and  C_13
REMARK    8  A    between atoms: N_12  and  S_19
REMARK    9  A    between atoms: S_19  and  C_22
REMARK                            x       y       z     vdW  Elec       q    Type
REMARK                         _______ _______ _______ _____ _____    ______ ____
ROOT
ATOM      1  N   UNL     1      -7.713  -0.958  -1.437  0.00  0.00    -0.200 N 
ENDROOT
BRANCH   1   5
ATOM      2  N   UNL     1      -3.650  -0.615  -0.371  0.00  0.00    +0.380 N 
ATOM      3  C   UNL     1      -4.619   0.063   0.498  0.00  0.00    -0.077 C 
ATOM      4  C   UNL     1      -6.013  -0.527   0.271  0.00  0.00    +0.005 C 
ATOM      5  C   UNL     1      -6.412  -0.329  -1.194  0.00  0.00    +0.095 C 
ATOM      6  C   UNL     1      -5.355  -0.975  -2.094  0.00  0.00    +0.005 C 
ATOM      7  C   UNL     1      -3.986  -0.369  -1.779  0.00  0.00    -0.077 C 
ATOM      8  H   UNL     1      -3.674  -1.607  -0.189  0.00  0.00    -0.082 HD
BRANCH   2   9
ATOM      9  C   UNL     1      -2.302  -0.100  -0.094  0.00  0.00    -0.079 C 
BRANCH   9  10
ATOM     10  C   UNL     1      -1.901  -0.465   1.336  0.00  0.00    -0.016 C 
BRANCH  10  12
ATOM     11  C   UNL     1      -0.518   1.600   1.588  0.00  0.00    +0.007 C 
ATOM     12  C   UNL     1      -0.497   0.071   1.625  0.00  0.00    -0.019 C 
ATOM     13  C   UNL     1      -0.046  -0.400   3.009  0.00  0.00    +0.007 C 
ENDBRANCH  10  12
ENDBRANCH   9  10
ENDBRANCH   2   9
ENDBRANCH   1   5
BRANCH   1  14
ATOM     14  C   UNL     1      -7.903  -2.308  -1.133  0.00  0.00    +0.052 A 
ATOM     15  C   UNL     1      -7.319  -3.288  -1.925  0.00  0.00    +0.025 A 
ATOM     16  C   UNL     1      -7.508  -4.622  -1.622  0.00  0.00    +0.002 A 
ATOM     17  C   UNL     1      -8.279  -4.982  -0.532  0.00  0.00    +0.000 A 
ATOM     18  C   UNL     1      -8.863  -4.009   0.259  0.00  0.00    +0.002 A 
ATOM     19  C   UNL     1      -8.672  -2.673  -0.035  0.00  0.00    +0.025 A 
ENDBRANCH   1  14
BRANCH   1  20
ATOM     20  S   UNL     1      -8.958  -0.068  -2.070  0.00  0.00    +0.075 S 
ATOM     21  O   UNL     1     -10.153  -0.784  -1.789  0.00  0.00    -0.150 OA
ATOM     22  O   UNL     1      -8.755   1.273  -1.647  0.00  0.00    -0.150 OA
BRANCH  20  23
ATOM     23  C   UNL     1      -8.766  -0.077  -3.822  0.00  0.00    +0.109 A 
ATOM     24  C   UNL     1      -8.014   0.905  -4.439  0.00  0.00    +0.031 A 
ATOM     25  C   UNL     1      -7.862   0.898  -5.813  0.00  0.00    +0.040 A 
ATOM     26  C   UNL     1      -8.464  -0.093  -6.571  0.00  0.00    +0.124 A 
ATOM     27  C   UNL     1      -9.217  -1.076  -5.951  0.00  0.00    +0.040 A 
ATOM     28  C   UNL     1      -9.363  -1.070  -4.577  0.00  0.00    +0.031 A 
ATOM     29  F   UNL     1      -8.317  -0.100  -7.913  0.00  0.00    -0.205 F 
ENDBRANCH  20  23
ENDBRANCH   1  20
TORSDOF 7
