REMARK  Name = ZINC59461468
REMARK  5 active torsions:
REMARK  status: ('A' for Active; 'I' for Inactive)
REMARK    1  A    between atoms: C_7  and  C_23
REMARK    2  A    between atoms: N_12  and  N_13
REMARK    3  A    between atoms: C_14  and  C_16
REMARK    4  A    between atoms: C_23  and  C_24
REMARK    5  A    between atoms: C_28  and  N_30
REMARK                            x       y       z     vdW  Elec       q    Type
REMARK                         _______ _______ _______ _____ _____    ______ ____
ROOT
ATOM      1  C   UNL     1      -0.017   1.379   0.010  0.00  0.00    +0.000 A 
ATOM      2  C   UNL     1       1.170   2.090   0.002  0.00  0.00    +0.001 A 
ATOM      3  C   UNL     1       2.377   1.423  -0.013  0.00  0.00    +0.010 A 
ATOM      4  C   UNL     1       2.404   0.025  -0.022  0.00  0.00    +0.009 A 
ATOM      5  C   UNL     1       1.205  -0.683  -0.014  0.00  0.00    -0.027 A 
ATOM      6  C   UNL     1       0.002  -0.004   0.002  0.00  0.00    +0.005 A 
ATOM      7  C   UNL     1       1.513  -2.160  -0.025  0.00  0.00    +0.097 C 
ATOM      8  C   UNL     1       3.018  -2.287  -0.040  0.00  0.00    +0.191 C 
ATOM      9  O   UNL     1       3.661  -3.316  -0.052  0.00  0.00    -0.290 OA
ATOM     10  C   UNL     1       3.546  -0.919  -0.038  0.00  0.00    +0.132 C 
ATOM     11  N   UNL     1       4.815  -0.587  -0.050  0.00  0.00    -0.176 NA
ENDROOT
BRANCH  11  12
ATOM     12  N   UNL     1       5.800  -1.584  -0.065  0.00  0.00    -0.202 N 
ATOM     13  C   UNL     1       7.104  -1.243  -0.076  0.00  0.00    +0.263 C 
ATOM     14  O   UNL     1       7.425  -0.071  -0.073  0.00  0.00    -0.268 OA
ATOM     15  H   UNL     1       5.543  -2.519  -0.067  0.00  0.00    +0.178 HD
BRANCH  13  16
ATOM     16  C   UNL     1       8.142  -2.294  -0.092  0.00  0.00    +0.041 A 
ATOM     17  C   UNL     1       7.775  -3.642  -0.101  0.00  0.00    +0.013 A 
ATOM     18  C   UNL     1       8.749  -4.619  -0.116  0.00  0.00    +0.004 A 
ATOM     19  C   UNL     1      10.087  -4.267  -0.122  0.00  0.00    +0.038 A 
ATOM     20  C   UNL     1      10.459  -2.932  -0.113  0.00  0.00    +0.124 A 
ATOM     21  C   UNL     1       9.493  -1.944  -0.104  0.00  0.00    +0.051 A 
ATOM     22  F   UNL     1      11.768  -2.597  -0.118  0.00  0.00    -0.205 F 
ENDBRANCH  13  16
ENDBRANCH  11  12
BRANCH   7  23
ATOM     23  C   UNL     1       0.943  -2.824   1.231  0.00  0.00    +0.051 C 
BRANCH  23  24
ATOM     24  C   UNL     1       1.148  -4.314   1.149  0.00  0.00    -0.044 A 
ATOM     25  C   UNL     1       0.184  -5.114   0.563  0.00  0.00    +0.004 A 
ATOM     26  C   UNL     1       0.373  -6.481   0.487  0.00  0.00    +0.002 A 
ATOM     27  C   UNL     1       1.526  -7.049   0.998  0.00  0.00    +0.033 A 
ATOM     28  C   UNL     1       2.489  -6.250   1.582  0.00  0.00    +0.126 A 
ATOM     29  C   UNL     1       2.303  -4.881   1.654  0.00  0.00    +0.036 A 
BRANCH  28  30
ATOM     30  N   UNL     1       3.723  -6.858   2.129  0.00  0.00    +0.056 N 
ATOM     31  O   UNL     1       3.888  -8.054   2.064  0.00  0.00    -0.126 OA
ATOM     32  O   UNL     1       4.566  -6.158   2.641  0.00  0.00    -0.126 OA
ENDBRANCH  28  30
ENDBRANCH  23  24
ENDBRANCH   7  23
TORSDOF 5
