REMARK  Name = ZINC09589885
REMARK  12 active torsions:
REMARK  status: ('A' for Active; 'I' for Inactive)
REMARK    1  A    between atoms: C_1  and  C_2
REMARK    2  A    between atoms: C_2  and  O_3
REMARK    3  A    between atoms: O_3  and  C_4
REMARK    4  A    between atoms: C_9  and  O_10
REMARK    5  A    between atoms: O_10  and  C_11
REMARK    6  A    between atoms: C_11  and  C_12
REMARK    7  A    between atoms: N_17  and  C_20
REMARK    8  A    between atoms: C_20  and  C_21
REMARK    9  A    between atoms: C_24  and  C_27
REMARK   10  A    between atoms: N_29  and  C_30
REMARK   11  A    between atoms: C_35  and  C_40
REMARK   12  A    between atoms: C_37  and  C_39
REMARK                            x       y       z     vdW  Elec       q    Type
REMARK                         _______ _______ _______ _____ _____    ______ ____
ROOT
ATOM      1  C   UNL     1       0.079   1.021   4.803  0.00  0.00    +0.163 A 
ATOM      2  C   UNL     1      -0.427   1.376   6.037  0.00  0.00    +0.064 A 
ATOM      3  C   UNL     1      -1.575   2.165   6.108  0.00  0.00    +0.067 A 
ATOM      4  C   UNL     1      -2.208   2.599   4.929  0.00  0.00    +0.059 A 
ATOM      5  C   UNL     1      -1.688   2.241   3.697  0.00  0.00    +0.076 A 
ATOM      6  C   UNL     1      -0.547   1.457   3.633  0.00  0.00    +0.164 A 
ATOM      7  N   UNL     1      -3.350   3.384   5.034  0.00  0.00    -0.307 N 
ATOM      8  H   UNL     1      -3.862   3.735   4.126  0.00  0.00    +0.170 HD
ATOM      9  C   UNL     1      -3.840   3.722   6.240  0.00  0.00    +0.330 A 
ATOM     10  O   UNL     1      -4.841   4.410   6.290  0.00  0.00    -0.246 OA
ATOM     11  N   UNL     1      -3.270   3.332   7.391  0.00  0.00    -0.260 N 
ATOM     12  C   UNL     1      -2.157   2.567   7.399  0.00  0.00    +0.264 A 
ATOM     13  O   UNL     1      -1.648   2.219   8.447  0.00  0.00    -0.267 OA
ENDROOT
BRANCH   1  14
ATOM     14  O   UNL     1       1.196   0.248   4.725  0.00  0.00    -0.489 OA
BRANCH  14  16
ATOM     15  C   UNL     1       3.023  -1.019   5.673  0.00  0.00    +0.048 C 
ATOM     16  C   UNL     1       1.787  -0.164   5.960  0.00  0.00    +0.226 C 
ENDBRANCH  14  16
ENDBRANCH   1  14
BRANCH   6  17
ATOM     17  O   UNL     1      -0.038   1.106   2.425  0.00  0.00    -0.489 OA
BRANCH  17  18
ATOM     18  C   UNL     1      -0.729   1.579   1.267  0.00  0.00    +0.226 C 
ATOM     19  C   UNL     1      -0.013   1.086   0.008  0.00  0.00    +0.048 C 
ENDBRANCH  17  18
ENDBRANCH   6  17
BRANCH  11  20
ATOM     20  C   UNL     1      -3.867   3.744   8.663  0.00  0.00    +0.133 C 
BRANCH  20  21
ATOM     21  C   UNL     1      -4.892   2.698   9.108  0.00  0.00    +0.009 C 
ATOM     22  C   UNL     1      -6.051   2.663   8.109  0.00  0.00    +0.006 C 
ATOM     23  C   UNL     1      -7.075   1.617   8.553  0.00  0.00    +0.013 C 
ATOM     24  C   UNL     1      -7.608   1.983   9.940  0.00  0.00    +0.075 C 
ATOM     25  C   UNL     1      -6.450   2.018  10.939  0.00  0.00    +0.013 C 
ATOM     26  C   UNL     1      -5.425   3.064  10.494  0.00  0.00    +0.006 C 
BRANCH  24  27
ATOM     27  C   UNL     1      -8.618   0.953  10.378  0.00  0.00    +0.216 C 
ATOM     28  O   UNL     1      -8.429   0.310  11.389  0.00  0.00    -0.276 OA
ATOM     29  N   UNL     1      -9.730   0.746   9.646  0.00  0.00    -0.312 N 
ATOM     30  H   UNL     1      -9.901   1.329   8.729  0.00  0.00    +0.149 HD
BRANCH  29  31
ATOM     31  C   UNL     1     -10.711  -0.255  10.072  0.00  0.00    +0.076 C 
ATOM     32  C   UNL     1     -10.292  -1.633   9.554  0.00  0.00    +0.022 C 
ATOM     33  C   UNL     1     -10.222  -1.604   8.026  0.00  0.00    +0.002 C 
ATOM     34  C   UNL     1     -11.597  -1.244   7.460  0.00  0.00    +0.003 C 
ATOM     35  C   UNL     1     -12.017   0.134   7.977  0.00  0.00    -0.009 C 
ATOM     36  C   UNL     1     -12.086   0.105   9.505  0.00  0.00    +0.009 C 
ATOM     37  C   UNL     1     -12.506   1.482  10.022  0.00  0.00    +0.009 C 
ATOM     38  C   UNL     1     -13.391   0.494   7.410  0.00  0.00    +0.008 C 
ENDBRANCH  29  31
ENDBRANCH  24  27
ENDBRANCH  20  21
ENDBRANCH  11  20
TORSDOF 8
