REMARK  Name = ZINC14041869
REMARK  10 active torsions:
REMARK  status: ('A' for Active; 'I' for Inactive)
REMARK    1  A    between atoms: C_1  and  C_2
REMARK    2  A    between atoms: C_5  and  C_8
REMARK    3  A    between atoms: N_10  and  N_11
REMARK    4  A    between atoms: N_11  and  C_12
REMARK    5  A    between atoms: C_12  and  N_14
REMARK    6  A    between atoms: C_15  and  C_17
REMARK    7  A    between atoms: C_20  and  O_23
REMARK    8  A    between atoms: O_23  and  C_24
REMARK    9  A    between atoms: C_24  and  C_25
REMARK   10  A    between atoms: C_25  and  C_26
REMARK                            x       y       z     vdW  Elec       q    Type
REMARK                         _______ _______ _______ _____ _____    ______ ____
ROOT
ATOM      1  N   UNL     1       1.143   1.901   0.001  0.00  0.00    -0.263 N 
ATOM      2  C   UNL     1      -0.014   1.211   0.009  0.00  0.00    +0.250 C 
ATOM      3  O   UNL     1       0.002  -0.004   0.002  0.00  0.00    -0.270 OA
ATOM      4  H   UNL     1       1.130   2.871   0.007  0.00  0.00    +0.157 HD
ENDROOT
BRANCH   2   5
ATOM      5  C   UNL     1      -1.302   1.931   0.019  0.00  0.00    +0.037 A 
ATOM      6  C   UNL     1      -1.323   3.329   0.032  0.00  0.00    +0.016 A 
ATOM      7  C   UNL     1      -2.527   3.997   0.035  0.00  0.00    +0.046 A 
ATOM      8  C   UNL     1      -3.720   3.284   0.037  0.00  0.00    +0.121 A 
ATOM      9  C   UNL     1      -3.703   1.894   0.030  0.00  0.00    +0.046 A 
ATOM     10  C   UNL     1      -2.504   1.218   0.021  0.00  0.00    +0.016 A 
BRANCH   8  11
ATOM     11  O   UNL     1      -4.904   3.947   0.046  0.00  0.00    -0.492 OA
BRANCH  11  12
ATOM     12  C   UNL     1      -4.849   5.375   0.053  0.00  0.00    +0.233 C 
BRANCH  12  13
ATOM     13  C   UNL     1      -6.271   5.940   0.062  0.00  0.00    +0.076 C 
BRANCH  13  14
ATOM     14  C   UNL     1      -6.212   7.446   0.069  0.00  0.00    -0.044 A 
ATOM     15  C   UNL     1      -6.186   8.131   1.270  0.00  0.00    +0.004 A 
ATOM     16  C   UNL     1      -6.127   9.512   1.277  0.00  0.00    +0.000 A 
ATOM     17  C   UNL     1      -6.105  10.209   0.083  0.00  0.00    +0.000 A 
ATOM     18  C   UNL     1      -6.138   9.524  -1.118  0.00  0.00    +0.000 A 
ATOM     19  C   UNL     1      -6.191   8.143  -1.124  0.00  0.00    +0.004 A 
ENDBRANCH  13  14
ENDBRANCH  12  13
ENDBRANCH  11  12
ENDBRANCH   8  11
ENDBRANCH   2   5
BRANCH   1  20
ATOM     20  C   UNL     1       2.320   1.243  -0.013  0.00  0.00    +0.153 C 
ATOM     21  S   UNL     1       2.343  -0.469  -0.023  0.00  0.00    -0.017 S 
BRANCH  20  22
ATOM     22  N   UNL     1       3.478   1.933  -0.021  0.00  0.00    -0.245 N 
ATOM     23  H   UNL     1       4.324   1.459  -0.031  0.00  0.00    +0.172 HD
BRANCH  22  26
ATOM     24  C   UNL     1       4.617   4.023  -0.020  0.00  0.00    +0.260 C 
ATOM     25  O   UNL     1       5.677   3.430  -0.034  0.00  0.00    -0.269 OA
ATOM     26  N   UNL     1       3.459   3.334  -0.013  0.00  0.00    -0.231 N 
ATOM     27  H   UNL     1       2.612   3.807  -0.002  0.00  0.00    +0.173 HD
BRANCH  24  32
ATOM     28  C   UNL     1       4.538   9.777   0.009  0.00  0.00    +0.044 C 
ATOM     29  C   UNL     1       4.559   8.271   0.002  0.00  0.00    -0.050 A 
ATOM     30  C   UNL     1       5.768   7.598  -0.013  0.00  0.00    +0.004 A 
ATOM     31  C   UNL     1       5.794   6.219  -0.020  0.00  0.00    +0.013 A 
ATOM     32  C   UNL     1       4.596   5.502  -0.012  0.00  0.00    +0.038 A 
ATOM     33  C   UNL     1       3.380   6.186  -0.003  0.00  0.00    +0.013 A 
ATOM     34  C   UNL     1       3.368   7.566   0.009  0.00  0.00    +0.004 A 
ENDBRANCH  24  32
ENDBRANCH  22  26
ENDBRANCH  20  22
ENDBRANCH   1  20
TORSDOF 9
