REMARK  Name = ZINC20407346
REMARK  8 active torsions:
REMARK  status: ('A' for Active; 'I' for Inactive)
REMARK    1  A    between atoms: C_1  and  C_2
REMARK    2  A    between atoms: C_5  and  C_7
REMARK    3  A    between atoms: N_9  and  C_10
REMARK    4  A    between atoms: C_13  and  C_16
REMARK    5  A    between atoms: C_16  and  C_28
REMARK    6  A    between atoms: N_17  and  N_18
REMARK    7  A    between atoms: N_18  and  S_19
REMARK    8  A    between atoms: S_19  and  C_22
REMARK                            x       y       z     vdW  Elec       q    Type
REMARK                         _______ _______ _______ _____ _____    ______ ____
ROOT
ATOM      1  C   UNL     1      -4.825   1.837  -0.059  0.00  0.00    +0.034 A 
ATOM      2  C   UNL     1      -5.061   0.467  -0.063  0.00  0.00    +0.024 A 
ATOM      3  C   UNL     1      -6.350  -0.012  -0.145  0.00  0.00    +0.011 A 
ATOM      4  C   UNL     1      -7.421   0.882  -0.236  0.00  0.00    -0.002 A 
ATOM      5  C   UNL     1      -7.179   2.258  -0.238  0.00  0.00    +0.011 A 
ATOM      6  C   UNL     1      -5.888   2.729  -0.150  0.00  0.00    +0.024 A 
ENDROOT
BRANCH   1   9
ATOM      7  C   UNL     1      -2.598   1.645   0.751  0.00  0.00    +0.284 C 
ATOM      8  O   UNL     1      -2.930   0.672   1.402  0.00  0.00    -0.266 OA
ATOM      9  N   UNL     1      -3.516   2.319   0.030  0.00  0.00    -0.279 N 
ATOM     10  H   UNL     1      -3.236   3.248  -0.489  0.00  0.00    +0.155 HD
BRANCH   7  15
ATOM     11  C   UNL     1       1.534   4.285  -0.264  0.00  0.00    +0.086 C 
ATOM     12  C   UNL     1       0.615   3.238   0.310  0.00  0.00    +0.103 A 
ATOM     13  C   UNL     1       0.982   2.239   1.143  0.00  0.00    +0.045 A 
ATOM     14  C   UNL     1      -0.173   1.497   1.433  0.00  0.00    +0.055 A 
ATOM     15  C   UNL     1      -1.200   2.085   0.751  0.00  0.00    +0.190 A 
ATOM     16  O   UNL     1      -0.701   3.144   0.079  0.00  0.00    -0.455 OA
ENDBRANCH   7  15
ENDBRANCH   1   9
BRANCH   4  17
ATOM     17  C   UNL     1      -8.802   0.374  -0.331  0.00  0.00    +0.065 C 
ATOM     18  N   UNL     1      -9.795   1.205  -0.416  0.00  0.00    -0.171 NA
ATOM     19  C   UNL     1      -9.060  -1.111  -0.329  0.00  0.00    +0.068 C 
BRANCH  18  20
ATOM     20  N   UNL     1     -11.107   0.722  -0.506  0.00  0.00    -0.136 N 
ATOM     21  H   UNL     1     -11.273  -0.234  -0.504  0.00  0.00    +0.197 HD
BRANCH  20  22
ATOM     22  S   UNL     1     -12.374   1.783  -0.614  0.00  0.00    +0.086 S 
ATOM     23  O   UNL     1     -13.540   1.001  -0.835  0.00  0.00    -0.149 OA
ATOM     24  O   UNL     1     -12.252   2.675   0.485  0.00  0.00    -0.149 OA
BRANCH  22  25
ATOM     25  C   UNL     1     -12.127   2.742  -2.072  0.00  0.00    +0.110 A 
ATOM     26  C   UNL     1     -11.416   3.925  -2.008  0.00  0.00    +0.029 A 
ATOM     27  C   UNL     1     -11.217   4.675  -3.152  0.00  0.00    +0.002 A 
ATOM     28  C   UNL     1     -11.740   4.247  -4.358  0.00  0.00    +0.000 A 
ATOM     29  C   UNL     1     -12.456   3.066  -4.421  0.00  0.00    +0.002 A 
ATOM     30  C   UNL     1     -12.649   2.313  -3.278  0.00  0.00    +0.029 A 
ENDBRANCH  22  25
ENDBRANCH  20  22
ENDBRANCH  18  20
ENDBRANCH   4  17
TORSDOF 6
