REMARK  Name = ZINC07652472
REMARK  8 active torsions:
REMARK  status: ('A' for Active; 'I' for Inactive)
REMARK    1  A    between atoms: C_1  and  C_2
REMARK    2  A    between atoms: C_2  and  C_3
REMARK    3  A    between atoms: C_4  and  C_26
REMARK    4  A    between atoms: C_6  and  C_8
REMARK    5  A    between atoms: N_10  and  N_11
REMARK    6  A    between atoms: C_12  and  C_14
REMARK    7  A    between atoms: C_14  and  O_15
REMARK    8  A    between atoms: O_15  and  C_16
REMARK                            x       y       z     vdW  Elec       q    Type
REMARK                         _______ _______ _______ _____ _____    ______ ____
ROOT
ATOM      1  N   UNL     1       5.977   1.520  -0.046  0.00  0.00    -0.231 N 
ATOM      2  C   UNL     1       4.736   0.993  -0.037  0.00  0.00    +0.267 C 
ATOM      3  O   UNL     1       4.588  -0.211  -0.042  0.00  0.00    -0.271 OA
ATOM      4  H   UNL     1       6.095   2.482  -0.042  0.00  0.00    +0.173 HD
ENDROOT
BRANCH   1   7
ATOM      5  C   UNL     1       8.336   1.203  -0.069  0.00  0.00    +0.267 C 
ATOM      6  O   UNL     1       8.484   2.411  -0.065  0.00  0.00    -0.268 OA
ATOM      7  N   UNL     1       7.096   0.677  -0.060  0.00  0.00    -0.230 N 
ATOM      8  H   UNL     1       6.978  -0.286  -0.064  0.00  0.00    +0.173 HD
BRANCH   5  12
ATOM      9  C   UNL     1      11.294  -1.659  -0.110  0.00  0.00    -0.007 A 
ATOM     10  C   UNL     1      11.753  -0.380  -0.108  0.00  0.00    -0.040 A 
ATOM     11  C   UNL     1      10.852   0.655  -0.096  0.00  0.00    +0.024 A 
ATOM     12  C   UNL     1       9.507   0.322  -0.085  0.00  0.00    +0.076 A 
ATOM     13  S   UNL     1       9.572  -1.461  -0.086  0.00  0.00    -0.088 S 
ATOM     14  C   UNL     1      13.234  -0.102  -0.121  0.00  0.00    +0.044 C 
BRANCH   9  16
ATOM     15  C   UNL     1      12.370  -3.379   1.316  0.00  0.00    +0.009 C 
ATOM     16  C   UNL     1      12.089  -2.939  -0.122  0.00  0.00    +0.039 C 
ENDBRANCH   9  16
ENDBRANCH   5  12
ENDBRANCH   1   7
BRANCH   2  17
ATOM     17  C   UNL     1       3.533   1.900  -0.021  0.00  0.00    +0.326 C 
BRANCH  17  18
ATOM     18  O   UNL     1       2.341   1.110  -0.014  0.00  0.00    -0.483 OA
BRANCH  18  19
ATOM     19  C   UNL     1       1.158   1.779   0.001  0.00  0.00    +0.122 A 
ATOM     20  C   UNL     1       1.156   3.177   0.007  0.00  0.00    +0.046 A 
ATOM     21  C   UNL     1      -0.012   3.874   0.022  0.00  0.00    +0.012 A 
ATOM     22  C   UNL     1      -1.236   3.183   0.030  0.00  0.00    -0.018 A 
ATOM     23  C   UNL     1      -2.461   3.871   0.045  0.00  0.00    +0.008 A 
ATOM     24  C   UNL     1      -3.628   3.171   0.054  0.00  0.00    +0.001 A 
ATOM     25  C   UNL     1      -3.628   1.777   0.047  0.00  0.00    +0.001 A 
ATOM     26  C   UNL     1      -2.461   1.076   0.032  0.00  0.00    +0.008 A 
ATOM     27  C   UNL     1      -1.236   1.766   0.018  0.00  0.00    -0.014 A 
ATOM     28  C   UNL     1      -0.013   1.076   0.008  0.00  0.00    +0.054 A 
ENDBRANCH  18  19
ENDBRANCH  17  18
ENDBRANCH   2  17
TORSDOF 6
