REMARK  Name = ZINC19721083
REMARK  3 active torsions:
REMARK  status: ('A' for Active; 'I' for Inactive)
REMARK    1  A    between atoms: C_1  and  C_2
REMARK    2  A    between atoms: C_4  and  N_12
REMARK    3  A    between atoms: N_15  and  C_18
REMARK                            x       y       z     vdW  Elec       q    Type
REMARK                         _______ _______ _______ _____ _____    ______ ____
ROOT
ATOM      1  N   UNL     1      -1.199  -0.698   0.010  0.00  0.00    -0.314 N 
ATOM      2  C   UNL     1      -1.284  -1.616  -1.135  0.00  0.00    +0.122 C 
ATOM      3  C   UNL     1      -2.585  -2.417  -1.046  0.00  0.00    +0.104 C 
ATOM      4  N   UNL     1      -3.727  -1.493  -1.030  0.00  0.00    -0.289 NA
ATOM      5  C   UNL     1      -3.642  -0.575   0.114  0.00  0.00    +0.104 C 
ATOM      6  C   UNL     1      -2.341   0.227   0.026  0.00  0.00    +0.122 C 
ENDROOT
BRANCH   4   7
ATOM      7  C   UNL     1      -4.999  -2.227  -1.022  0.00  0.00    +0.118 C 
ATOM      8  C   UNL     1      -5.087  -3.100   0.206  0.00  0.00    -0.018 A 
ATOM      9  C   UNL     1      -5.077  -2.806   1.553  0.00  0.00    +0.006 A 
ATOM     10  C   UNL     1      -5.175  -3.824   2.485  0.00  0.00    +0.000 A 
ATOM     11  C   UNL     1      -5.283  -5.138   2.068  0.00  0.00    +0.001 A 
ATOM     12  C   UNL     1      -5.294  -5.441   0.722  0.00  0.00    +0.009 A 
ATOM     13  C   UNL     1      -5.196  -4.420  -0.224  0.00  0.00    -0.013 A 
ATOM     14  C   UNL     1      -5.183  -4.459  -1.707  0.00  0.00    -0.013 A 
ATOM     15  C   UNL     1      -5.066  -3.163  -2.204  0.00  0.00    -0.018 A 
ATOM     16  C   UNL     1      -5.032  -2.941  -3.564  0.00  0.00    +0.006 A 
ATOM     17  C   UNL     1      -5.114  -4.007  -4.443  0.00  0.00    +0.000 A 
ATOM     18  C   UNL     1      -5.230  -5.297  -3.958  0.00  0.00    +0.001 A 
ATOM     19  C   UNL     1      -5.265  -5.529  -2.599  0.00  0.00    +0.009 A 
ENDBRANCH   4   7
BRANCH   1  23
ATOM     20  C   UNL     1       3.702  -0.802  -0.038  0.00  0.00    +0.044 C 
ATOM     21  C   UNL     1       2.394  -0.053  -0.021  0.00  0.00    -0.038 A 
ATOM     22  C   UNL     1       1.207  -0.721  -0.014  0.00  0.00    +0.045 A 
ATOM     23  C   UNL     1       0.002  -0.004   0.002  0.00  0.00    +0.099 A 
ATOM     24  N   UNL     1      -0.016   1.313   0.009  0.00  0.00    -0.343 N 
ATOM     25  C   UNL     1       1.118   2.022   0.002  0.00  0.00    +0.048 A 
ATOM     26  C   UNL     1       2.368   1.356  -0.013  0.00  0.00    +0.001 A 
ATOM     27  C   UNL     1       3.554   2.107  -0.021  0.00  0.00    +0.010 A 
ATOM     28  C   UNL     1       3.490   3.467  -0.013  0.00  0.00    +0.001 A 
ATOM     29  C   UNL     1       2.263   4.125   0.003  0.00  0.00    +0.002 A 
ATOM     30  C   UNL     1       1.093   3.428   0.010  0.00  0.00    +0.026 A 
ATOM     31  H   UNL     1      -0.976   1.850   0.021  0.00  0.00    +0.167 HD
ENDBRANCH   1  23
TORSDOF 2
