REMARK  Name = ZINC38743016
REMARK  4 active torsions:
REMARK  status: ('A' for Active; 'I' for Inactive)
REMARK    1  A    between atoms: C_4  and  C_7
REMARK    2  A    between atoms: C_9  and  C_13
REMARK    3  A    between atoms: C_21  and  C_23
REMARK    4  A    between atoms: C_23  and  C_24
REMARK                            x       y       z     vdW  Elec       q    Type
REMARK                         _______ _______ _______ _____ _____    ______ ____
ROOT
ATOM      1  C   UNL     1       5.763  -2.987  -1.332  0.00  0.00    +0.206 C 
ATOM      2  N   UNL     1       5.558  -2.129  -2.524  0.00  0.00    -0.231 NA
ATOM      3  N   UNL     1       6.863  -2.033  -3.200  0.00  0.00    -0.224 NA
ATOM      4  C   UNL     1       7.557  -3.257  -2.754  0.00  0.00    +0.240 C 
ATOM      5  N   UNL     1       7.215  -3.273  -1.293  0.00  0.00    -0.206 N 
ATOM      6  N   UNL     1       8.308  -3.442  -0.471  0.00  0.00    -0.178 NA
ATOM      7  C   UNL     1       9.528  -3.320  -0.878  0.00  0.00    +0.099 C 
ATOM      8  S   UNL     1       9.369  -3.013  -2.665  0.00  0.00    -0.067 S 
ATOM      9  H   UNL     1       5.220  -1.216  -2.258  0.00  0.00    +0.143 HD
ATOM     10  H   UNL     1       7.362  -1.207  -2.907  0.00  0.00    +0.144 HD
ENDROOT
BRANCH   1  13
ATOM     11  C   UNL     1       3.699  -0.689  -0.037  0.00  0.00    +0.091 C 
ATOM     12  C   UNL     1       3.832  -2.029  -0.051  0.00  0.00    +0.034 C 
ATOM     13  C   UNL     1       5.335  -2.245  -0.065  0.00  0.00    +0.190 C 
ATOM     14  N   UNL     1       5.871  -0.874  -0.056  0.00  0.00    -0.176 NA
ATOM     15  N   UNL     1       4.919  -0.090  -0.047  0.00  0.00    -0.154 NA
BRANCH  11  19
ATOM     16  C   UNL     1      -0.017   1.379   0.010  0.00  0.00    +0.000 A 
ATOM     17  C   UNL     1       1.169   2.092   0.002  0.00  0.00    +0.001 A 
ATOM     18  C   UNL     1       2.377   1.426  -0.013  0.00  0.00    +0.010 A 
ATOM     19  C   UNL     1       2.402   0.033  -0.021  0.00  0.00    +0.002 A 
ATOM     20  C   UNL     1       1.205  -0.680  -0.013  0.00  0.00    +0.010 A 
ATOM     21  C   UNL     1       0.002  -0.004   0.002  0.00  0.00    +0.001 A 
ENDBRANCH  11  19
ENDBRANCH   1  13
BRANCH   7  22
ATOM     22  C   UNL     1      10.792  -3.418  -0.065  0.00  0.00    +0.100 C 
BRANCH  22  23
ATOM     23  C   UNL     1      10.443  -3.695   1.375  0.00  0.00    -0.033 A 
ATOM     24  C   UNL     1      10.333  -2.668   2.262  0.00  0.00    +0.004 A 
ATOM     25  C   UNL     1      10.011  -2.905   3.597  0.00  0.00    +0.001 A 
ATOM     26  C   UNL     1       9.798  -4.169   4.053  0.00  0.00    +0.008 A 
ATOM     27  C   UNL     1       9.903  -5.255   3.167  0.00  0.00    -0.018 A 
ATOM     28  C   UNL     1      10.224  -5.014   1.808  0.00  0.00    -0.014 A 
ATOM     29  C   UNL     1      10.323  -6.099   0.920  0.00  0.00    +0.009 A 
ATOM     30  C   UNL     1      10.104  -7.363   1.375  0.00  0.00    +0.001 A 
ATOM     31  C   UNL     1       9.782  -7.599   2.711  0.00  0.00    +0.001 A 
ATOM     32  C   UNL     1       9.691  -6.574   3.601  0.00  0.00    +0.008 A 
ENDBRANCH  22  23
ENDBRANCH   7  22
TORSDOF 4
