REMARK  Name = ZINC12704407
REMARK  7 active torsions:
REMARK  status: ('A' for Active; 'I' for Inactive)
REMARK    1  A    between atoms: C_1  and  C_2
REMARK    2  A    between atoms: C_7  and  C_15
REMARK    3  A    between atoms: C_13  and  C_14
REMARK    4  A    between atoms: C_15  and  N_16
REMARK    5  A    between atoms: N_16  and  C_17
REMARK    6  A    between atoms: C_17  and  C_18
REMARK    7  A    between atoms: N_27  and  C_28
REMARK                            x       y       z     vdW  Elec       q    Type
REMARK                         _______ _______ _______ _____ _____    ______ ____
ROOT
ATOM      1  N   UNL     1       0.257   1.387   0.178  0.00  0.00    -0.277 N 
ATOM      2  C   UNL     1       1.369   2.022  -0.243  0.00  0.00    +0.303 C 
ATOM      3  O   UNL     1       1.387   3.235  -0.312  0.00  0.00    -0.253 OA
ATOM      4  N   UNL     1       2.461   1.311  -0.587  0.00  0.00    -0.296 N 
ATOM      5  H   UNL     1       2.425   0.341  -0.598  0.00  0.00    +0.151 HD
ENDROOT
BRANCH   4   6
ATOM      6  C   UNL     1       3.702   2.002  -0.943  0.00  0.00    +0.074 C 
ATOM      7  C   UNL     1       3.666   2.384  -2.424  0.00  0.00    +0.022 C 
ATOM      8  C   UNL     1       4.963   3.106  -2.796  0.00  0.00    +0.002 C 
ATOM      9  C   UNL     1       6.153   2.181  -2.538  0.00  0.00    +0.000 C 
ATOM     10  C   UNL     1       6.190   1.798  -1.057  0.00  0.00    +0.002 C 
ATOM     11  C   UNL     1       4.893   1.076  -0.685  0.00  0.00    +0.022 C 
ENDBRANCH   4   6
BRANCH   1  12
ATOM     12  C   UNL     1      -0.954   2.155   0.483  0.00  0.00    +0.150 C 
BRANCH  12  19
ATOM     13  C   UNL     1      -0.199   5.703   7.587  0.00  0.00    +0.044 C 
ATOM     14  C   UNL     1      -0.256   5.231   6.157  0.00  0.00    -0.046 A 
ATOM     15  C   UNL     1       0.163   6.076   5.138  0.00  0.00    +0.004 A 
ATOM     16  C   UNL     1       0.119   5.668   3.834  0.00  0.00    +0.010 A 
ATOM     17  C   UNL     1      -0.352   4.388   3.524  0.00  0.00    -0.001 A 
ATOM     18  C   UNL     1      -0.408   3.917   2.139  0.00  0.00    +0.020 A 
ATOM     19  C   UNL     1      -0.879   2.669   1.898  0.00  0.00    +0.035 A 
ATOM     20  C   UNL     1      -1.295   1.847   2.967  0.00  0.00    +0.254 A 
ATOM     21  O   UNL     1      -1.711   0.727   2.729  0.00  0.00    -0.268 OA
ATOM     22  N   UNL     1      -1.243   2.269   4.243  0.00  0.00    -0.322 N 
ATOM     23  H   UNL     1      -1.537   1.679   4.954  0.00  0.00    +0.169 HD
ATOM     24  C   UNL     1      -0.778   3.529   4.554  0.00  0.00    +0.052 A 
ATOM     25  C   UNL     1      -0.725   3.967   5.874  0.00  0.00    -0.024 A 
ATOM     26  C   UNL     1      -1.178   3.061   6.990  0.00  0.00    +0.046 C 
ENDBRANCH  12  19
ENDBRANCH   1  12
BRANCH   1  27
ATOM     27  C   UNL     1       0.256  -0.070   0.325  0.00  0.00    +0.146 C 
BRANCH  27  28
ATOM     28  C   UNL     1      -0.601  -0.683  -0.753  0.00  0.00    -0.012 A 
ATOM     29  C   UNL     1      -1.857  -1.171  -0.445  0.00  0.00    +0.006 A 
ATOM     30  C   UNL     1      -2.644  -1.730  -1.434  0.00  0.00    +0.000 A 
ATOM     31  C   UNL     1      -2.172  -1.809  -2.731  0.00  0.00    +0.001 A 
ATOM     32  C   UNL     1      -0.914  -1.327  -3.040  0.00  0.00    +0.020 A 
ATOM     33  C   UNL     1      -0.128  -0.763  -2.051  0.00  0.00    +0.046 A 
ATOM     34 CL   UNL     1       1.452  -0.157  -2.438  0.00  0.00    -0.083 Cl
ENDBRANCH  27  28
ENDBRANCH   1  27
TORSDOF 5
