REMARK  Name = ZINC19874405
REMARK  4 active torsions:
REMARK  status: ('A' for Active; 'I' for Inactive)
REMARK    1  A    between atoms: C_4  and  C_7
REMARK    2  A    between atoms: C_7  and  C_8
REMARK    3  A    between atoms: C_8  and  N_9
REMARK    4  A    between atoms: N_19  and  C_22
REMARK                            x       y       z     vdW  Elec       q    Type
REMARK                         _______ _______ _______ _____ _____    ______ ____
ROOT
ATOM      1  N   UNL     1      -1.910   0.785  -1.377  0.00  0.00    -0.309 N 
ATOM      2  C   UNL     1      -0.751   1.459  -1.054  0.00  0.00    +0.111 A 
ATOM      3  C   UNL     1      -0.449   2.609  -1.718  0.00  0.00    +0.069 A 
ATOM      4  C   UNL     1      -1.329   3.083  -2.707  0.00  0.00    +0.258 A 
ATOM      5  O   UNL     1      -1.076   4.112  -3.309  0.00  0.00    -0.267 OA
ATOM      6  N   UNL     1      -2.453   2.396  -2.986  0.00  0.00    -0.302 N 
ATOM      7  H   UNL     1      -3.147   2.765  -3.756  0.00  0.00    +0.171 HD
ATOM      8  C   UNL     1      -2.735   1.257  -2.327  0.00  0.00    +0.162 A 
ATOM      9  S   UNL     1      -4.167   0.398  -2.703  0.00  0.00    -0.013 S 
ATOM     10  C   UNL     1       0.806   3.388  -1.422  0.00  0.00    +0.130 C 
ATOM     11  N   UNL     1       1.382   2.926  -0.151  0.00  0.00    -0.280 NA
ATOM     12  C   UNL     1       1.423   1.454  -0.136  0.00  0.00    +0.191 C 
ATOM     13  N   UNL     1       0.051   0.943  -0.073  0.00  0.00    -0.317 N 
ATOM     14  H   UNL     1      -0.232   0.222   0.708  0.00  0.00    +0.149 HD
ENDROOT
BRANCH  11  15
ATOM     15  C   UNL     1       2.721   3.492   0.058  0.00  0.00    +0.058 C 
ATOM     16  C   UNL     1       2.655   5.016  -0.062  0.00  0.00    +0.019 C 
ATOM     17  C   UNL     1       4.049   5.606   0.155  0.00  0.00    +0.002 C 
ATOM     18  C   UNL     1       5.007   5.052  -0.902  0.00  0.00    +0.000 C 
ATOM     19  C   UNL     1       5.074   3.529  -0.782  0.00  0.00    +0.002 C 
ATOM     20  C   UNL     1       3.679   2.939  -0.999  0.00  0.00    +0.019 C 
ENDBRANCH  11  15
BRANCH   1  21
ATOM     21  C   UNL     1      -2.244  -0.459  -0.679  0.00  0.00    +0.130 C 
BRANCH  21  22
ATOM     22  C   UNL     1      -1.687  -1.649  -1.464  0.00  0.00    +0.057 C 
BRANCH  22  26
ATOM     23  C   UNL     1      -2.661  -5.277   0.571  0.00  0.00    +0.000 A 
ATOM     24  C   UNL     1      -3.527  -4.762  -0.376  0.00  0.00    +0.000 A 
ATOM     25  C   UNL     1      -3.212  -3.587  -1.034  0.00  0.00    +0.004 A 
ATOM     26  C   UNL     1      -2.031  -2.929  -0.746  0.00  0.00    -0.046 A 
ATOM     27  C   UNL     1      -1.163  -3.447   0.197  0.00  0.00    +0.004 A 
ATOM     28  C   UNL     1      -1.480  -4.618   0.859  0.00  0.00    +0.000 A 
ENDBRANCH  22  26
ENDBRANCH  21  22
ENDBRANCH   1  21
TORSDOF 4
