REMARK  Name = ZINC39596457
REMARK  8 active torsions:
REMARK  status: ('A' for Active; 'I' for Inactive)
REMARK    1  A    between atoms: C_1  and  C_2
REMARK    2  A    between atoms: C_2  and  C_4
REMARK    3  A    between atoms: C_2  and  O_33
REMARK    4  A    between atoms: C_4  and  N_5
REMARK    5  A    between atoms: C_6  and  C_8
REMARK    6  A    between atoms: C_19  and  C_21
REMARK    7  A    between atoms: C_24  and  C_26
REMARK    8  A    between atoms: O_33  and  C_34
REMARK                            x       y       z     vdW  Elec       q    Type
REMARK                         _______ _______ _______ _____ _____    ______ ____
ROOT
ATOM      1  C   UNL     1      -2.635  -3.756   0.744  0.00  0.00    +0.100 C 
ATOM      2  C   UNL     1      -2.044  -4.104   2.129  0.00  0.00    +0.121 C 
ATOM      3  N   UNL     1      -3.206  -4.087   3.047  0.00  0.00    -0.294 N 
ATOM      4  C   UNL     1      -4.304  -4.704   2.265  0.00  0.00    +0.115 C 
ATOM      5  C   UNL     1      -4.117  -4.155   0.837  0.00  0.00    -0.004 C 
ATOM      6  C   UNL     1      -4.439  -5.236  -0.191  0.00  0.00    -0.010 C 
ATOM      7  C   UNL     1      -5.931  -5.574  -0.120  0.00  0.00    -0.082 C 
ATOM      8  N   UNL     1      -6.721  -4.366  -0.387  0.00  0.00    +0.379 N 
ATOM      9  C   UNL     1      -6.476  -3.366   0.659  0.00  0.00    -0.082 C 
ATOM     10  C   UNL     1      -5.007  -2.934   0.621  0.00  0.00    -0.010 C 
ATOM     11  C   UNL     1      -3.255  -3.616   4.310  0.00  0.00    +0.282 C 
ATOM     12  O   UNL     1      -4.268  -3.752   4.971  0.00  0.00    -0.267 OA
ATOM     13  H   UNL     1      -6.458  -3.985  -1.283  0.00  0.00    -0.086 HD
ATOM     14  H   UNL     1      -7.702  -4.604  -0.400  0.00  0.00    -0.086 HD
ENDROOT
BRANCH  11  15
ATOM     15  C   UNL     1      -2.089  -2.943   4.886  0.00  0.00    +0.190 A 
ATOM     16  C   UNL     1      -1.967  -2.508   6.187  0.00  0.00    +0.055 A 
ATOM     17  C   UNL     1      -0.700  -1.926   6.301  0.00  0.00    +0.050 A 
ATOM     18  C   UNL     1      -0.101  -2.025   5.078  0.00  0.00    +0.136 A 
ATOM     19  O   UNL     1      -0.944  -2.644   4.235  0.00  0.00    -0.450 OA
BRANCH  18  20
ATOM     20  C   UNL     1       1.252  -1.538   4.740  0.00  0.00    +0.017 A 
ATOM     21  C   UNL     1       2.078  -1.015   5.737  0.00  0.00    +0.014 A 
ATOM     22  C   UNL     1       3.340  -0.562   5.416  0.00  0.00    +0.039 A 
ATOM     23  C   UNL     1       3.789  -0.626   4.106  0.00  0.00    +0.123 A 
ATOM     24  C   UNL     1       2.973  -1.145   3.112  0.00  0.00    +0.039 A 
ATOM     25  C   UNL     1       1.712  -1.605   3.423  0.00  0.00    +0.014 A 
ATOM     26  F   UNL     1       5.027  -0.181   3.797  0.00  0.00    -0.205 F 
ENDBRANCH  18  20
ENDBRANCH  11  15
BRANCH   1  28
ATOM     27  N   UNL     1      -2.552  -1.819  -0.792  0.00  0.00    -0.312 N 
ATOM     28  C   UNL     1      -2.505  -2.279   0.474  0.00  0.00    +0.218 C 
ATOM     29  O   UNL     1      -2.357  -1.505   1.396  0.00  0.00    -0.275 OA
ATOM     30  H   UNL     1      -2.596  -2.443  -1.533  0.00  0.00    +0.149 HD
BRANCH  27  31
ATOM     31  C   UNL     1      -2.537  -0.377  -1.048  0.00  0.00    +0.148 C 
BRANCH  31  33
ATOM     32  C   UNL     1      -2.834   1.382  -2.797  0.00  0.00    +0.053 C 
ATOM     33  C   UNL     1      -2.723  -0.123  -2.545  0.00  0.00    +0.187 C 
BRANCH  33  34
ATOM     34  O   UNL     1      -1.601  -0.644  -3.260  0.00  0.00    -0.488 OA
BRANCH  34  35
ATOM     35  C   UNL     1      -1.803  -0.984  -4.561  0.00  0.00    +0.121 A 
ATOM     36  C   UNL     1      -3.018  -0.708  -5.171  0.00  0.00    +0.048 A 
ATOM     37  C   UNL     1      -3.221  -1.054  -6.493  0.00  0.00    +0.042 A 
ATOM     38  C   UNL     1      -2.212  -1.676  -7.209  0.00  0.00    +0.124 A 
ATOM     39  C   UNL     1      -0.999  -1.952  -6.602  0.00  0.00    +0.042 A 
ATOM     40  C   UNL     1      -0.791  -1.601  -5.282  0.00  0.00    +0.048 A 
ATOM     41  F   UNL     1      -2.412  -2.014  -8.502  0.00  0.00    -0.205 F 
ENDBRANCH  34  35
ENDBRANCH  33  34
ENDBRANCH  31  33
ENDBRANCH  27  31
ENDBRANCH   1  28
TORSDOF 7
