REMARK  Name = ZINC66981535
REMARK  10 active torsions:
REMARK  status: ('A' for Active; 'I' for Inactive)
REMARK    1  A    between atoms: C_1  and  C_2
REMARK    2  A    between atoms: C_2  and  N_3
REMARK    3  A    between atoms: N_3  and  C_4
REMARK    4  A    between atoms: N_3  and  C_22
REMARK    5  A    between atoms: C_4  and  C_5
REMARK    6  A    between atoms: C_5  and  N_6
REMARK    7  A    between atoms: N_9  and  C_10
REMARK    8  A    between atoms: C_12  and  N_18
REMARK    9  A    between atoms: C_19  and  C_21
REMARK   10  A    between atoms: C_27  and  C_28
REMARK                            x       y       z     vdW  Elec       q    Type
REMARK                         _______ _______ _______ _____ _____    ______ ____
ROOT
ATOM      1  N   UNL     1      -1.055  -3.384  -2.739  0.00  0.00    -0.298 N 
ATOM      2  C   UNL     1      -0.174  -4.281  -3.223  0.00  0.00    +0.304 C 
ATOM      3  O   UNL     1       0.696  -4.730  -2.501  0.00  0.00    -0.253 OA
ATOM      4  N   UNL     1      -0.257  -4.682  -4.507  0.00  0.00    -0.267 N 
ATOM      5  H   UNL     1      -1.749  -3.026  -3.315  0.00  0.00    +0.150 HD
ATOM      6  H   UNL     1      -0.980  -4.362  -5.069  0.00  0.00    +0.156 HD
ENDROOT
BRANCH   4   7
ATOM      7  C   UNL     1       0.702  -5.561  -5.030  0.00  0.00    +0.072 A 
ATOM      8  C   UNL     1       1.290  -6.514  -4.212  0.00  0.00    +0.052 A 
ATOM      9  C   UNL     1       2.238  -7.383  -4.732  0.00  0.00    +0.071 A 
ATOM     10  C   UNL     1       2.597  -7.297  -6.072  0.00  0.00    +0.147 A 
ATOM     11  C   UNL     1       2.010  -6.346  -6.887  0.00  0.00    +0.080 A 
ATOM     12  C   UNL     1       1.060  -5.482  -6.371  0.00  0.00    +0.147 A 
ATOM     13  F   UNL     1       0.483  -4.558  -7.170  0.00  0.00    -0.203 F 
ATOM     14  F   UNL     1       3.520  -8.143  -6.580  0.00  0.00    -0.203 F 
BRANCH   9  15
ATOM     15  N   UNL     1       2.834  -8.346  -3.907  0.00  0.00    -0.283 N 
ATOM     16  C   UNL     1       2.161  -8.835  -2.847  0.00  0.00    +0.214 C 
ATOM     17  O   UNL     1       0.998  -8.536  -2.676  0.00  0.00    -0.276 OA
ATOM     18  C   UNL     1       2.852  -9.754  -1.873  0.00  0.00    +0.109 C 
ATOM     19  H   UNL     1       3.732  -8.660  -4.098  0.00  0.00    +0.155 HD
ENDBRANCH   9  15
ENDBRANCH   4   7
BRANCH   1  20
ATOM     20  C   UNL     1      -0.965  -2.949  -1.343  0.00  0.00    +0.124 C 
BRANCH  20  21
ATOM     21  C   UNL     1      -2.074  -1.935  -1.052  0.00  0.00    +0.124 C 
BRANCH  21  22
ATOM     22  N   UNL     1      -1.911  -1.409   0.305  0.00  0.00    -0.328 N 
BRANCH  22  23
ATOM     23  C   UNL     1      -2.613  -1.984   1.367  0.00  0.00    +0.033 A 
ATOM     24  C   UNL     1      -3.919  -1.591   1.632  0.00  0.00    +0.023 A 
ATOM     25  C   UNL     1      -4.611  -2.163   2.682  0.00  0.00    +0.002 A 
ATOM     26  C   UNL     1      -4.005  -3.125   3.469  0.00  0.00    +0.000 A 
ATOM     27  C   UNL     1      -2.705  -3.518   3.208  0.00  0.00    +0.005 A 
ATOM     28  C   UNL     1      -2.010  -2.955   2.156  0.00  0.00    -0.029 A 
ATOM     29  C   UNL     1      -0.595  -3.388   1.868  0.00  0.00    +0.045 C 
ENDBRANCH  22  23
BRANCH  22  31
ATOM     30  C   UNL     1      -1.790   1.032   0.409  0.00  0.00    +0.024 C 
ATOM     31  C   UNL     1      -1.012  -0.278   0.549  0.00  0.00    +0.102 C 
ENDBRANCH  22  31
ENDBRANCH  21  22
ENDBRANCH  20  21
ENDBRANCH   1  20
TORSDOF 7
