REMARK  Name = ZINC21239631
REMARK  11 active torsions:
REMARK  status: ('A' for Active; 'I' for Inactive)
REMARK    1  A    between atoms: C_1  and  C_2
REMARK    2  A    between atoms: C_2  and  C_3
REMARK    3  A    between atoms: C_3  and  O_4
REMARK    4  A    between atoms: O_4  and  C_5
REMARK    5  A    between atoms: C_8  and  C_11
REMARK    6  A    between atoms: C_16  and  C_26
REMARK    7  A    between atoms: C_28  and  O_35
REMARK    8  A    between atoms: C_29  and  O_34
REMARK    9  A    between atoms: C_30  and  O_32
REMARK   10  A    between atoms: O_32  and  C_33
REMARK   11  A    between atoms: O_35  and  C_36
REMARK                            x       y       z     vdW  Elec       q    Type
REMARK                         _______ _______ _______ _____ _____    ______ ____
ROOT
ATOM      1  C   UNL     1      -4.529   5.064   2.681  0.00  0.00    +0.032 C 
ATOM      2  C   UNL     1      -4.294   4.675   1.223  0.00  0.00    +0.059 C 
ATOM      3  C   UNL     1      -2.813   4.761   0.892  0.00  0.00    +0.017 C 
ATOM      4  C   UNL     1      -2.030   5.666   1.503  0.00  0.00    +0.036 C 
ATOM      5  C   UNL     1      -0.551   5.861   1.267  0.00  0.00    +0.136 C 
ATOM      6  N   UNL     1      -0.030   5.162   0.112  0.00  0.00    -0.331 N 
ATOM      7  C   UNL     1      -0.026   3.770   0.058  0.00  0.00    +0.049 A 
ATOM      8  C   UNL     1       1.157   3.050   0.069  0.00  0.00    +0.025 A 
ATOM      9  C   UNL     1       1.113   1.667   0.080  0.00  0.00    +0.002 A 
ATOM     10  C   UNL     1      -0.102   1.006   0.096  0.00  0.00    +0.002 A 
ATOM     11  C   UNL     1      -1.287   1.722   0.075  0.00  0.00    +0.025 A 
ATOM     12  C   UNL     1      -1.243   3.104   0.043  0.00  0.00    +0.052 A 
ATOM     13  N   UNL     1      -2.391   3.882  -0.052  0.00  0.00    -0.316 N 
ATOM     14  C   UNL     1      -2.575   6.545   2.468  0.00  0.00    +0.163 C 
ATOM     15  O   UNL     1      -1.848   7.368   2.990  0.00  0.00    -0.292 OA
ATOM     16  C   UNL     1      -4.019   6.498   2.869  0.00  0.00    +0.088 C 
ATOM     17  H   UNL     1       0.370   5.731  -0.741  0.00  0.00    +0.147 HD
ATOM     18  H   UNL     1      -2.972   3.745  -0.976  0.00  0.00    +0.152 HD
ENDROOT
BRANCH   1  22
ATOM     19  C   UNL     1      -8.703   4.879   3.576  0.00  0.00    +0.121 A 
ATOM     20  C   UNL     1      -7.803   4.113   4.301  0.00  0.00    +0.046 A 
ATOM     21  C   UNL     1      -6.454   4.174   4.010  0.00  0.00    +0.007 A 
ATOM     22  C   UNL     1      -6.001   4.999   2.997  0.00  0.00    -0.043 A 
ATOM     23  C   UNL     1      -6.896   5.768   2.276  0.00  0.00    +0.007 A 
ATOM     24  C   UNL     1      -8.246   5.706   2.560  0.00  0.00    +0.046 A 
BRANCH  19  25
ATOM     25  O   UNL     1     -10.031   4.820   3.860  0.00  0.00    -0.492 OA
BRANCH  25  26
ATOM     26  C   UNL     1     -10.900   5.637   3.072  0.00  0.00    +0.229 C 
BRANCH  26  28
ATOM     27  C   UNL     1     -13.275   6.313   2.692  0.00  0.00    +0.007 C 
ATOM     28  C   UNL     1     -12.345   5.438   3.535  0.00  0.00    +0.038 C 
ENDBRANCH  26  28
ENDBRANCH  25  26
ENDBRANCH  19  25
ENDBRANCH   1  22
BRANCH   5  29
ATOM     29  C   UNL     1       0.194   5.388   2.488  0.00  0.00    -0.016 A 
ATOM     30  C   UNL     1       0.112   4.063   2.875  0.00  0.00    +0.055 A 
ATOM     31  C   UNL     1       0.801   3.622   3.995  0.00  0.00    +0.165 A 
ATOM     32  C   UNL     1       1.566   4.516   4.734  0.00  0.00    +0.201 A 
ATOM     33  C   UNL     1       1.642   5.848   4.345  0.00  0.00    +0.165 A 
ATOM     34  C   UNL     1       0.954   6.280   3.221  0.00  0.00    +0.055 A 
BRANCH  33  35
ATOM     35  O   UNL     1       2.389   6.727   5.065  0.00  0.00    -0.491 OA
ATOM     36  C   UNL     1       2.421   8.080   4.607  0.00  0.00    +0.277 C 
ENDBRANCH  33  35
BRANCH  32  37
ATOM     37  O   UNL     1       2.240   4.088   5.836  0.00  0.00    -0.501 OA
ATOM     38  H   UNL     1       2.846   4.797   6.420  0.00  0.00    +0.292 HD
ENDBRANCH  32  37
BRANCH  31  39
ATOM     39  O   UNL     1       0.723   2.318   4.372  0.00  0.00    -0.491 OA
ATOM     40  C   UNL     1      -0.009   1.438   3.517  0.00  0.00    +0.277 C 
ENDBRANCH  31  39
ENDBRANCH   5  29
TORSDOF 8
