REMARK  Name = ZINC02597498
REMARK  6 active torsions:
REMARK  status: ('A' for Active; 'I' for Inactive)
REMARK    1  A    between atoms: C_1  and  C_2
REMARK    2  A    between atoms: C_5  and  N_8
REMARK    3  A    between atoms: C_11  and  C_18
REMARK    4  A    between atoms: C_13  and  C_16
REMARK    5  A    between atoms: C_14  and  N_15
REMARK    6  A    between atoms: C_22  and  N_24
REMARK                            x       y       z     vdW  Elec       q    Type
REMARK                         _______ _______ _______ _____ _____    ______ ____
ROOT
ATOM      1  N   UNL     1      -2.774   6.111   0.239  0.00  0.00    -0.260 N 
ATOM      2  C   UNL     1      -2.059   6.708   1.243  0.00  0.00    +0.024 C 
ATOM      3  C   UNL     1      -0.722   6.544   1.327  0.00  0.00    +0.025 C 
ATOM      4  C   UNL     1       0.018   5.688   0.330  0.00  0.00    +0.097 C 
ATOM      5  C   UNL     1      -0.803   5.463  -0.905  0.00  0.00    +0.077 C 
ATOM      6  C   UNL     1      -2.144   5.676  -0.905  0.00  0.00    +0.107 C 
ATOM      7  C   UNL     1       0.023   7.167   2.344  0.00  0.00    +0.162 C 
ATOM      8  O   UNL     1       1.224   6.993   2.395  0.00  0.00    -0.292 OA
ATOM      9  C   UNL     1      -0.640   8.045   3.370  0.00  0.00    +0.080 C 
ATOM     10  C   UNL     1      -1.895   8.672   2.755  0.00  0.00    +0.014 C 
ATOM     11  C   UNL     1      -2.803   7.547   2.252  0.00  0.00    +0.052 C 
ENDROOT
BRANCH   1  16
ATOM     12  C   UNL     1      -8.378   5.427   0.800  0.00  0.00    +0.044 C 
ATOM     13  C   UNL     1      -6.890   5.608   0.651  0.00  0.00    -0.050 A 
ATOM     14  C   UNL     1      -6.025   4.647   1.141  0.00  0.00    +0.005 A 
ATOM     15  C   UNL     1      -4.660   4.811   1.006  0.00  0.00    +0.024 A 
ATOM     16  C   UNL     1      -4.157   5.942   0.377  0.00  0.00    +0.040 A 
ATOM     17  C   UNL     1      -5.028   6.908  -0.110  0.00  0.00    +0.024 A 
ATOM     18  C   UNL     1      -6.392   6.736   0.024  0.00  0.00    +0.005 A 
ENDBRANCH   1  16
BRANCH   4  19
ATOM     19  C   UNL     1       0.334   4.356   0.962  0.00  0.00    -0.033 A 
ATOM     20  C   UNL     1      -0.692   3.529   1.381  0.00  0.00    +0.005 A 
ATOM     21  C   UNL     1      -0.402   2.305   1.955  0.00  0.00    +0.003 A 
ATOM     22  C   UNL     1       0.914   1.913   2.119  0.00  0.00    +0.033 A 
ATOM     23  C   UNL     1       1.939   2.740   1.701  0.00  0.00    +0.126 A 
ATOM     24  C   UNL     1       1.649   3.962   1.122  0.00  0.00    +0.037 A 
BRANCH  23  25
ATOM     25  N   UNL     1       3.347   2.318   1.871  0.00  0.00    +0.056 N 
ATOM     26  O   UNL     1       3.603   1.242   2.381  0.00  0.00    -0.126 OA
ATOM     27  O   UNL     1       4.251   3.047   1.502  0.00  0.00    -0.126 OA
ENDBRANCH  23  25
ENDBRANCH   4  19
BRANCH   6  28
ATOM     28  N   UNL     1      -2.874   5.456  -2.049  0.00  0.00    -0.345 N 
ATOM     29  H   UNL     1      -2.449   5.061  -2.827  0.00  0.00    +0.144 HD
ATOM     30  H   UNL     1      -3.813   5.697  -2.079  0.00  0.00    +0.144 HD
ENDBRANCH   6  28
BRANCH   5  31
ATOM     31  C   UNL     1      -0.161   5.018  -2.106  0.00  0.00    +0.099 C 
ATOM     32  N   UNL     1       0.349   4.665  -3.058  0.00  0.00    -0.191 NA
ENDBRANCH   5  31
TORSDOF 5
