REMARK  Name = ZINC02129638
REMARK  6 active torsions:
REMARK  status: ('A' for Active; 'I' for Inactive)
REMARK    1  A    between atoms: C_6  and  C_7
REMARK    2  A    between atoms: N_9  and  C_10
REMARK    3  A    between atoms: C_10  and  C_12
REMARK    4  A    between atoms: C_10  and  O_16
REMARK    5  A    between atoms: O_16  and  C_17
REMARK    6  A    between atoms: C_17  and  C_18
REMARK                            x       y       z     vdW  Elec       q    Type
REMARK                         _______ _______ _______ _____ _____    ______ ____
ROOT
ATOM      1  C   UNL     1      -2.501  -2.863   0.011  0.00  0.00    +0.257 C 
ENDROOT
BRANCH   1   4
ATOM      2  C   UNL     1      -1.266  -0.763   0.010  0.00  0.00    +0.246 C 
ATOM      3  O   UNL     1      -2.328  -0.172   0.023  0.00  0.00    -0.270 OA
ATOM      4  N   UNL     1      -1.244  -2.111   0.003  0.00  0.00    -0.283 N 
ATOM      5  H   UNL     1      -0.397  -2.582  -0.008  0.00  0.00    +0.152 HD
BRANCH   2  11
ATOM      6  C   UNL     1      -0.017   1.392   0.010  0.00  0.00    +0.014 A 
ATOM      7  C   UNL     1       1.169   2.095   0.002  0.00  0.00    +0.021 A 
ATOM      8  C   UNL     1       2.378   1.419  -0.013  0.00  0.00    +0.041 A 
ATOM      9  C   UNL     1       2.403   0.034  -0.021  0.00  0.00    +0.021 A 
ATOM     10  C   UNL     1       1.224  -0.680  -0.014  0.00  0.00    +0.014 A 
ATOM     11  C   UNL     1       0.002  -0.004   0.002  0.00  0.00    +0.037 A 
ATOM     12 CL   UNL     1       3.868   2.310  -0.022  0.00  0.00    -0.084 Cl
ENDBRANCH   2  11
ENDBRANCH   1   4
BRANCH   1  13
ATOM     13  C   UNL     1      -2.363  -4.078   0.930  0.00  0.00    +0.233 C 
ATOM     14 CL   UNL     1      -1.032  -5.137   0.330  0.00  0.00    -0.079 Cl
ATOM     15 CL   UNL     1      -1.983  -3.525   2.603  0.00  0.00    -0.079 Cl
ATOM     16 CL   UNL     1      -3.909  -5.005   0.940  0.00  0.00    -0.079 Cl
ENDBRANCH   1  13
BRANCH   1  17
ATOM     17  O   UNL     1      -2.803  -3.302  -1.316  0.00  0.00    -0.354 OA
BRANCH  17  18
ATOM     18  C   UNL     1      -3.175  -2.247  -2.206  0.00  0.00    +0.164 C 
BRANCH  18  19
ATOM     19  C   UNL     1      -3.473  -2.829  -3.589  0.00  0.00    +0.001 C 
ATOM     20  C   UNL     1      -4.697  -3.742  -3.504  0.00  0.00    +0.002 C 
ATOM     21  C   UNL     1      -5.019  -4.265  -4.908  0.00  0.00    -0.018 C 
ATOM     22  C   UNL     1      -5.259  -3.073  -5.835  0.00  0.00    -0.078 C 
ATOM     23  N   UNL     1      -4.056  -2.231  -5.900  0.00  0.00    +0.382 N 
ATOM     24  C   UNL     1      -3.747  -1.688  -4.574  0.00  0.00    -0.063 C 
ATOM     25  C   UNL     1      -2.493  -0.809  -4.646  0.00  0.00    -0.015 C 
ATOM     26  C   UNL     1      -2.718   0.334  -5.638  0.00  0.00    -0.003 C 
ATOM     27  C   UNL     1      -3.075  -0.265  -7.003  0.00  0.00    -0.019 C 
ATOM     28  C   UNL     1      -4.317  -1.138  -6.848  0.00  0.00    -0.078 C 
ATOM     29  H   UNL     1      -3.277  -2.782  -6.228  0.00  0.00    -0.081 HD
ENDBRANCH  18  19
ENDBRANCH  17  18
ENDBRANCH   1  17
TORSDOF 6
