REMARK  Name = ZINC37581511
REMARK  8 active torsions:
REMARK  status: ('A' for Active; 'I' for Inactive)
REMARK    1  A    between atoms: C_1  and  N_2
REMARK    2  A    between atoms: N_2  and  C_3
REMARK    3  A    between atoms: N_2  and  S_7
REMARK    4  A    between atoms: C_3  and  C_4
REMARK    5  A    between atoms: S_7  and  C_10
REMARK    6  A    between atoms: C_13  and  C_17
REMARK    7  A    between atoms: C_18  and  C_19
REMARK    8  A    between atoms: C_19  and  N_20
REMARK                            x       y       z     vdW  Elec       q    Type
REMARK                         _______ _______ _______ _____ _____    ______ ____
ROOT
ATOM      1  C   UNL     1       1.682  -1.059  -1.905  0.00  0.00    +0.142 A 
ATOM      2  C   UNL     1       2.322  -0.106  -2.678  0.00  0.00    +0.070 A 
ATOM      3  C   UNL     1       3.640  -0.285  -3.048  0.00  0.00    +0.039 A 
ATOM      4  C   UNL     1       4.327  -1.429  -2.642  0.00  0.00    +0.028 A 
ATOM      5  C   UNL     1       3.677  -2.386  -1.862  0.00  0.00    +0.039 A 
ATOM      6  C   UNL     1       2.360  -2.194  -1.494  0.00  0.00    +0.070 A 
ATOM      7 CL   UNL     1       1.551  -3.381  -0.519  0.00  0.00    -0.081 Cl
ATOM      8 CL   UNL     1       1.466   1.317  -3.183  0.00  0.00    -0.081 Cl
ENDROOT
BRANCH   1   9
ATOM      9  S   UNL     1      -0.000  -0.824  -1.437  0.00  0.00    +0.064 S 
ATOM     10  O   UNL     1      -0.531  -2.115  -1.167  0.00  0.00    -0.153 OA
ATOM     11  O   UNL     1      -0.572   0.049  -2.401  0.00  0.00    -0.153 OA
BRANCH   9  13
ATOM     12  C   UNL     1      -0.018   1.461   0.010  0.00  0.00    +0.132 C 
ATOM     13  N   UNL     1       0.002  -0.004   0.002  0.00  0.00    -0.171 NA
BRANCH  13  14
ATOM     14  C   UNL     1       0.024  -0.743   1.267  0.00  0.00    +0.204 C 
BRANCH  14  15
ATOM     15  C   UNL     1      -1.384  -0.909   1.776  0.00  0.00    +0.226 C 
ATOM     16  O   UNL     1      -2.315  -0.455   1.145  0.00  0.00    -0.275 OA
ATOM     17  N   UNL     1      -1.610  -1.563   2.933  0.00  0.00    -0.328 N 
ATOM     18  H   UNL     1      -0.866  -1.926   3.438  0.00  0.00    +0.145 HD
ATOM     19  H   UNL     1      -2.517  -1.669   3.261  0.00  0.00    +0.145 HD
ENDBRANCH  14  15
ENDBRANCH  13  14
ENDBRANCH   9  13
ENDBRANCH   1   9
BRANCH   4  20
ATOM     20  C   UNL     1       5.694  -1.620  -3.023  0.00  0.00    -0.068 C 
ATOM     21  C   UNL     1       6.815  -1.777  -3.335  0.00  0.00    -0.117 C 
BRANCH  21  22
ATOM     22  C   UNL     1       8.220  -1.974  -3.727  0.00  0.00    +0.005 C 
BRANCH  22  23
ATOM     23  N   UNL     1       8.709  -3.245  -3.176  0.00  0.00    +0.385 N 
ATOM     24  H   UNL     1       9.672  -3.380  -3.445  0.00  0.00    -0.089 HD
ATOM     25  H   UNL     1       8.640  -3.224  -2.170  0.00  0.00    -0.089 HD
ATOM     26  H   UNL     1       8.150  -4.004  -3.536  0.00  0.00    -0.089 HD
ENDBRANCH  22  23
ENDBRANCH  21  22
ENDBRANCH   4  20
TORSDOF 7
