REMARK  Name = ZINC15080388
REMARK  8 active torsions:
REMARK  status: ('A' for Active; 'I' for Inactive)
REMARK    1  A    between atoms: C_1  and  C_2
REMARK    2  A    between atoms: C_2  and  C_3
REMARK    3  A    between atoms: C_3  and  C_4
REMARK    4  A    between atoms: C_4  and  O_5
REMARK    5  A    between atoms: O_5  and  C_6
REMARK    6  A    between atoms: C_6  and  C_8
REMARK    7  A    between atoms: C_11  and  N_14
REMARK    8  A    between atoms: C_18  and  N_22
REMARK                            x       y       z     vdW  Elec       q    Type
REMARK                         _______ _______ _______ _____ _____    ______ ____
ROOT
ATOM      1  N   UNL     1       4.106  -5.919  -7.155  0.00  0.00    -0.212 N 
ATOM      2  C   UNL     1       4.559  -5.147  -8.151  0.00  0.00    +0.225 C 
ATOM      3  O   UNL     1       4.473  -3.939  -8.197  0.00  0.00    -0.275 OA
ATOM      4  C   UNL     1       5.197  -6.022  -9.208  0.00  0.00    +0.090 C 
ATOM      5  C   UNL     1       5.031  -7.448  -8.646  0.00  0.00    +0.029 C 
ATOM      6  C   UNL     1       4.323  -7.229  -7.327  0.00  0.00    +0.213 C 
ATOM      7  O   UNL     1       4.000  -8.102  -6.549  0.00  0.00    -0.277 OA
ENDROOT
BRANCH   5   8
ATOM      8  N   UNL     1       6.342  -8.074  -8.429  0.00  0.00    +0.388 N 
ATOM      9  C   UNL     1       7.067  -8.174  -9.717  0.00  0.00    -0.074 C 
ATOM     10  C   UNL     1       7.867  -9.512  -9.601  0.00  0.00    -0.022 C 
ATOM     11  C   UNL     1       9.026  -9.208  -8.647  0.00  0.00    +0.028 C 
ATOM     12  C   UNL     1       9.439 -10.398  -7.847  0.00  0.00    -0.031 C 
ATOM     13  C   UNL     1       8.717 -11.456  -7.678  0.00  0.00    -0.031 C 
ATOM     14  C   UNL     1       7.371 -11.645  -8.304  0.00  0.00    +0.028 C 
ATOM     15  C   UNL     1       6.801 -10.386  -8.906  0.00  0.00    -0.022 C 
ATOM     16  C   UNL     1       6.160  -9.441  -7.889  0.00  0.00    -0.074 C 
ATOM     17  H   UNL     1       6.881  -7.521  -7.779  0.00  0.00    -0.081 HD
ENDBRANCH   5   8
BRANCH   1  21
ATOM     18  C   UNL     1       2.192  -4.369  -3.792  0.00  0.00    +0.059 A 
ATOM     19  C   UNL     1       3.450  -4.966  -3.669  0.00  0.00    +0.017 A 
ATOM     20  C   UNL     1       4.079  -5.477  -4.782  0.00  0.00    +0.025 A 
ATOM     21  C   UNL     1       3.464  -5.400  -6.027  0.00  0.00    +0.044 A 
ATOM     22  C   UNL     1       2.212  -4.807  -6.153  0.00  0.00    +0.025 A 
ATOM     23  C   UNL     1       1.575  -4.299  -5.044  0.00  0.00    +0.017 A 
BRANCH  18  24
ATOM     24  C   UNL     1       1.515  -3.821  -2.602  0.00  0.00    +0.339 C 
ATOM     25  O   UNL     1       0.419  -3.307  -2.709  0.00  0.00    -0.245 OA
BRANCH  24  26
ATOM     26  O   UNL     1       2.111  -3.889  -1.395  0.00  0.00    -0.461 OA
BRANCH  26  27
ATOM     27  C   UNL     1       1.398  -3.338  -0.286  0.00  0.00    +0.232 C 
BRANCH  27  28
ATOM     28  C   UNL     1       2.227  -3.508   0.988  0.00  0.00    +0.041 C 
BRANCH  28  30
ATOM     29  C   UNL     1       2.293  -3.087   3.450  0.00  0.00    +0.004 C 
ATOM     30  C   UNL     1       1.464  -2.917   2.175  0.00  0.00    -0.000 C 
ENDBRANCH  28  30
ENDBRANCH  27  28
ENDBRANCH  26  27
ENDBRANCH  24  26
ENDBRANCH  18  24
ENDBRANCH   1  21
TORSDOF 7
