REMARK  Name = ZINC21323058
REMARK  12 active torsions:
REMARK  status: ('A' for Active; 'I' for Inactive)
REMARK    1  A    between atoms: C_1  and  C_2
REMARK    2  A    between atoms: C_2  and  C_26
REMARK    3  A    between atoms: N_3  and  N_4
REMARK    4  A    between atoms: C_8  and  S_11
REMARK    5  A    between atoms: N_9  and  N_10
REMARK    6  A    between atoms: S_11  and  C_12
REMARK    7  A    between atoms: C_12  and  C_13
REMARK    8  A    between atoms: N_15  and  C_16
REMARK    9  A    between atoms: C_18  and  O_24
REMARK   10  A    between atoms: C_20  and  O_22
REMARK   11  A    between atoms: O_22  and  C_23
REMARK   12  A    between atoms: O_24  and  C_25
REMARK                            x       y       z     vdW  Elec       q    Type
REMARK                         _______ _______ _______ _____ _____    ______ ____
ROOT
ATOM      1  N   UNL     1      -7.646   2.355   0.025  0.00  0.00    -0.204 N 
ATOM      2  C   UNL     1      -6.259   2.386   0.022  0.00  0.00    +0.254 A 
ATOM      3  N   UNL     1      -5.513   3.464   0.018  0.00  0.00    -0.109 NA
ATOM      4  N   UNL     1      -4.171   3.062   0.022  0.00  0.00    -0.119 NA
ATOM      5  C   UNL     1      -4.141   1.750   0.019  0.00  0.00    +0.210 A 
ATOM      6  N   UNL     1      -5.430   1.299   0.022  0.00  0.00    -0.211 N 
ATOM      7  H   UNL     1      -8.174   1.390   0.027  0.00  0.00    +0.178 HD
ENDROOT
BRANCH   1  10
ATOM      8  C   UNL     1     -10.396   2.200   0.030  0.00  0.00    +0.068 C 
ATOM      9  C   UNL     1      -9.672   3.522   0.026  0.00  0.00    +0.063 C 
ATOM     10  N   UNL     1      -8.374   3.552   0.024  0.00  0.00    -0.184 NA
BRANCH   9  11
ATOM     11  C   UNL     1     -10.438   4.781   0.026  0.00  0.00    -0.002 A 
ATOM     12  C   UNL     1     -11.835   4.753   0.022  0.00  0.00    +0.011 A 
ATOM     13  C   UNL     1     -12.546   5.935   0.027  0.00  0.00    +0.016 A 
ATOM     14  C   UNL     1     -11.878   7.148   0.024  0.00  0.00    +0.018 A 
ATOM     15  C   UNL     1     -10.494   7.183   0.021  0.00  0.00    +0.016 A 
ATOM     16  C   UNL     1      -9.771   6.009   0.022  0.00  0.00    +0.011 A 
ATOM     17 BR   UNL     1     -12.861   8.764   0.022  0.00  0.00    -0.050 Br
ENDBRANCH   9  11
ENDBRANCH   1  10
BRANCH   6  18
ATOM     18  N   UNL     1      -5.822  -0.010   0.026  0.00  0.00    -0.294 N 
ATOM     19  H   UNL     1      -5.068  -0.810   0.026  0.00  0.00    +0.163 HD
ATOM     20  H   UNL     1      -6.893  -0.263   0.029  0.00  0.00    +0.163 HD
ENDBRANCH   6  18
BRANCH   5  21
ATOM     21  S   UNL     1      -2.692   0.747   0.017  0.00  0.00    -0.075 S 
BRANCH  21  22
ATOM     22  C   UNL     1      -1.330   1.945   0.012  0.00  0.00    +0.173 C 
BRANCH  22  23
ATOM     23  C   UNL     1      -0.014   1.209   0.011  0.00  0.00    +0.227 C 
ATOM     24  O   UNL     1       0.002  -0.004   0.013  0.00  0.00    -0.275 OA
ATOM     25  N   UNL     1       1.143   1.898   0.001  0.00  0.00    -0.285 N 
ATOM     26  H   UNL     1       1.130   2.995  -0.077  0.00  0.00    +0.155 HD
BRANCH  25  27
ATOM     27  C   UNL     1       2.363   1.219   0.092  0.00  0.00    +0.040 A 
ATOM     28  C   UNL     1       3.427   1.790   0.776  0.00  0.00    +0.069 A 
ATOM     29  C   UNL     1       4.634   1.113   0.871  0.00  0.00    +0.125 A 
ATOM     30  C   UNL     1       4.781  -0.129   0.271  0.00  0.00    +0.091 A 
ATOM     31  C   UNL     1       3.720  -0.697  -0.418  0.00  0.00    +0.125 A 
ATOM     32  C   UNL     1       2.511  -0.024  -0.508  0.00  0.00    +0.069 A 
BRANCH  31  33
ATOM     33  O   UNL     1       3.866  -1.914  -1.005  0.00  0.00    -0.495 OA
ATOM     34  C   UNL     1       5.138  -2.551  -0.872  0.00  0.00    +0.277 C 
ENDBRANCH  31  33
BRANCH  29  35
ATOM     35  O   UNL     1       5.674   1.669   1.546  0.00  0.00    -0.495 OA
ATOM     36  C   UNL     1       6.889   0.919   1.598  0.00  0.00    +0.277 C 
ENDBRANCH  29  35
ENDBRANCH  25  27
ENDBRANCH  22  23
ENDBRANCH  21  22
ENDBRANCH   5  21
TORSDOF 9
