REMARK  Name = ZINC39969642
REMARK  9 active torsions:
REMARK  status: ('A' for Active; 'I' for Inactive)
REMARK    1  A    between atoms: C_1  and  C_2
REMARK    2  A    between atoms: C_2  and  N_3
REMARK    3  A    between atoms: C_4  and  C_24
REMARK    4  A    between atoms: C_8  and  S_10
REMARK    5  A    between atoms: S_10  and  C_11
REMARK    6  A    between atoms: C_11  and  C_12
REMARK    7  A    between atoms: C_24  and  C_26
REMARK    8  A    between atoms: C_24  and  N_27
REMARK    9  A    between atoms: C_28  and  C_30
REMARK                            x       y       z     vdW  Elec       q    Type
REMARK                         _______ _______ _______ _____ _____    ______ ____
ROOT
ATOM      1  N   UNL     1       0.635  -0.497  -1.217  0.00  0.00    -0.260 NA
ATOM      2  C   UNL     1       1.190  -1.863  -1.077  0.00  0.00    +0.160 C 
ATOM      3  N   UNL     1       0.387  -2.682  -2.023  0.00  0.00    -0.236 NA
ATOM      4  N   UNL     1       0.193  -1.774  -3.165  0.00  0.00    -0.229 NA
ATOM      5  C   UNL     1      -0.002  -0.442  -2.550  0.00  0.00    +0.200 C 
ATOM      6  H   UNL     1      -0.497  -2.944  -1.615  0.00  0.00    +0.142 HD
ATOM      7  H   UNL     1      -0.615  -2.043  -3.707  0.00  0.00    +0.143 HD
ENDROOT
BRANCH   1   9
ATOM      8  C   UNL     1      -0.837   1.228  -0.292  0.00  0.00    +0.020 C 
ATOM      9  C   UNL     1      -0.339  -0.213  -0.156  0.00  0.00    +0.085 C 
ENDBRANCH   1   9
BRANCH   2  10
ATOM     10  C   UNL     1       1.012  -2.369   0.356  0.00  0.00    +0.103 C 
ATOM     11  C   UNL     1       1.459  -3.829   0.441  0.00  0.00    +0.031 C 
BRANCH  10  12
ATOM     12  N   UNL     1       1.824  -1.556   1.265  0.00  0.00    -0.306 N 
ATOM     13  C   UNL     1       1.481  -1.450   2.564  0.00  0.00    +0.244 C 
ATOM     14  O   UNL     1       0.497  -2.030   2.982  0.00  0.00    -0.270 OA
ATOM     15  H   UNL     1       2.609  -1.093   0.932  0.00  0.00    +0.149 HD
BRANCH  13  16
ATOM     16  C   UNL     1       2.300  -0.630   3.481  0.00  0.00    +0.037 A 
ATOM     17  C   UNL     1       3.427   0.042   3.003  0.00  0.00    +0.013 A 
ATOM     18  C   UNL     1       4.187   0.806   3.865  0.00  0.00    +0.001 A 
ATOM     19  C   UNL     1       3.835   0.907   5.199  0.00  0.00    +0.000 A 
ATOM     20  C   UNL     1       2.720   0.244   5.679  0.00  0.00    +0.001 A 
ATOM     21  C   UNL     1       1.947  -0.519   4.827  0.00  0.00    +0.013 A 
ENDBRANCH  13  16
ENDBRANCH  10  12
ENDBRANCH   2  10
BRANCH   5  22
ATOM     22  S   UNL     1       0.792   0.834  -3.566  0.00  0.00    -0.117 S 
BRANCH  22  23
ATOM     23  C   UNL     1       2.523   0.302  -3.666  0.00  0.00    +0.146 C 
BRANCH  23  24
ATOM     24  C   UNL     1       3.305   1.289  -4.494  0.00  0.00    +0.120 A 
ATOM     25  N   UNL     1       4.629   1.059  -4.690  0.00  0.00    -0.310 N 
ATOM     26  H   UNL     1       5.044   0.274  -4.299  0.00  0.00    +0.170 HD
ATOM     27  C   UNL     1       5.375   1.915  -5.427  0.00  0.00    +0.259 A 
ATOM     28  O   UNL     1       6.563   1.720  -5.611  0.00  0.00    -0.267 OA
ATOM     29  C   UNL     1       4.696   3.088  -5.996  0.00  0.00    +0.065 A 
ATOM     30  C   UNL     1       5.373   4.029  -6.769  0.00  0.00    +0.015 A 
ATOM     31  C   UNL     1       4.687   5.110  -7.277  0.00  0.00    +0.001 A 
ATOM     32  C   UNL     1       3.330   5.267  -7.026  0.00  0.00    +0.002 A 
ATOM     33  C   UNL     1       2.643   4.349  -6.265  0.00  0.00    +0.028 A 
ATOM     34  C   UNL     1       3.316   3.244  -5.739  0.00  0.00    +0.078 A 
ATOM     35  N   UNL     1       2.677   2.312  -4.988  0.00  0.00    -0.233 NA
ENDBRANCH  23  24
ENDBRANCH  22  23
ENDBRANCH   5  22
TORSDOF 7
