REMARK  Name = ZINC63744047
REMARK  14 active torsions:
REMARK  status: ('A' for Active; 'I' for Inactive)
REMARK    1  A    between atoms: C_1  and  C_2
REMARK    2  A    between atoms: C_4  and  C_37
REMARK    3  A    between atoms: C_9  and  N_25
REMARK    4  A    between atoms: N_10  and  C_11
REMARK    5  A    between atoms: C_11  and  C_13
REMARK    6  A    between atoms: C_15  and  O_23
REMARK    7  A    between atoms: C_16  and  O_21
REMARK    8  A    between atoms: C_17  and  O_19
REMARK    9  A    between atoms: O_19  and  C_20
REMARK   10  A    between atoms: O_21  and  C_22
REMARK   11  A    between atoms: O_23  and  C_24
REMARK   12  A    between atoms: N_25  and  C_26
REMARK   13  A    between atoms: C_26  and  C_27
REMARK   14  A    between atoms: C_27  and  C_28
REMARK                            x       y       z     vdW  Elec       q    Type
REMARK                         _______ _______ _______ _____ _____    ______ ____
ROOT
ATOM      1  C   UNL     1       1.591  -1.282  -0.700  0.00  0.00    +0.066 C 
ATOM      2  C   UNL     1       2.628  -0.331  -0.162  0.00  0.00    +0.044 A 
ATOM      3  C   UNL     1       3.506   0.310  -1.022  0.00  0.00    +0.046 A 
ATOM      4  C   UNL     1       4.445   1.177  -0.485  0.00  0.00    +0.044 A 
ATOM      5  N   UNL     1       4.475   1.366   0.823  0.00  0.00    -0.217 NA
ATOM      6  C   UNL     1       3.621   0.738   1.618  0.00  0.00    +0.231 A 
ATOM      7  N   UNL     1       2.709  -0.093   1.137  0.00  0.00    -0.217 NA
ATOM      8  N   UNL     1       3.681   0.960   2.987  0.00  0.00    -0.295 N 
ATOM      9  C   UNL     1       2.779   0.356   3.818  0.00  0.00    +0.218 C 
ATOM     10  N   UNL     1       3.197  -0.265   4.909  0.00  0.00    -0.141 NA
ATOM     11  C   UNL     1       5.420   1.896  -1.382  0.00  0.00    +0.066 C 
ATOM     12  H   UNL     1       4.363   1.544   3.354  0.00  0.00    +0.172 HD
ENDROOT
BRANCH  10  13
ATOM     13  C   UNL     1       4.509  -0.434   5.123  0.00  0.00    +0.270 C 
ATOM     14  O   UNL     1       5.320   0.063   4.361  0.00  0.00    -0.268 OA
BRANCH  13  15
ATOM     15  C   UNL     1       4.974  -1.224   6.284  0.00  0.00    +0.046 A 
ATOM     16  C   UNL     1       4.046  -1.799   7.155  0.00  0.00    +0.062 A 
ATOM     17  C   UNL     1       4.482  -2.537   8.239  0.00  0.00    +0.166 A 
ATOM     18  C   UNL     1       5.846  -2.708   8.464  0.00  0.00    +0.204 A 
ATOM     19  C   UNL     1       6.772  -2.135   7.597  0.00  0.00    +0.166 A 
ATOM     20  C   UNL     1       6.340  -1.401   6.508  0.00  0.00    +0.062 A 
BRANCH  19  21
ATOM     21  O   UNL     1       8.104  -2.303   7.819  0.00  0.00    -0.491 OA
ATOM     22  C   UNL     1       8.998  -1.688   6.890  0.00  0.00    +0.277 C 
ENDBRANCH  19  21
BRANCH  18  23
ATOM     23  O   UNL     1       6.272  -3.434   9.530  0.00  0.00    -0.488 OA
ATOM     24  C   UNL     1       6.461  -4.836   9.327  0.00  0.00    +0.277 C 
ENDBRANCH  18  23
BRANCH  17  25
ATOM     25  O   UNL     1       3.579  -3.097   9.088  0.00  0.00    -0.491 OA
ATOM     26  C   UNL     1       2.196  -2.881   8.798  0.00  0.00    +0.277 C 
ENDBRANCH  17  25
ENDBRANCH  13  15
ENDBRANCH  10  13
BRANCH   9  27
ATOM     27  N   UNL     1       1.448   0.393   3.522  0.00  0.00    -0.252 NA
BRANCH  27  28
ATOM     28  C   UNL     1       0.992   1.019   2.279  0.00  0.00    +0.149 C 
BRANCH  28  29
ATOM     29  C   UNL     1      -0.461   1.472   2.439  0.00  0.00    +0.056 C 
BRANCH  29  30
ATOM     30  C   UNL     1      -0.918   2.151   1.174  0.00  0.00    -0.040 C 
ATOM     31  C   UNL     1      -2.176   2.547   0.873  0.00  0.00    -0.001 A 
ATOM     32  C   UNL     1      -3.446   2.467   1.605  0.00  0.00    +0.010 A 
ATOM     33  C   UNL     1      -4.566   2.962   1.031  0.00  0.00    +0.001 A 
ATOM     34  C   UNL     1      -4.545   3.547  -0.243  0.00  0.00    +0.002 A 
ATOM     35  C   UNL     1      -3.417   3.657  -0.976  0.00  0.00    +0.026 A 
ATOM     36  C   UNL     1      -2.180   3.171  -0.470  0.00  0.00    +0.043 A 
ATOM     37  N   UNL     1      -0.972   3.160  -0.979  0.00  0.00    -0.380 N 
ATOM     38  C   UNL     1      -0.063   2.533  -0.013  0.00  0.00    +0.144 C 
ATOM     39  H   UNL     1      -0.721   3.511  -1.848  0.00  0.00    +0.160 HD
ENDBRANCH  29  30
ENDBRANCH  28  29
ENDBRANCH  27  28
ENDBRANCH   9  27
TORSDOF 9
