REMARK  Name = ZINC22452378
REMARK  8 active torsions:
REMARK  status: ('A' for Active; 'I' for Inactive)
REMARK    1  A    between atoms: C_1  and  C_2
REMARK    2  A    between atoms: C_2  and  C_3
REMARK    3  A    between atoms: C_15  and  C_19
REMARK    4  A    between atoms: C_16  and  C_18
REMARK    5  A    between atoms: C_19  and  C_20
REMARK    6  A    between atoms: C_20  and  C_21
REMARK    7  A    between atoms: C_21  and  C_22
REMARK    8  A    between atoms: C_21  and  C_23
REMARK                            x       y       z     vdW  Elec       q    Type
REMARK                         _______ _______ _______ _____ _____    ______ ____
ROOT
ATOM      1  C   UNL     1      -0.676   3.030   1.319  0.00  0.00    +0.076 C 
ATOM      2  C   UNL     1      -1.349   3.710   0.126  0.00  0.00    +0.022 C 
ATOM      3  C   UNL     1      -0.671   3.250  -1.167  0.00  0.00    +0.003 C 
ATOM      4  C   UNL     1      -0.757   1.725  -1.265  0.00  0.00    +0.019 C 
ATOM      5  C   UNL     1      -0.101   1.101  -0.031  0.00  0.00    +0.108 C 
ATOM      6  N   UNL     1      -0.786   1.572   1.179  0.00  0.00    -0.298 N 
ATOM      7  C   UNL     1      -0.308   0.935   2.293  0.00  0.00    +0.199 A 
ATOM      8  N   UNL     1       1.022   0.987   2.573  0.00  0.00    -0.295 N 
ATOM      9  H   UNL     1       1.704   1.538   1.908  0.00  0.00    +0.172 HD
ATOM     10  C   UNL     1       1.501   0.361   3.670  0.00  0.00    +0.256 A 
ATOM     11  O   UNL     1       2.691   0.397   3.936  0.00  0.00    -0.267 OA
ATOM     12  C   UNL     1       0.602  -0.333   4.498  0.00  0.00    +0.038 A 
ATOM     13  C   UNL     1      -0.722  -0.351   4.167  0.00  0.00    +0.050 A 
ATOM     14  N   UNL     1      -1.145   0.286   3.077  0.00  0.00    -0.221 NA
ATOM     15  C   UNL     1      -1.706  -1.089   5.037  0.00  0.00    +0.066 C 
ENDROOT
BRANCH   1  17
ATOM     16  C   UNL     1      -1.130   4.968   2.829  0.00  0.00    +0.006 C 
ATOM     17  C   UNL     1      -1.363   3.471   2.613  0.00  0.00    +0.019 C 
ENDBRANCH   1  17
BRANCH  12  18
ATOM     18  C   UNL     1       1.092  -1.046   5.733  0.00  0.00    +0.042 C 
BRANCH  18  19
ATOM     19  C   UNL     1       1.585  -2.443   5.353  0.00  0.00    +0.008 C 
BRANCH  19  20
ATOM     20  C   UNL     1       2.083  -3.167   6.606  0.00  0.00    -0.017 C 
ATOM     21  C   UNL     1       0.910  -3.397   7.561  0.00  0.00    +0.007 C 
ATOM     22  C   UNL     1       2.690  -4.514   6.210  0.00  0.00    +0.007 C 
ENDBRANCH  19  20
ENDBRANCH  18  19
ENDBRANCH  12  18
TORSDOF 4
