REMARK  Name = ZINC43746561
REMARK  10 active torsions:
REMARK  status: ('A' for Active; 'I' for Inactive)
REMARK    1  A    between atoms: C_1  and  C_2
REMARK    2  A    between atoms: C_2  and  C_3
REMARK    3  A    between atoms: C_3  and  N_4
REMARK    4  A    between atoms: C_5  and  C_7
REMARK    5  A    between atoms: C_7  and  C_9
REMARK    6  A    between atoms: C_7  and  N_14
REMARK    7  A    between atoms: C_9  and  C_11
REMARK    8  A    between atoms: C_9  and  C_12
REMARK    9  A    between atoms: C_12  and  C_13
REMARK   10  A    between atoms: C_15  and  C_17
REMARK                            x       y       z     vdW  Elec       q    Type
REMARK                         _______ _______ _______ _____ _____    ______ ____
ROOT
ATOM      1  C   UNL     1       3.355  -6.161  -5.427  0.00  0.00    +0.167 C 
ATOM      2  C   UNL     1       4.840  -5.895  -5.137  0.00  0.00    +0.069 C 
ATOM      3  C   UNL     1       5.706  -6.706  -6.066  0.00  0.00    -0.015 A 
ATOM      4  C   UNL     1       7.119  -6.515  -6.341  0.00  0.00    +0.003 A 
ATOM      5  C   UNL     1       8.052  -5.583  -5.878  0.00  0.00    +0.010 A 
ATOM      6  C   UNL     1       9.334  -5.699  -6.357  0.00  0.00    +0.001 A 
ATOM      7  C   UNL     1       9.697  -6.689  -7.256  0.00  0.00    +0.002 A 
ATOM      8  C   UNL     1       8.793  -7.623  -7.731  0.00  0.00    +0.026 A 
ATOM      9  C   UNL     1       7.484  -7.529  -7.263  0.00  0.00    +0.047 A 
ATOM     10  N   UNL     1       6.364  -8.266  -7.520  0.00  0.00    -0.356 N 
ATOM     11  H   UNL     1       6.324  -9.030  -8.115  0.00  0.00    +0.166 HD
ATOM     12  C   UNL     1       5.307  -7.763  -6.810  0.00  0.00    +0.046 A 
ATOM     13  C   UNL     1       3.883  -8.261  -6.833  0.00  0.00    +0.155 C 
ATOM     14  N   UNL     1       3.199  -7.593  -5.701  0.00  0.00    -0.273 N 
ATOM     15  C   UNL     1       2.502  -8.514  -5.024  0.00  0.00    +0.248 C 
ATOM     16  O   UNL     1       1.654  -8.276  -4.185  0.00  0.00    -0.270 OA
ATOM     17  C   UNL     1       2.918  -9.855  -5.448  0.00  0.00    +0.042 A 
ATOM     18  C   UNL     1       3.785  -9.727  -6.579  0.00  0.00    -0.009 A 
ATOM     19  C   UNL     1       4.349 -10.813  -7.209  0.00  0.00    +0.006 A 
ATOM     20  C   UNL     1       4.026 -12.072  -6.711  0.00  0.00    +0.000 A 
ATOM     21  C   UNL     1       3.177 -12.233  -5.635  0.00  0.00    +0.001 A 
ATOM     22  C   UNL     1       2.587 -11.115  -4.947  0.00  0.00    +0.013 A 
ENDROOT
BRANCH   1  24
ATOM     23  N   UNL     1       1.717  -4.700  -4.286  0.00  0.00    -0.302 N 
ATOM     24  C   UNL     1       2.525  -5.778  -4.229  0.00  0.00    +0.235 C 
ATOM     25  O   UNL     1       2.584  -6.438  -3.214  0.00  0.00    -0.274 OA
ATOM     26  H   UNL     1       1.670  -4.172  -5.098  0.00  0.00    +0.150 HD
BRANCH  23  27
ATOM     27  C   UNL     1       0.910  -4.328  -3.122  0.00  0.00    +0.162 C 
BRANCH  27  29
ATOM     28  N   UNL     1      -1.354  -3.401  -2.753  0.00  0.00    -0.314 N 
ATOM     29  C   UNL     1      -0.297  -3.547  -3.576  0.00  0.00    +0.234 C 
ATOM     30  O   UNL     1      -0.317  -3.051  -4.683  0.00  0.00    -0.274 OA
ATOM     31  H   UNL     1      -1.367  -3.854  -1.895  0.00  0.00    +0.149 HD
BRANCH  28  32
ATOM     32  C   UNL     1      -2.482  -2.556  -3.152  0.00  0.00    +0.104 C 
BRANCH  32  34
ATOM     33  C   UNL     1      -4.718  -1.679  -2.464  0.00  0.00    +0.005 C 
ATOM     34  C   UNL     1      -3.539  -2.561  -2.047  0.00  0.00    +0.015 C 
ENDBRANCH  32  34
ENDBRANCH  28  32
ENDBRANCH  27  29
BRANCH  27  35
ATOM     35  C   UNL     1       1.748  -3.466  -2.175  0.00  0.00    +0.015 C 
ATOM     36  C   UNL     1       2.352  -2.295  -2.952  0.00  0.00    +0.010 C 
BRANCH  35  37
ATOM     37  C   UNL     1       2.871  -4.314  -1.574  0.00  0.00    +0.002 C 
ATOM     38  C   UNL     1       2.269  -5.385  -0.662  0.00  0.00    +0.004 C 
ENDBRANCH  35  37
ENDBRANCH  27  35
ENDBRANCH  23  27
ENDBRANCH   1  24
TORSDOF 7
