REMARK  Name = ZINC29168353
REMARK  12 active torsions:
REMARK  status: ('A' for Active; 'I' for Inactive)
REMARK    1  A    between atoms: C_1  and  C_2
REMARK    2  A    between atoms: C_5  and  C_8
REMARK    3  A    between atoms: C_8  and  C_9
REMARK    4  A    between atoms: C_9  and  C_10
REMARK    5  A    between atoms: N_13  and  C_16
REMARK    6  A    between atoms: C_16  and  C_18
REMARK    7  A    between atoms: C_16  and  C_19
REMARK    8  A    between atoms: N_21  and  C_22
REMARK    9  A    between atoms: C_22  and  C_23
REMARK   10  A    between atoms: N_25  and  C_26
REMARK   11  A    between atoms: C_27  and  C_33
REMARK   12  A    between atoms: C_31  and  C_32
REMARK                            x       y       z     vdW  Elec       q    Type
REMARK                         _______ _______ _______ _____ _____    ______ ____
ROOT
ATOM      1  C   UNL     1       4.301   7.246  -3.215  0.00  0.00    +0.016 C 
ATOM      2  C   UNL     1       4.479   7.953  -1.869  0.00  0.00    -0.004 C 
ENDROOT
BRANCH   1   6
ATOM      3  C   UNL     1       4.174   3.341  -1.478  0.00  0.00    -0.014 C 
ATOM      4  C   UNL     1       2.890   3.959  -2.038  0.00  0.00    -0.015 C 
ATOM      5  C   UNL     1       3.057   5.478  -2.126  0.00  0.00    -0.078 C 
ATOM      6  N   UNL     1       4.196   5.797  -2.996  0.00  0.00    +0.387 N 
ATOM      7  C   UNL     1       5.447   5.254  -2.454  0.00  0.00    -0.078 C 
ATOM      8  C   UNL     1       5.352   3.728  -2.376  0.00  0.00    -0.015 C 
ATOM      9  H   UNL     1       4.017   5.319  -3.970  0.00  0.00    -0.081 HD
BRANCH   3  10
ATOM     10  C   UNL     1       4.035   1.817  -1.445  0.00  0.00    +0.008 C 
BRANCH  10  11
ATOM     11  C   UNL     1       2.940   1.426  -0.451  0.00  0.00    +0.035 C 
BRANCH  11  16
ATOM     12  C   UNL     1       2.418  -4.327  -0.327  0.00  0.00    +0.044 C 
ATOM     13  C   UNL     1       2.553  -2.827  -0.359  0.00  0.00    -0.050 A 
ATOM     14  C   UNL     1       3.430  -2.194   0.502  0.00  0.00    +0.003 A 
ATOM     15  C   UNL     1       3.555  -0.817   0.472  0.00  0.00    +0.004 A 
ATOM     16  C   UNL     1       2.803  -0.074  -0.419  0.00  0.00    -0.047 A 
ATOM     17  C   UNL     1       1.923  -0.707  -1.276  0.00  0.00    +0.004 A 
ATOM     18  C   UNL     1       1.801  -2.084  -1.249  0.00  0.00    +0.003 A 
ENDBRANCH  11  16
ENDBRANCH  10  11
ENDBRANCH   3  10
ENDBRANCH   1   6
BRANCH   1  19
ATOM     19  C   UNL     1       3.047   7.746  -3.884  0.00  0.00    +0.200 C 
ATOM     20  O   UNL     1       2.153   6.972  -4.152  0.00  0.00    -0.278 OA
ATOM     21  N   UNL     1       2.919   9.053  -4.184  0.00  0.00    -0.308 N 
ATOM     22  H   UNL     1       3.730   9.756  -3.940  0.00  0.00    +0.149 HD
BRANCH  21  23
ATOM     23  C   UNL     1       1.699   9.540  -4.834  0.00  0.00    +0.200 C 
BRANCH  23  24
ATOM     24  C   UNL     1       1.808  11.026  -5.058  0.00  0.00    +0.234 C 
ATOM     25  O   UNL     1       2.806  11.621  -4.709  0.00  0.00    -0.274 OA
ATOM     26  N   UNL     1       0.796  11.694  -5.647  0.00  0.00    -0.284 N 
ATOM     27  H   UNL     1      -0.073  11.145  -6.035  0.00  0.00    +0.155 HD
BRANCH  26  28
ATOM     28  C   UNL     1       0.853  13.088  -5.763  0.00  0.00    +0.039 A 
ATOM     29  C   UNL     1       0.654  13.691  -6.998  0.00  0.00    -0.029 A 
ATOM     30  C   UNL     1       0.705  15.067  -7.109  0.00  0.00    +0.005 A 
ATOM     31  C   UNL     1       0.964  15.843  -5.994  0.00  0.00    +0.001 A 
ATOM     32  C   UNL     1       1.168  15.245  -4.764  0.00  0.00    +0.005 A 
ATOM     33  C   UNL     1       1.113  13.870  -4.645  0.00  0.00    -0.029 A 
ATOM     34  C   UNL     1       1.334  13.219  -3.304  0.00  0.00    +0.045 C 
ATOM     35  C   UNL     1       0.379  12.846  -8.215  0.00  0.00    +0.045 C 
ENDBRANCH  26  28
ENDBRANCH  23  24
ENDBRANCH  21  23
ENDBRANCH   1  19
TORSDOF 8
