REMARK  Name = ZINC40143023
REMARK  9 active torsions:
REMARK  status: ('A' for Active; 'I' for Inactive)
REMARK    1  A    between atoms: C_4  and  N_7
REMARK    2  A    between atoms: N_7  and  C_8
REMARK    3  A    between atoms: N_7  and  S_28
REMARK    4  A    between atoms: C_8  and  C_9
REMARK    5  A    between atoms: C_9  and  C_11
REMARK    6  A    between atoms: C_9  and  O_27
REMARK    7  A    between atoms: C_11  and  O_12
REMARK    8  A    between atoms: O_12  and  N_13
REMARK    9  A    between atoms: S_28  and  C_31
REMARK                            x       y       z     vdW  Elec       q    Type
REMARK                         _______ _______ _______ _____ _____    ______ ____
ROOT
ATOM      1  C   UNL     1       3.646  -3.232  -0.739  0.00  0.00    +0.173 C 
ENDROOT
BRANCH   1   2
ATOM      2  O   UNL     1       4.380  -2.980  -1.939  0.00  0.00    -0.387 OA
ATOM      3  H   UNL     1       5.335  -3.108  -1.850  0.00  0.00    +0.210 HD
ENDBRANCH   1   2
BRANCH   1   4
ATOM      4  C   UNL     1       4.127  -2.285   0.362  0.00  0.00    +0.166 C 
BRANCH   4   5
ATOM      5  N   UNL     1       3.806  -0.904  -0.006  0.00  0.00    -0.200 N 
BRANCH   5   9
ATOM      6  C   UNL     1       0.043   0.658   0.849  0.00  0.00    +0.000 A 
ATOM      7  C   UNL     1       1.129   1.505   0.722  0.00  0.00    +0.002 A 
ATOM      8  C   UNL     1       2.378   0.990   0.439  0.00  0.00    +0.025 A 
ATOM      9  C   UNL     1       2.544  -0.380   0.281  0.00  0.00    +0.051 A 
ATOM     10  C   UNL     1       1.451  -1.228   0.409  0.00  0.00    +0.025 A 
ATOM     11  C   UNL     1       0.204  -0.706   0.692  0.00  0.00    +0.002 A 
ENDBRANCH   5   9
BRANCH   5  12
ATOM     12  S   UNL     1       4.941   0.036  -0.763  0.00  0.00    +0.075 S 
ATOM     13  O   UNL     1       5.841  -0.854  -1.407  0.00  0.00    -0.150 OA
ATOM     14  O   UNL     1       4.228   1.043  -1.469  0.00  0.00    -0.150 OA
BRANCH  12  15
ATOM     15  C   UNL     1       5.859   0.859   0.496  0.00  0.00    +0.109 A 
ATOM     16  C   UNL     1       5.521   2.146   0.869  0.00  0.00    +0.030 A 
ATOM     17  C   UNL     1       6.241   2.792   1.856  0.00  0.00    +0.022 A 
ATOM     18  C   UNL     1       7.301   2.150   2.471  0.00  0.00    +0.041 A 
ATOM     19  C   UNL     1       7.639   0.861   2.097  0.00  0.00    +0.022 A 
ATOM     20  C   UNL     1       6.915   0.214   1.114  0.00  0.00    +0.030 A 
ATOM     21 CL   UNL     1       8.206   2.960   3.711  0.00  0.00    -0.084 Cl
ENDBRANCH  12  15
ENDBRANCH   5  12
ENDBRANCH   4   5
ENDBRANCH   1   4
BRANCH   1  22
ATOM     22  C   UNL     1       3.868  -4.680  -0.300  0.00  0.00    +0.295 C 
BRANCH  22  23
ATOM     23  O   UNL     1       3.313  -5.564  -1.276  0.00  0.00    -0.391 OA
BRANCH  23  24
ATOM     24  N   UNL     1       3.466  -6.937  -0.963  0.00  0.00    -0.084 NA
ATOM     25  C   UNL     1       3.003  -7.844  -1.773  0.00  0.00    +0.118 C 
ATOM     26  C   UNL     1       2.301  -7.606  -3.057  0.00  0.00    +0.012 A 
ATOM     27  C   UNL     1       1.952  -6.441  -3.731  0.00  0.00    +0.011 A 
ATOM     28  C   UNL     1       1.286  -6.517  -4.939  0.00  0.00    +0.001 A 
ATOM     29  C   UNL     1       0.964  -7.748  -5.482  0.00  0.00    +0.001 A 
ATOM     30  C   UNL     1       1.304  -8.914  -4.825  0.00  0.00    +0.009 A 
ATOM     31  C   UNL     1       1.975  -8.856  -3.606  0.00  0.00    -0.008 A 
ATOM     32  C   UNL     1       2.458  -9.918  -2.692  0.00  0.00    -0.008 A 
ATOM     33  C   UNL     1       3.082  -9.313  -1.589  0.00  0.00    +0.012 A 
ATOM     34  C   UNL     1       3.628 -10.103  -0.583  0.00  0.00    +0.011 A 
ATOM     35  C   UNL     1       3.557 -11.480  -0.674  0.00  0.00    +0.001 A 
ATOM     36  C   UNL     1       2.946 -12.078  -1.762  0.00  0.00    +0.001 A 
ATOM     37  C   UNL     1       2.391 -11.306  -2.765  0.00  0.00    +0.009 A 
ENDBRANCH  23  24
ENDBRANCH  22  23
ENDBRANCH   1  22
TORSDOF 9
