REMARK  Name = ZINC36603593
REMARK  10 active torsions:
REMARK  status: ('A' for Active; 'I' for Inactive)
REMARK    1  A    between atoms: C_1  and  C_2
REMARK    2  A    between atoms: C_2  and  C_3
REMARK    3  A    between atoms: N_5  and  C_6
REMARK    4  A    between atoms: N_5  and  C_13
REMARK    5  A    between atoms: C_6  and  C_7
REMARK    6  A    between atoms: C_10  and  C_12
REMARK    7  A    between atoms: C_13  and  C_15
REMARK    8  A    between atoms: C_13  and  C_25
REMARK    9  A    between atoms: C_17  and  N_22
REMARK   10  A    between atoms: N_27  and  C_28
REMARK                            x       y       z     vdW  Elec       q    Type
REMARK                         _______ _______ _______ _____ _____    ______ ____
ROOT
ATOM      1  C   UNL     1       0.410  -2.776   0.413  0.00  0.00    +0.194 C 
ENDROOT
BRANCH   1   2
ATOM      2  C   UNL     1       1.033  -2.607  -0.949  0.00  0.00    +0.002 A 
ATOM      3  C   UNL     1       0.312  -2.019  -1.971  0.00  0.00    +0.040 A 
ATOM      4  C   UNL     1       0.884  -1.865  -3.220  0.00  0.00    +0.127 A 
ATOM      5  C   UNL     1       2.177  -2.299  -3.448  0.00  0.00    +0.034 A 
ATOM      6  C   UNL     1       2.899  -2.887  -2.426  0.00  0.00    +0.022 A 
ATOM      7  C   UNL     1       2.329  -3.036  -1.174  0.00  0.00    +0.047 A 
ATOM      8 CL   UNL     1       3.238  -3.767   0.112  0.00  0.00    -0.083 Cl
BRANCH   4   9
ATOM      9  N   UNL     1       0.112  -1.236  -4.315  0.00  0.00    +0.056 N 
ATOM     10  O   UNL     1      -1.019  -0.857  -4.116  0.00  0.00    -0.126 OA
ATOM     11  O   UNL     1       0.611  -1.101  -5.407  0.00  0.00    -0.126 OA
ENDBRANCH   4   9
ENDBRANCH   1   2
BRANCH   1  12
ATOM     12  C   UNL     1      -1.077  -2.551   0.316  0.00  0.00    +0.238 C 
ATOM     13  O   UNL     1      -1.582  -1.592   0.860  0.00  0.00    -0.273 OA
ATOM     14  N   UNL     1      -1.846  -3.415  -0.376  0.00  0.00    -0.311 N 
ATOM     15  H   UNL     1      -1.454  -4.220  -0.750  0.00  0.00    +0.149 HD
BRANCH  14  16
ATOM     16  C   UNL     1      -3.272  -3.138  -0.563  0.00  0.00    +0.073 C 
ATOM     17  C   UNL     1      -4.053  -3.644   0.651  0.00  0.00    +0.022 C 
ATOM     18  C   UNL     1      -5.543  -3.355   0.456  0.00  0.00    +0.002 C 
ATOM     19  C   UNL     1      -6.040  -4.069  -0.803  0.00  0.00    +0.000 C 
ATOM     20  C   UNL     1      -5.259  -3.563  -2.018  0.00  0.00    +0.002 C 
ATOM     21  C   UNL     1      -3.769  -3.852  -1.822  0.00  0.00    +0.022 C 
ENDBRANCH  14  16
ENDBRANCH   1  12
BRANCH   1  24
ATOM     22  C   UNL     1       1.537  -2.219   2.500  0.00  0.00    +0.217 C 
ATOM     23  O   UNL     1       1.940  -1.408   3.307  0.00  0.00    -0.276 OA
ATOM     24  N   UNL     1       0.992  -1.802   1.340  0.00  0.00    -0.279 N 
BRANCH  22  26
ATOM     25  C   UNL     1       2.417  -3.896   4.101  0.00  0.00    +0.013 C 
ATOM     26  C   UNL     1       1.647  -3.693   2.795  0.00  0.00    +0.092 C 
ENDBRANCH  22  26
BRANCH  24  27
ATOM     27  C   UNL     1       0.981  -0.376   1.007  0.00  0.00    +0.183 C 
BRANCH  27  28
ATOM     28  C   UNL     1       2.236  -0.027   0.250  0.00  0.00    +0.122 A 
ATOM     29  C   UNL     1       2.385  -0.064  -1.087  0.00  0.00    +0.046 A 
ATOM     30  C   UNL     1       3.712   0.338  -1.363  0.00  0.00    +0.045 A 
ATOM     31  C   UNL     1       4.295   0.596  -0.178  0.00  0.00    +0.102 A 
ATOM     32  O   UNL     1       3.395   0.379   0.794  0.00  0.00    -0.463 OA
ATOM     33  C   UNL     1       5.716   1.056   0.023  0.00  0.00    +0.086 C 
ENDBRANCH  27  28
ENDBRANCH  24  27
ENDBRANCH   1  24
TORSDOF 8
