REMARK  Name = ZINC10220147
REMARK  9 active torsions:
REMARK  status: ('A' for Active; 'I' for Inactive)
REMARK    1  A    between atoms: C_1  and  C_2
REMARK    2  A    between atoms: C_2  and  C_3
REMARK    3  A    between atoms: C_2  and  C_4
REMARK    4  A    between atoms: C_4  and  C_6
REMARK    5  A    between atoms: C_4  and  N_21
REMARK    6  A    between atoms: C_13  and  C_14
REMARK    7  A    between atoms: C_13  and  N_70
REMARK    8  A    between atoms: C_22  and  C_24
REMARK    9  A    between atoms: C_24  and  C_25
REMARK                            x       y       z     vdW  Elec       q    Type
REMARK                         _______ _______ _______ _____ _____    ______ ____
ROOT
ATOM      1  C   UNL     1       0.011   1.073   2.521  0.00  0.00    +0.162 C 
ENDROOT
BRANCH   1   2
ATOM      2  C   UNL     1      -0.074  -0.431   2.563  0.00  0.00    +0.236 C 
ATOM      3  O   UNL     1       0.939  -1.094   2.626  0.00  0.00    -0.274 OA
ATOM      4  N   UNL     1      -1.276  -1.040   2.530  0.00  0.00    -0.303 N 
ATOM      5  C   UNL     1      -1.389  -2.498   2.687  0.00  0.00    +0.089 C 
ATOM      6  C   UNL     1      -2.430  -2.785   3.781  0.00  0.00    -0.059 C 
ATOM      7  C   UNL     1      -3.506  -0.640   3.432  0.00  0.00    -0.059 C 
ATOM      8  C   UNL     1      -2.510  -0.264   2.329  0.00  0.00    +0.089 C 
ATOM      9  N   UNL     1      -3.694  -2.107   3.421  0.00  0.00    +0.387 N 
ATOM     10  H   UNL     1      -3.971  -2.400   2.476  0.00  0.00    -0.081 HD
BRANCH   9  11
ATOM     11  C   UNL     1      -4.758  -2.486   4.373  0.00  0.00    +0.019 C 
BRANCH  11  12
ATOM     12  C   UNL     1      -5.080  -3.947   4.185  0.00  0.00    +0.199 C 
ATOM     13  O   UNL     1      -4.474  -4.600   3.361  0.00  0.00    -0.278 OA
ATOM     14  N   UNL     1      -6.040  -4.527   4.931  0.00  0.00    -0.303 N 
ATOM     15  C   UNL     1      -6.844  -3.857   5.964  0.00  0.00    +0.108 C 
ATOM     16  C   UNL     1      -7.792  -4.916   6.565  0.00  0.00    +0.020 C 
ATOM     17  C   UNL     1      -7.071  -6.251   6.238  0.00  0.00    +0.020 C 
ATOM     18  C   UNL     1      -6.455  -5.939   4.851  0.00  0.00    +0.108 C 
ENDBRANCH  11  12
ENDBRANCH   9  11
ENDBRANCH   1   2
BRANCH   1  19
ATOM     19  N   UNL     1       1.398   1.490   2.737  0.00  0.00    -0.303 N 
ATOM     20  C   UNL     1       1.664   2.713   3.237  0.00  0.00    +0.218 C 
ATOM     21  O   UNL     1       0.755   3.469   3.508  0.00  0.00    -0.275 OA
ATOM     22  H   UNL     1       2.126   0.886   2.520  0.00  0.00    +0.149 HD
BRANCH  20  23
ATOM     23  C   UNL     1       3.092   3.142   3.458  0.00  0.00    +0.131 C 
BRANCH  23  24
ATOM     24  C   UNL     1       3.115   4.540   4.020  0.00  0.00    -0.031 A 
ATOM     25  C   UNL     1       3.265   5.609   3.190  0.00  0.00    +0.005 A 
ATOM     26  C   UNL     1       3.289   6.909   3.690  0.00  0.00    +0.001 A 
ATOM     27  C   UNL     1       3.161   7.149   5.024  0.00  0.00    +0.008 A 
ATOM     28  C   UNL     1       3.003   6.071   5.912  0.00  0.00    -0.018 A 
ATOM     29  C   UNL     1       2.974   4.749   5.402  0.00  0.00    -0.014 A 
ATOM     30  C   UNL     1       2.821   3.671   6.291  0.00  0.00    +0.009 A 
ATOM     31  C   UNL     1       2.694   3.911   7.625  0.00  0.00    +0.001 A 
ATOM     32  C   UNL     1       2.718   5.211   8.126  0.00  0.00    +0.001 A 
ATOM     33  C   UNL     1       2.869   6.279   7.296  0.00  0.00    +0.008 A 
ENDBRANCH  23  24
ENDBRANCH  20  23
ENDBRANCH   1  19
BRANCH   1  35
ATOM     34  C   UNL     1       0.500   1.093   0.071  0.00  0.00    +0.009 C 
ATOM     35  C   UNL     1      -0.466   1.573   1.156  0.00  0.00    +0.012 C 
ATOM     36  C   UNL     1      -0.509   3.103   1.160  0.00  0.00    +0.009 C 
ENDBRANCH   1  35
TORSDOF 7
