REMARK  Name = ZINC15536776
REMARK  11 active torsions:
REMARK  status: ('A' for Active; 'I' for Inactive)
REMARK    1  A    between atoms: C_1  and  C_2
REMARK    2  A    between atoms: C_5  and  N_31
REMARK    3  A    between atoms: C_7  and  S_8
REMARK    4  A    between atoms: S_8  and  N_11
REMARK    5  A    between atoms: C_14  and  C_17
REMARK    6  A    between atoms: N_19  and  C_20
REMARK    7  A    between atoms: C_20  and  C_21
REMARK    8  A    between atoms: C_21  and  C_23
REMARK    9  A    between atoms: C_21  and  N_28
REMARK   10  A    between atoms: N_28  and  C_29
REMARK   11  A    between atoms: N_28  and  C_30
REMARK                            x       y       z     vdW  Elec       q    Type
REMARK                         _______ _______ _______ _____ _____    ______ ____
ROOT
ATOM      1  N   UNL     1       0.506   2.138   2.074  0.00  0.00    -0.177 NA
ATOM      2  C   UNL     1       1.710   1.339   2.342  0.00  0.00    +0.110 C 
ATOM      3  C   UNL     1       2.477   1.978   3.504  0.00  0.00    +0.030 C 
ATOM      4  C   UNL     1       2.757   3.448   3.179  0.00  0.00    +0.077 C 
ATOM      5  C   UNL     1       1.432   4.194   3.006  0.00  0.00    +0.030 C 
ATOM      6  C   UNL     1       0.654   3.579   1.833  0.00  0.00    +0.110 C 
ENDROOT
BRANCH   4   7
ATOM      7  C   UNL     1       3.541   4.071   4.305  0.00  0.00    +0.216 C 
ATOM      8  O   UNL     1       3.846   3.406   5.272  0.00  0.00    -0.276 OA
ATOM      9  N   UNL     1       3.903   5.367   4.237  0.00  0.00    -0.316 N 
ATOM     10  H   UNL     1       3.659   5.899   3.463  0.00  0.00    +0.149 HD
BRANCH   9  11
ATOM     11  C   UNL     1       4.665   5.973   5.332  0.00  0.00    +0.094 C 
BRANCH  11  12
ATOM     12  C   UNL     1       5.056   7.402   4.951  0.00  0.00    -0.014 C 
BRANCH  12  13
ATOM     13  C   UNL     1       6.005   7.369   3.780  0.00  0.00    -0.022 A 
ATOM     14  C   UNL     1       5.748   7.584   2.467  0.00  0.00    +0.009 A 
ATOM     15  C   UNL     1       6.786   7.502   1.559  0.00  0.00    +0.008 A 
ATOM     16  C   UNL     1       8.031   7.208   2.008  0.00  0.00    +0.045 A 
ATOM     17  S   UNL     1       7.760   7.044   3.765  0.00  0.00    -0.103 S 
ENDBRANCH  12  13
BRANCH  12  18
ATOM     18  N   UNL     1       5.711   8.052   6.094  0.00  0.00    +0.382 N 
ATOM     19  C   UNL     1       6.150   9.399   5.706  0.00  0.00    -0.096 C 
ATOM     20  C   UNL     1       4.763   8.149   7.212  0.00  0.00    -0.096 C 
ATOM     21  H   UNL     1       6.511   7.506   6.378  0.00  0.00    -0.082 HD
ENDBRANCH  12  18
ENDBRANCH  11  12
ENDBRANCH   9  11
ENDBRANCH   4   7
BRANCH   1  22
ATOM     22  S   UNL     1      -0.988   1.425   2.039  0.00  0.00    +0.061 S 
ATOM     23  O   UNL     1      -1.933   2.449   2.316  0.00  0.00    -0.153 OA
ATOM     24  O   UNL     1      -0.893   0.244   2.823  0.00  0.00    -0.153 OA
BRANCH  22  31
ATOM     25  C   UNL     1      -1.271   3.312  -0.308  0.00  0.00    +0.046 C 
ATOM     26  C   UNL     1      -1.394   1.845  -0.627  0.00  0.00    -0.024 A 
ATOM     27  C   UNL     1      -1.616   1.437  -1.930  0.00  0.00    +0.007 A 
ATOM     28  C   UNL     1      -1.729   0.091  -2.223  0.00  0.00    +0.033 A 
ATOM     29  C   UNL     1      -1.619  -0.848  -1.214  0.00  0.00    +0.128 A 
ATOM     30  C   UNL     1      -1.396  -0.440   0.088  0.00  0.00    +0.061 A 
ATOM     31  C   UNL     1      -1.279   0.906   0.380  0.00  0.00    +0.111 A 
BRANCH  29  32
ATOM     32  N   UNL     1      -1.741  -2.289  -1.528  0.00  0.00    +0.056 N 
ATOM     33  O   UNL     1      -1.937  -2.645  -2.667  0.00  0.00    -0.126 OA
ATOM     34  O   UNL     1      -1.645  -3.110  -0.646  0.00  0.00    -0.126 OA
ENDBRANCH  29  32
ENDBRANCH  22  31
ENDBRANCH   1  22
TORSDOF 8
