REMARK  Name = ZINC21246281
REMARK  9 active torsions:
REMARK  status: ('A' for Active; 'I' for Inactive)
REMARK    1  A    between atoms: C_1  and  C_2
REMARK    2  A    between atoms: C_2  and  C_3
REMARK    3  A    between atoms: C_2  and  O_4
REMARK    4  A    between atoms: O_4  and  C_5
REMARK    5  A    between atoms: C_10  and  C_11
REMARK    6  A    between atoms: C_16  and  C_21
REMARK    7  A    between atoms: C_24  and  N_27
REMARK    8  A    between atoms: N_27  and  C_28
REMARK    9  A    between atoms: N_27  and  C_29
REMARK                            x       y       z     vdW  Elec       q    Type
REMARK                         _______ _______ _______ _____ _____    ______ ____
ROOT
ATOM      1  C   UNL     1      -0.489   5.276  -0.087  0.00  0.00    +0.139 C 
ATOM      2  C   UNL     1      -0.799   5.552  -1.538  0.00  0.00    +0.037 C 
ATOM      3  C   UNL     1      -0.077   6.330  -2.364  0.00  0.00    +0.017 C 
ATOM      4  C   UNL     1      -0.511   6.535  -3.806  0.00  0.00    +0.059 C 
ATOM      5  C   UNL     1      -1.212   5.280  -4.323  0.00  0.00    +0.032 C 
ATOM      6  C   UNL     1      -2.431   5.025  -3.429  0.00  0.00    +0.088 C 
ATOM      7  C   UNL     1      -1.963   4.902  -2.009  0.00  0.00    +0.163 C 
ATOM      8  O   UNL     1      -2.607   4.219  -1.237  0.00  0.00    -0.292 OA
ATOM      9  N   UNL     1       1.050   6.997  -2.008  0.00  0.00    -0.316 N 
ATOM     10  C   UNL     1       2.105   6.448  -1.288  0.00  0.00    +0.052 A 
ATOM     11  C   UNL     1       3.368   6.286  -1.832  0.00  0.00    +0.025 A 
ATOM     12  C   UNL     1       4.386   5.777  -1.044  0.00  0.00    +0.002 A 
ATOM     13  C   UNL     1       4.143   5.437   0.275  0.00  0.00    +0.002 A 
ATOM     14  C   UNL     1       2.877   5.582   0.815  0.00  0.00    +0.025 A 
ATOM     15  C   UNL     1       1.851   6.069   0.021  0.00  0.00    +0.049 A 
ATOM     16  N   UNL     1       0.538   6.124   0.480  0.00  0.00    -0.331 N 
ATOM     17  H   UNL     1       1.178   8.052  -2.291  0.00  0.00    +0.152 HD
ATOM     18  H   UNL     1       0.286   6.828   1.287  0.00  0.00    +0.147 HD
ENDROOT
BRANCH   1  24
ATOM     19  C   UNL     1      -0.043   3.224   1.284  0.00  0.00    +0.126 A 
ATOM     20  C   UNL     1       0.362   1.901   1.398  0.00  0.00    +0.046 A 
ATOM     21  C   UNL     1       0.769   1.206   0.277  0.00  0.00    +0.004 A 
ATOM     22  C   UNL     1       0.764   1.823  -0.961  0.00  0.00    +0.001 A 
ATOM     23  C   UNL     1       0.358   3.139  -1.078  0.00  0.00    +0.009 A 
ATOM     24  C   UNL     1      -0.046   3.841   0.042  0.00  0.00    +0.019 A 
BRANCH  19  25
ATOM     25  O   UNL     1      -0.440   3.912   2.387  0.00  0.00    -0.489 OA
BRANCH  25  27
ATOM     26  C   UNL     1       0.841   3.132   4.282  0.00  0.00    +0.051 C 
ATOM     27  C   UNL     1      -0.533   3.179   3.610  0.00  0.00    +0.167 C 
ATOM     28  C   UNL     1      -1.533   3.866   4.541  0.00  0.00    +0.051 C 
ENDBRANCH  25  27
ENDBRANCH  19  25
ENDBRANCH   1  24
BRANCH   5  29
ATOM     29  C   UNL     1      -1.659   5.495  -5.746  0.00  0.00    -0.043 A 
ATOM     30  C   UNL     1      -2.548   6.511  -6.044  0.00  0.00    +0.006 A 
ATOM     31  C   UNL     1      -2.955   6.715  -7.348  0.00  0.00    +0.023 A 
ATOM     32  C   UNL     1      -2.480   5.890  -8.359  0.00  0.00    +0.029 A 
ATOM     33  C   UNL     1      -1.591   4.866  -8.056  0.00  0.00    +0.023 A 
ATOM     34  C   UNL     1      -1.183   4.672  -6.750  0.00  0.00    +0.006 A 
BRANCH  32  35
ATOM     35  N   UNL     1      -2.893   6.089  -9.678  0.00  0.00    -0.336 N 
ATOM     36  C   UNL     1      -2.390   5.219 -10.743  0.00  0.00    +0.129 C 
ATOM     37  C   UNL     1      -3.831   7.169  -9.996  0.00  0.00    +0.129 C 
ENDBRANCH  32  35
ENDBRANCH   5  29
TORSDOF 5
