REMARK  Name = ZINC17297000
REMARK  12 active torsions:
REMARK  status: ('A' for Active; 'I' for Inactive)
REMARK    1  A    between atoms: C_1  and  C_2
REMARK    2  A    between atoms: C_2  and  O_3
REMARK    3  A    between atoms: O_3  and  C_4
REMARK    4  A    between atoms: C_4  and  C_6
REMARK    5  A    between atoms: C_6  and  C_7
REMARK    6  A    between atoms: C_7  and  C_9
REMARK    7  A    between atoms: C_9  and  S_10
REMARK    8  A    between atoms: S_10  and  C_11
REMARK    9  A    between atoms: C_14  and  C_23
REMARK   10  A    between atoms: N_15  and  C_16
REMARK   11  A    between atoms: C_21  and  C_22
REMARK   12  A    between atoms: C_23  and  N_24
REMARK                            x       y       z     vdW  Elec       q    Type
REMARK                         _______ _______ _______ _____ _____    ______ ____
ROOT
ATOM      1  C   UNL     1       2.225   6.012  -3.405  0.00  0.00    +0.197 A 
ATOM      2  N   UNL     1       1.534   7.128  -3.370  0.00  0.00    -0.122 NA
ATOM      3  N   UNL     1       1.081   7.325  -2.184  0.00  0.00    -0.131 NA
ATOM      4  C   UNL     1       1.450   6.357  -1.395  0.00  0.00    +0.159 A 
ATOM      5  N   UNL     1       2.198   5.486  -2.143  0.00  0.00    -0.272 N 
ENDROOT
BRANCH   5   6
ATOM      6  C   UNL     1       2.807   4.300  -1.706  0.00  0.00    +0.053 A 
ATOM      7  C   UNL     1       2.192   3.077  -1.935  0.00  0.00    +0.026 A 
ATOM      8  C   UNL     1       2.795   1.911  -1.503  0.00  0.00    +0.002 A 
ATOM      9  C   UNL     1       4.009   1.962  -0.843  0.00  0.00    +0.000 A 
ATOM     10  C   UNL     1       4.623   3.179  -0.614  0.00  0.00    +0.005 A 
ATOM     11  C   UNL     1       4.029   4.348  -1.048  0.00  0.00    -0.027 A 
ATOM     12  C   UNL     1       4.702   5.673  -0.803  0.00  0.00    +0.046 C 
ENDBRANCH   5   6
BRANCH   1  13
ATOM     13  S   UNL     1       3.038   5.326  -4.810  0.00  0.00    -0.078 S 
BRANCH  13  14
ATOM     14  C   UNL     1       2.624   6.574  -6.053  0.00  0.00    +0.152 C 
BRANCH  14  15
ATOM     15  C   UNL     1       3.232   6.186  -7.376  0.00  0.00    +0.154 C 
ATOM     16  O   UNL     1       3.879   5.170  -7.469  0.00  0.00    -0.296 OA
BRANCH  15  17
ATOM     17  C   UNL     1       3.034   7.066  -8.584  0.00  0.00    +0.195 C 
BRANCH  17  18
ATOM     18  C   UNL     1       3.738   6.458  -9.770  0.00  0.00    +0.314 C 
ATOM     19  O   UNL     1       4.339   5.417  -9.647  0.00  0.00    -0.250 OA
BRANCH  18  20
ATOM     20  O   UNL     1       3.697   7.072 -10.962  0.00  0.00    -0.465 OA
BRANCH  20  22
ATOM     21  C   UNL     1       4.239   7.270 -13.328  0.00  0.00    +0.048 C 
ATOM     22  C   UNL     1       4.397   6.429 -12.059  0.00  0.00    +0.229 C 
ENDBRANCH  20  22
ENDBRANCH  18  20
ENDBRANCH  17  18
ENDBRANCH  15  17
ENDBRANCH  14  15
ENDBRANCH  13  14
ENDBRANCH   1  13
BRANCH   4  23
ATOM     23  C   UNL     1       1.122   6.223   0.069  0.00  0.00    +0.202 C 
BRANCH  23  24
ATOM     24  N   UNL     1      -0.193   5.594   0.220  0.00  0.00    -0.294 N 
ATOM     25  C   UNL     1      -0.277   4.238   0.490  0.00  0.00    +0.060 A 
ATOM     26  C   UNL     1       0.780   3.327   0.651  0.00  0.00    +0.027 A 
ATOM     27  C   UNL     1       0.535   2.002   0.919  0.00  0.00    +0.002 A 
ATOM     28  C   UNL     1      -0.758   1.520   1.040  0.00  0.00    +0.001 A 
ATOM     29  C   UNL     1      -1.819   2.394   0.881  0.00  0.00    +0.017 A 
ATOM     30  C   UNL     1      -1.574   3.720   0.618  0.00  0.00    +0.041 A 
ATOM     31  S   UNL     1      -2.605   5.143   0.356  0.00  0.00    -0.027 S 
ATOM     32  C   UNL     1      -1.307   6.340   0.093  0.00  0.00    +0.292 A 
ATOM     33  O   UNL     1      -1.405   7.531  -0.141  0.00  0.00    -0.259 OA
ENDBRANCH  23  24
ENDBRANCH   4  23
TORSDOF 10
