REMARK  Name = ZINC44962843
REMARK  8 active torsions:
REMARK  status: ('A' for Active; 'I' for Inactive)
REMARK    1  A    between atoms: C_1  and  C_2
REMARK    2  A    between atoms: C_4  and  O_35
REMARK    3  A    between atoms: C_14  and  C_20
REMARK    4  A    between atoms: C_16  and  C_18
REMARK    5  A    between atoms: C_16  and  C_19
REMARK    6  A    between atoms: C_20  and  C_22
REMARK    7  A    between atoms: C_22  and  O_23
REMARK    8  A    between atoms: C_32  and  C_33
REMARK                            x       y       z     vdW  Elec       q    Type
REMARK                         _______ _______ _______ _____ _____    ______ ____
ROOT
ATOM      1  C   UNL     1       0.562   1.402   0.569  0.00  0.00    +0.015 C 
ATOM      2  C   UNL     1       0.463  -0.110   0.357  0.00  0.00    +0.013 C 
ATOM      3  C   UNL     1      -0.992  -0.584   0.370  0.00  0.00    +0.045 C 
ATOM      4  C   UNL     1      -1.571  -0.558   1.783  0.00  0.00    +0.154 C 
ATOM      5  C   UNL     1      -0.754  -1.517   2.652  0.00  0.00    +0.156 C 
ATOM      6  C   UNL     1       0.674  -0.983   2.732  0.00  0.00    +0.056 C 
ATOM      7  C   UNL     1       1.306  -0.884   1.388  0.00  0.00    +0.011 C 
ATOM      8  C   UNL     1       1.490  -2.266   0.735  0.00  0.00    +0.040 C 
ATOM      9  C   UNL     1       1.715  -1.935  -0.757  0.00  0.00    +0.162 C 
ATOM     10  C   UNL     1       1.085  -0.540  -0.998  0.00  0.00    +0.164 C 
ATOM     11  O   UNL     1       0.009  -0.779  -1.929  0.00  0.00    -0.332 OA
ATOM     12  C   UNL     1       0.365  -2.009  -2.597  0.00  0.00    +0.166 C 
ATOM     13  O   UNL     1       0.944  -2.853  -1.558  0.00  0.00    -0.343 OA
ATOM     14  C   UNL     1      -0.878  -2.670  -3.194  0.00  0.00    +0.074 C 
ATOM     15  C   UNL     1       1.405  -1.742  -3.687  0.00  0.00    +0.074 C 
ATOM     16  C   UNL     1       1.504  -1.760   3.702  0.00  0.00    -0.020 C 
ATOM     17  C   UNL     1       0.979  -2.485   4.689  0.00  0.00    +0.001 C 
ATOM     18  C   UNL     1      -0.478  -2.563   4.852  0.00  0.00    -0.031 C 
ATOM     19  C   UNL     1      -1.010  -3.471   5.695  0.00  0.00    +0.055 C 
ATOM     20  C   UNL     1      -2.462  -3.630   5.782  0.00  0.00    +0.179 C 
ATOM     21  O   UNL     1      -2.958  -4.377   6.607  0.00  0.00    -0.288 OA
ATOM     22  C   UNL     1      -3.312  -2.867   4.850  0.00  0.00    +0.047 C 
ATOM     23  C   UNL     1      -2.774  -1.950   4.062  0.00  0.00    -0.009 C 
ATOM     24  C   UNL     1      -1.333  -1.592   4.063  0.00  0.00    +0.048 C 
ATOM     25  C   UNL     1      -1.201  -0.204   4.694  0.00  0.00    +0.024 C 
ATOM     26  F   UNL     1      -0.757  -2.792   2.075  0.00  0.00    -0.237 F 
ENDROOT
BRANCH  10  27
ATOM     27  C   UNL     1       2.088   0.461  -1.510  0.00  0.00    +0.193 C 
ATOM     28  O   UNL     1       3.247   0.376  -1.184  0.00  0.00    -0.292 OA
BRANCH  27  29
ATOM     29  C   UNL     1       1.643   1.570  -2.429  0.00  0.00    +0.233 C 
BRANCH  29  30
ATOM     30  O   UNL     1       2.742   2.448  -2.683  0.00  0.00    -0.387 OA
ATOM     31  H   UNL     1       2.528   3.187  -3.268  0.00  0.00    +0.210 HD
ENDBRANCH  29  30
ENDBRANCH  27  29
ENDBRANCH  10  27
BRANCH   4  32
ATOM     32  O   UNL     1      -1.488   0.766   2.314  0.00  0.00    -0.389 OA
ATOM     33  H   UNL     1      -1.970   1.427   1.798  0.00  0.00    +0.210 HD
ENDBRANCH   4  32
TORSDOF 4
