REMARK  Name = ZINC01109283
REMARK  10 active torsions:
REMARK  status: ('A' for Active; 'I' for Inactive)
REMARK    1  A    between atoms: C_1  and  C_2
REMARK    2  A    between atoms: C_5  and  S_8
REMARK    3  A    between atoms: S_8  and  N_11
REMARK    4  A    between atoms: N_11  and  C_12
REMARK    5  A    between atoms: N_11  and  C_30
REMARK    6  A    between atoms: C_12  and  C_13
REMARK    7  A    between atoms: C_13  and  C_15
REMARK    8  A    between atoms: C_13  and  O_29
REMARK    9  A    between atoms: C_15  and  N_16
REMARK   10  A    between atoms: C_30  and  C_31
REMARK                            x       y       z     vdW  Elec       q    Type
REMARK                         _______ _______ _______ _____ _____    ______ ____
ROOT
ATOM      1  C   UNL     1       2.427   4.559   2.285  0.00  0.00    +0.143 C 
ENDROOT
BRANCH   1   2
ATOM      2  N   UNL     1       1.155   4.329   1.596  0.00  0.00    -0.165 NA
BRANCH   2   3
ATOM      3  S   UNL     1       1.147   3.847   0.011  0.00  0.00    +0.061 S 
ATOM      4  O   UNL     1       2.382   4.273  -0.549  0.00  0.00    -0.153 OA
ATOM      5  O   UNL     1      -0.109   4.239  -0.526  0.00  0.00    -0.153 OA
BRANCH   3  10
ATOM      6  C   UNL     1       1.229  -2.186  -0.022  0.00  0.00    +0.044 C 
ATOM      7  C   UNL     1       1.208  -0.679  -0.014  0.00  0.00    -0.050 A 
ATOM      8  C   UNL     1       0.002  -0.004   0.002  0.00  0.00    +0.005 A 
ATOM      9  C   UNL     1      -0.017   1.378   0.010  0.00  0.00    +0.029 A 
ATOM     10  C   UNL     1       1.171   2.086   0.002  0.00  0.00    +0.106 A 
ATOM     11  C   UNL     1       2.377   1.411  -0.014  0.00  0.00    +0.029 A 
ATOM     12  C   UNL     1       2.396   0.029  -0.021  0.00  0.00    +0.005 A 
ENDBRANCH   3  10
ENDBRANCH   2   3
BRANCH   2  13
ATOM     13  C   UNL     1      -0.110   4.525   2.308  0.00  0.00    +0.205 C 
BRANCH  13  14
ATOM     14  C   UNL     1      -0.459   3.270   3.066  0.00  0.00    +0.226 C 
ATOM     15  O   UNL     1       0.277   2.307   3.016  0.00  0.00    -0.275 OA
ATOM     16  N   UNL     1      -1.588   3.217   3.800  0.00  0.00    -0.328 N 
ATOM     17  H   UNL     1      -2.176   3.988   3.840  0.00  0.00    +0.145 HD
ATOM     18  H   UNL     1      -1.813   2.410   4.287  0.00  0.00    +0.145 HD
ENDBRANCH  13  14
ENDBRANCH   2  13
ENDBRANCH   1   2
BRANCH   1  19
ATOM     19  C   UNL     1       2.785   6.045   2.212  0.00  0.00    +0.150 C 
BRANCH  19  20
ATOM     20  O   UNL     1       1.818   6.804   2.940  0.00  0.00    -0.389 OA
ATOM     21  H   UNL     1       1.759   6.571   3.876  0.00  0.00    +0.210 HD
ENDBRANCH  19  20
BRANCH  19  22
ATOM     22  C   UNL     1       4.171   6.266   2.821  0.00  0.00    +0.155 C 
BRANCH  22  23
ATOM     23  N   UNL     1       4.565   7.666   2.644  0.00  0.00    -0.337 N 
ATOM     24  C   UNL     1       5.261   8.160   1.556  0.00  0.00    +0.050 A 
ATOM     25  C   UNL     1       5.758   7.553   0.406  0.00  0.00    +0.026 A 
ATOM     26  C   UNL     1       6.429   8.302  -0.535  0.00  0.00    +0.002 A 
ATOM     27  C   UNL     1       6.618   9.663  -0.350  0.00  0.00    +0.001 A 
ATOM     28  C   UNL     1       6.128  10.284   0.778  0.00  0.00    +0.010 A 
ATOM     29  C   UNL     1       5.451   9.538   1.740  0.00  0.00    +0.008 A 
ATOM     30  C   UNL     1       4.828   9.876   3.033  0.00  0.00    +0.008 A 
ATOM     31  C   UNL     1       4.298   8.682   3.544  0.00  0.00    +0.050 A 
ATOM     32  C   UNL     1       3.642   8.699   4.771  0.00  0.00    +0.026 A 
ATOM     33  C   UNL     1       3.518   9.880   5.471  0.00  0.00    +0.002 A 
ATOM     34  C   UNL     1       4.042  11.059   4.965  0.00  0.00    +0.001 A 
ATOM     35  C   UNL     1       4.695  11.062   3.751  0.00  0.00    +0.010 A 
ENDBRANCH  22  23
ENDBRANCH  19  22
ENDBRANCH   1  19
TORSDOF 9
