REMARK  Name = ZINC22838736
REMARK  10 active torsions:
REMARK  status: ('A' for Active; 'I' for Inactive)
REMARK    1  A    between atoms: C_1  and  C_2
REMARK    2  A    between atoms: C_5  and  C_8
REMARK    3  A    between atoms: C_13  and  C_18
REMARK    4  A    between atoms: C_20  and  O_28
REMARK    5  A    between atoms: C_21  and  O_26
REMARK    6  A    between atoms: C_22  and  O_24
REMARK    7  A    between atoms: O_24  and  C_25
REMARK    8  A    between atoms: O_26  and  C_27
REMARK    9  A    between atoms: O_28  and  C_29
REMARK   10  A    between atoms: C_34  and  C_36
REMARK                            x       y       z     vdW  Elec       q    Type
REMARK                         _______ _______ _______ _____ _____    ______ ____
ROOT
ATOM      1  C   UNL     1      -1.293  -0.775   0.011  0.00  0.00    +0.175 C 
ATOM      2  C   UNL     1      -1.377  -1.628  -1.236  0.00  0.00    +0.041 C 
ATOM      3  C   UNL     1      -1.213  -2.968  -1.202  0.00  0.00    +0.020 C 
ATOM      4  C   UNL     1      -1.309  -3.794  -2.463  0.00  0.00    +0.060 C 
ATOM      5  C   UNL     1      -0.840  -2.964  -3.659  0.00  0.00    +0.032 C 
ATOM      6  C   UNL     1      -1.717  -1.711  -3.750  0.00  0.00    +0.088 C 
ATOM      7  C   UNL     1      -1.636  -0.964  -2.449  0.00  0.00    +0.164 C 
ATOM      8  O   UNL     1      -1.797   0.241  -2.444  0.00  0.00    -0.292 OA
ATOM      9  N   UNL     1      -0.960  -3.637  -0.028  0.00  0.00    -0.287 N 
ATOM     10  C   UNL     1      -1.179  -2.965   1.164  0.00  0.00    +0.219 A 
ATOM     11  N   UNL     1      -1.345  -1.620   1.197  0.00  0.00    -0.220 N 
ATOM     12  N   UNL     1      -1.554  -1.279   2.533  0.00  0.00    -0.143 NA
ATOM     13  C   UNL     1      -1.503  -2.394   3.219  0.00  0.00    +0.256 A 
ATOM     14  N   UNL     1      -1.274  -3.414   2.385  0.00  0.00    -0.189 NA
ATOM     15  H   UNL     1      -0.595  -4.674  -0.054  0.00  0.00    +0.155 HD
ENDROOT
BRANCH   1  20
ATOM     16  C   UNL     1       3.672   2.182  -0.024  0.00  0.00    +0.044 C 
ATOM     17  C   UNL     1       2.377   1.411  -0.015  0.00  0.00    -0.050 A 
ATOM     18  C   UNL     1       1.171   2.086   0.002  0.00  0.00    +0.004 A 
ATOM     19  C   UNL     1      -0.017   1.378   0.010  0.00  0.00    +0.006 A 
ATOM     20  C   UNL     1       0.002  -0.004   0.002  0.00  0.00    -0.018 A 
ATOM     21  C   UNL     1       1.208  -0.679  -0.013  0.00  0.00    +0.006 A 
ATOM     22  C   UNL     1       2.396   0.029  -0.022  0.00  0.00    +0.004 A 
ENDBRANCH   1  20
BRANCH   5  23
ATOM     23  C   UNL     1      -0.976  -3.773  -4.924  0.00  0.00    -0.036 A 
ATOM     24  C   UNL     1      -2.213  -4.265  -5.297  0.00  0.00    +0.053 A 
ATOM     25  C   UNL     1      -2.344  -5.005  -6.462  0.00  0.00    +0.165 A 
ATOM     26  C   UNL     1      -1.228  -5.260  -7.250  0.00  0.00    +0.204 A 
ATOM     27  C   UNL     1       0.015  -4.768  -6.869  0.00  0.00    +0.165 A 
ATOM     28  C   UNL     1       0.136  -4.024  -5.704  0.00  0.00    +0.053 A 
BRANCH  27  29
ATOM     29  O   UNL     1       1.110  -5.015  -7.636  0.00  0.00    -0.491 OA
ATOM     30  C   UNL     1       2.354  -4.478  -7.183  0.00  0.00    +0.277 C 
ENDBRANCH  27  29
BRANCH  26  31
ATOM     31  O   UNL     1      -1.351  -5.989  -8.393  0.00  0.00    -0.488 OA
ATOM     32  C   UNL     1      -1.189  -7.404  -8.280  0.00  0.00    +0.277 C 
ENDBRANCH  26  31
BRANCH  25  33
ATOM     33  O   UNL     1      -3.562  -5.484  -6.832  0.00  0.00    -0.491 OA
ATOM     34  C   UNL     1      -4.665  -5.183  -5.974  0.00  0.00    +0.277 C 
ENDBRANCH  25  33
ENDBRANCH   5  23
BRANCH  13  35
ATOM     35  C   UNL     1      -1.675  -2.509   4.712  0.00  0.00    +0.454 C 
ATOM     36  F   UNL     1      -2.939  -3.037   4.997  0.00  0.00    -0.163 F 
ATOM     37  F   UNL     1      -0.689  -3.355   5.231  0.00  0.00    -0.163 F 
ATOM     38  F   UNL     1      -1.556  -1.243   5.294  0.00  0.00    -0.163 F 
ENDBRANCH  13  35
TORSDOF 6
