REMARK  Name = ZINC64571254
REMARK  4 active torsions:
REMARK  status: ('A' for Active; 'I' for Inactive)
REMARK    1  A    between atoms: C_2  and  C_3
REMARK    2  A    between atoms: C_3  and  N_4
REMARK    3  A    between atoms: C_8  and  C_10
REMARK    4  A    between atoms: C_10  and  N_11
REMARK                            x       y       z     vdW  Elec       q    Type
REMARK                         _______ _______ _______ _____ _____    ______ ____
ROOT
ATOM      1  C   UNL     1       3.644  -5.042   3.680  0.00  0.00    +0.019 C 
ENDROOT
BRANCH   1   2
ATOM      2  N   UNL     1       4.926  -5.759   3.664  0.00  0.00    +0.386 N 
ATOM      3  C   UNL     1       5.012  -6.562   2.443  0.00  0.00    -0.077 C 
ATOM      4  C   UNL     1       6.077  -7.645   2.447  0.00  0.00    -0.003 C 
ATOM      5  C   UNL     1       7.385  -7.104   3.061  0.00  0.00    +0.083 C 
ATOM      6  N   UNL     1       7.351  -7.401   4.469  0.00  0.00    -0.301 NA
ATOM      7  C   UNL     1       8.591  -7.636   5.201  0.00  0.00    +0.084 C 
ATOM      8  C   UNL     1       8.195  -7.589   6.700  0.00  0.00    +0.017 C 
ATOM      9  C   UNL     1       6.671  -7.279   6.707  0.00  0.00    +0.018 C 
ATOM     10  C   UNL     1       6.463  -6.657   5.312  0.00  0.00    +0.040 C 
ATOM     11  C   UNL     1       5.020  -6.610   4.866  0.00  0.00    -0.059 C 
ATOM     12  H   UNL     1       5.680  -5.089   3.673  0.00  0.00    -0.081 HD
ENDBRANCH   1   2
BRANCH   1  17
ATOM     13  N   UNL     1       1.367  -1.676   1.111  0.00  0.00    -0.296 N 
ATOM     14  C   UNL     1       2.457  -2.447   1.299  0.00  0.00    +0.306 C 
ATOM     15  O   UNL     1       3.397  -2.366   0.533  0.00  0.00    -0.252 OA
ATOM     16  N   UNL     1       2.503  -3.308   2.335  0.00  0.00    -0.242 N 
ATOM     17  C   UNL     1       3.592  -4.079   2.522  0.00  0.00    +0.204 C 
ATOM     18  O   UNL     1       4.531  -3.998   1.758  0.00  0.00    -0.277 OA
ATOM     19  H   UNL     1       0.617  -1.740   1.722  0.00  0.00    +0.151 HD
ATOM     20  H   UNL     1       1.752  -3.372   2.945  0.00  0.00    +0.159 HD
BRANCH  13  21
ATOM     21  C   UNL     1       1.317  -0.740  -0.015  0.00  0.00    +0.132 C 
BRANCH  21  23
ATOM     22  C   UNL     1      -0.016   1.306   0.009  0.00  0.00    +0.005 C 
ATOM     23  C   UNL     1       0.002  -0.004   0.002  0.00  0.00    -0.016 C 
ENDBRANCH  21  23
ENDBRANCH  13  21
ENDBRANCH   1  17
TORSDOF 4
