REMARK  Name = ZINC64592985
REMARK  7 active torsions:
REMARK  status: ('A' for Active; 'I' for Inactive)
REMARK    1  A    between atoms: C_1  and  C_2
REMARK    2  A    between atoms: C_5  and  N_9
REMARK    3  A    between atoms: C_6  and  C_8
REMARK    4  A    between atoms: C_10  and  C_12
REMARK    5  A    between atoms: C_12  and  S_13
REMARK    6  A    between atoms: S_13  and  C_14
REMARK    7  A    between atoms: N_21  and  C_24
REMARK                            x       y       z     vdW  Elec       q    Type
REMARK                         _______ _______ _______ _____ _____    ______ ____
ROOT
ATOM      1  C   UNL     1      -0.355  -8.692  -2.728  0.00  0.00    +0.197 A 
ATOM      2  N   UNL     1      -0.341  -9.373  -1.595  0.00  0.00    -0.122 NA
ATOM      3  N   UNL     1      -0.426 -10.635  -1.836  0.00  0.00    -0.123 NA
ATOM      4  C   UNL     1      -0.500 -10.833  -3.132  0.00  0.00    +0.227 A 
ATOM      5  N   UNL     1      -0.462  -9.591  -3.737  0.00  0.00    -0.272 N 
ATOM      6  C   UNL     1      -0.530  -9.498  -5.117  0.00  0.00    +0.113 A 
ATOM      7  C   UNL     1      -0.634 -10.584  -5.871  0.00  0.00    +0.113 A 
ATOM      8  N   UNL     1      -0.680 -11.855  -5.320  0.00  0.00    -0.280 N 
ATOM      9  C   UNL     1      -0.609 -12.022  -3.981  0.00  0.00    +0.301 A 
ATOM     10  O   UNL     1      -0.651 -13.136  -3.490  0.00  0.00    -0.263 OA
ENDROOT
BRANCH   8  11
ATOM     11  C   UNL     1      -0.791 -12.971  -6.155  0.00  0.00    +0.052 A 
ATOM     12  C   UNL     1       0.241 -13.293  -7.027  0.00  0.00    +0.026 A 
ATOM     13  C   UNL     1       0.130 -14.396  -7.851  0.00  0.00    +0.005 A 
ATOM     14  C   UNL     1      -1.008 -15.180  -7.810  0.00  0.00    +0.038 A 
ATOM     15  C   UNL     1      -2.040 -14.863  -6.942  0.00  0.00    +0.125 A 
ATOM     16  C   UNL     1      -1.931 -13.763  -6.110  0.00  0.00    +0.064 A 
ATOM     17  F   UNL     1      -3.151 -15.630  -6.905  0.00  0.00    -0.205 F 
ENDBRANCH   8  11
BRANCH   1  18
ATOM     18  S   UNL     1      -0.261  -6.940  -2.895  0.00  0.00    -0.076 S 
BRANCH  18  19
ATOM     19  C   UNL     1      -0.134  -6.343  -1.187  0.00  0.00    +0.173 C 
BRANCH  19  21
ATOM     20  N   UNL     1       0.057  -4.170  -0.021  0.00  0.00    -0.285 N 
ATOM     21  C   UNL     1      -0.045  -4.838  -1.187  0.00  0.00    +0.227 C 
ATOM     22  O   UNL     1      -0.065  -4.229  -2.235  0.00  0.00    -0.275 OA
ATOM     23  H   UNL     1       0.137  -4.658   0.813  0.00  0.00    +0.155 HD
BRANCH  20  28
ATOM     24  C   UNL     1       0.013   1.503   0.007  0.00  0.00    +0.044 C 
ATOM     25  C   UNL     1       0.025  -0.004  -0.000  0.00  0.00    -0.050 A 
ATOM     26  C   UNL     1       0.619  -0.684  -1.047  0.00  0.00    +0.005 A 
ATOM     27  C   UNL     1       0.631  -2.065  -1.057  0.00  0.00    +0.024 A 
ATOM     28  C   UNL     1       0.046  -2.770  -0.014  0.00  0.00    +0.036 A 
ATOM     29  C   UNL     1      -0.549  -2.084   1.036  0.00  0.00    -0.029 A 
ATOM     30  C   UNL     1      -0.554  -0.703   1.043  0.00  0.00    +0.008 A 
ATOM     31  C   UNL     1      -1.185  -2.846   2.171  0.00  0.00    +0.045 C 
ENDBRANCH  20  28
ENDBRANCH  19  21
ENDBRANCH  18  19
ENDBRANCH   1  18
TORSDOF 5
