REMARK  Name = ZINC63140362
REMARK  8 active torsions:
REMARK  status: ('A' for Active; 'I' for Inactive)
REMARK    1  A    between atoms: C_1  and  C_2
REMARK    2  A    between atoms: C_2  and  C_3
REMARK    3  A    between atoms: C_3  and  C_4
REMARK    4  A    between atoms: C_4  and  N_5
REMARK    5  A    between atoms: C_25  and  C_27
REMARK    6  A    between atoms: C_32  and  O_33
REMARK    7  A    between atoms: O_33  and  C_34
REMARK    8  A    between atoms: C_34  and  C_35
REMARK                            x       y       z     vdW  Elec       q    Type
REMARK                         _______ _______ _______ _____ _____    ______ ____
ROOT
ATOM      1  N   UNL     1       1.846  -2.258  -2.362  0.00  0.00    -0.291 N 
ATOM      2  C   UNL     1       0.924  -2.528  -3.452  0.00  0.00    +0.203 C 
ATOM      3  C   UNL     1       1.613  -3.102  -4.645  0.00  0.00    +0.234 C 
ATOM      4  O   UNL     1       0.934  -3.368  -5.615  0.00  0.00    -0.274 OA
ATOM      5  N   UNL     1       2.927  -3.345  -4.721  0.00  0.00    -0.279 N 
ATOM      6  C   UNL     1       3.847  -3.051  -3.628  0.00  0.00    +0.167 C 
ATOM      7  C   UNL     1       3.157  -2.482  -2.432  0.00  0.00    +0.237 C 
ATOM      8  O   UNL     1       3.832  -2.212  -1.462  0.00  0.00    -0.274 OA
ATOM      9  C   UNL     1       4.935  -2.072  -4.106  0.00  0.00    +0.065 C 
ATOM     10  C   UNL     1       5.421  -2.586  -5.438  0.00  0.00    -0.034 C 
ATOM     11  C   UNL     1       6.643  -2.836  -5.893  0.00  0.00    -0.001 A 
ATOM     12  C   UNL     1       7.973  -2.598  -5.310  0.00  0.00    +0.010 A 
ATOM     13  C   UNL     1       9.035  -3.005  -6.055  0.00  0.00    +0.001 A 
ATOM     14  C   UNL     1       8.909  -3.616  -7.306  0.00  0.00    +0.002 A 
ATOM     15  C   UNL     1       7.725  -3.864  -7.923  0.00  0.00    +0.026 A 
ATOM     16  C   UNL     1       6.536  -3.474  -7.241  0.00  0.00    +0.043 A 
ATOM     17  N   UNL     1       5.290  -3.568  -7.602  0.00  0.00    -0.375 N 
ATOM     18  C   UNL     1       4.462  -2.952  -6.565  0.00  0.00    +0.131 C 
ATOM     19  C   UNL     1       3.449  -3.936  -5.974  0.00  0.00    +0.137 C 
ATOM     20  H   UNL     1       4.966  -3.978  -8.419  0.00  0.00    +0.160 HD
ENDROOT
BRANCH  19  21
ATOM     21  C   UNL     1       4.127  -5.249  -5.676  0.00  0.00    +0.017 A 
ATOM     22  C   UNL     1       5.182  -5.296  -4.785  0.00  0.00    +0.009 A 
ATOM     23  C   UNL     1       5.804  -6.499  -4.511  0.00  0.00    +0.001 A 
ATOM     24  C   UNL     1       5.373  -7.660  -5.128  0.00  0.00    +0.004 A 
ATOM     25  C   UNL     1       4.318  -7.618  -6.019  0.00  0.00    +0.046 A 
ATOM     26  C   UNL     1       3.688  -6.412  -6.291  0.00  0.00    +0.125 A 
BRANCH  26  27
ATOM     27  O   UNL     1       2.647  -6.370  -7.163  0.00  0.00    -0.492 OA
BRANCH  27  28
ATOM     28  C   UNL     1       2.249  -7.606  -7.759  0.00  0.00    +0.225 C 
ATOM     29  C   UNL     1       1.070  -7.361  -8.704  0.00  0.00    +0.048 C 
ENDBRANCH  27  28
ENDBRANCH  26  27
ENDBRANCH  19  21
BRANCH   1  30
ATOM     30  C   UNL     1       1.304  -1.702  -1.119  0.00  0.00    +0.108 C 
BRANCH  30  31
ATOM     31  C   UNL     1       1.317  -0.174  -1.195  0.00  0.00    +0.019 C 
BRANCH  31  33
ATOM     32  C   UNL     1       0.765   1.934   0.027  0.00  0.00    +0.004 C 
ATOM     33  C   UNL     1       0.752   0.406   0.103  0.00  0.00    -0.002 C 
ENDBRANCH  31  33
ENDBRANCH  30  31
ENDBRANCH   1  30
TORSDOF 6
