REMARK  Name = ZINC40510261
REMARK  6 active torsions:
REMARK  status: ('A' for Active; 'I' for Inactive)
REMARK    1  A    between atoms: C_1  and  C_2
REMARK    2  A    between atoms: C_4  and  C_21
REMARK    3  A    between atoms: C_7  and  C_8
REMARK    4  A    between atoms: C_8  and  N_10
REMARK    5  A    between atoms: N_11  and  C_12
REMARK    6  A    between atoms: C_17  and  C_20
REMARK                            x       y       z     vdW  Elec       q    Type
REMARK                         _______ _______ _______ _____ _____    ______ ____
ROOT
ATOM      1  C   UNL     1      -0.015   1.499   0.087  0.00  0.00    +0.044 C 
ATOM      2  C   UNL     1       0.002  -0.007   0.039  0.00  0.00    -0.036 A 
ATOM      3  C   UNL     1      -0.110  -0.679  -1.166  0.00  0.00    +0.025 A 
ATOM      4  C   UNL     1      -0.091  -2.062  -1.179  0.00  0.00    +0.015 A 
ATOM      5  N   UNL     1       0.030  -2.755  -0.063  0.00  0.00    -0.347 N 
ATOM      6  C   UNL     1       0.140  -2.164   1.117  0.00  0.00    +0.106 A 
ATOM      7  C   UNL     1       0.136  -0.761   1.211  0.00  0.00    +0.044 A 
ATOM      8  N   UNL     1       0.264  -2.930   2.262  0.00  0.00    -0.327 N 
ATOM      9  C   UNL     1      -0.212  -2.791  -2.492  0.00  0.00    +0.063 C 
ATOM     10  H   UNL     1       0.267  -2.503   3.133  0.00  0.00    +0.148 HD
ATOM     11  H   UNL     1       0.038  -3.724  -0.107  0.00  0.00    +0.167 HD
ENDROOT
BRANCH   8  12
ATOM     12  C   UNL     1       0.393  -4.385   2.159  0.00  0.00    +0.072 C 
ATOM     13  C   UNL     1      -0.999  -5.015   2.066  0.00  0.00    +0.022 C 
ATOM     14  C   UNL     1      -1.803  -4.661   3.319  0.00  0.00    +0.002 C 
ATOM     15  C   UNL     1      -1.082  -5.198   4.556  0.00  0.00    +0.003 C 
ATOM     16  C   UNL     1       0.310  -4.569   4.649  0.00  0.00    -0.012 C 
ATOM     17  C   UNL     1       1.114  -4.923   3.396  0.00  0.00    +0.025 C 
ATOM     18  C   UNL     1       1.031  -5.106   5.887  0.00  0.00    +0.007 C 
ENDBRANCH   8  12
BRANCH   7  19
ATOM     19  C   UNL     1       0.263  -0.096   2.519  0.00  0.00    +0.080 C 
ATOM     20  S   UNL     1       1.799   0.423   3.069  0.00  0.00    -0.035 S 
BRANCH  19  21
ATOM     21  N   UNL     1      -0.829   0.103   3.283  0.00  0.00    -0.352 N 
ATOM     22  H   UNL     1      -1.708  -0.124   2.942  0.00  0.00    +0.143 HD
ATOM     23  H   UNL     1      -0.736   0.474   4.174  0.00  0.00    +0.143 HD
ENDBRANCH  19  21
ENDBRANCH   7  19
TORSDOF 3
