REMARK  Name = ZINC09960477
REMARK  6 active torsions:
REMARK  status: ('A' for Active; 'I' for Inactive)
REMARK    1  A    between atoms: C_1  and  C_2
REMARK    2  A    between atoms: C_2  and  C_4
REMARK    3  A    between atoms: C_2  and  O_21
REMARK    4  A    between atoms: C_10  and  C_15
REMARK    5  A    between atoms: O_21  and  C_22
REMARK    6  A    between atoms: C_22  and  C_24
REMARK                            x       y       z     vdW  Elec       q    Type
REMARK                         _______ _______ _______ _____ _____    ______ ____
ROOT
ATOM      1  C   UNL     1      -2.349   5.412   0.425  0.00  0.00    +0.060 C 
ATOM      2  C   UNL     1      -2.553   3.943   0.047  0.00  0.00    +0.239 C 
ENDROOT
BRANCH   2   3
ATOM      3  C   UNL     1      -1.220   3.239   0.031  0.00  0.00    +0.152 A 
ATOM      4  N   UNL     1      -1.183   1.882   0.018  0.00  0.00    -0.307 N 
ATOM      5  H   UNL     1      -2.015   1.384   0.019  0.00  0.00    +0.170 HD
ATOM      6  C   UNL     1      -0.015   1.215   0.009  0.00  0.00    +0.260 A 
ATOM      7  O   UNL     1       0.002  -0.004   0.002  0.00  0.00    -0.267 OA
ATOM      8  C   UNL     1       1.209   1.958   0.001  0.00  0.00    +0.080 A 
ATOM      9  C   UNL     1       2.584   1.473  -0.015  0.00  0.00    +0.004 A 
ATOM     10  C   UNL     1       3.594   2.376  -0.020  0.00  0.00    +0.056 A 
ATOM     11  S   UNL     1       2.745   3.943  -0.004  0.00  0.00    -0.076 S 
ATOM     12  C   UNL     1       1.071   3.356   0.009  0.00  0.00    +0.116 A 
ATOM     13  N   UNL     1      -0.121   3.945   0.024  0.00  0.00    -0.223 NA
BRANCH   9  14
ATOM     14  C   UNL     1       2.871   0.018  -0.025  0.00  0.00    -0.017 A 
ATOM     15  C   UNL     1       2.259  -0.822   0.904  0.00  0.00    +0.008 A 
ATOM     16  C   UNL     1       2.526  -2.176   0.886  0.00  0.00    +0.001 A 
ATOM     17  C   UNL     1       3.408  -2.698  -0.044  0.00  0.00    +0.000 A 
ATOM     18  C   UNL     1       4.022  -1.867  -0.965  0.00  0.00    +0.001 A 
ATOM     19  C   UNL     1       3.758  -0.513  -0.960  0.00  0.00    +0.008 A 
ENDBRANCH   9  14
ENDBRANCH   2   3
BRANCH   2  20
ATOM     20  O   UNL     1      -3.159   3.863  -1.270  0.00  0.00    -0.452 OA
BRANCH  20  21
ATOM     21  C   UNL     1      -4.500   3.851  -1.324  0.00  0.00    +0.343 C 
ATOM     22  O   UNL     1      -5.146   3.907  -0.305  0.00  0.00    -0.247 OA
BRANCH  21  23
ATOM     23  C   UNL     1      -5.200   3.769  -2.656  0.00  0.00    +0.190 C 
ATOM     24  C   UNL     1      -4.774   2.550  -3.488  0.00  0.00    +0.059 C 
ATOM     25  C   UNL     1      -5.800   1.502  -2.987  0.00  0.00    +0.100 C 
ATOM     26  C   UNL     1      -6.991   2.325  -2.549  0.00  0.00    +0.221 C 
ATOM     27  O   UNL     1      -8.073   1.872  -2.243  0.00  0.00    -0.275 OA
ATOM     28  N   UNL     1      -6.674   3.646  -2.547  0.00  0.00    -0.245 N 
ATOM     29  C   UNL     1      -7.345   4.886  -2.563  0.00  0.00    +0.052 A 
ATOM     30  C   UNL     1      -8.634   5.130  -2.064  0.00  0.00    +0.025 A 
ATOM     31  C   UNL     1      -9.197   6.383  -2.139  0.00  0.00    +0.002 A 
ATOM     32  C   UNL     1      -8.512   7.442  -2.707  0.00  0.00    +0.001 A 
ATOM     33  C   UNL     1      -7.237   7.231  -3.205  0.00  0.00    +0.016 A 
ATOM     34  C   UNL     1      -6.675   5.979  -3.126  0.00  0.00    +0.032 A 
ATOM     35  S   UNL     1      -5.070   5.312  -3.641  0.00  0.00    -0.086 S 
ENDBRANCH  21  23
ENDBRANCH  20  21
ENDBRANCH   2  20
TORSDOF 5
