REMARK  Name = ZINC12040415
REMARK  12 active torsions:
REMARK  status: ('A' for Active; 'I' for Inactive)
REMARK    1  A    between atoms: C_1  and  C_2
REMARK    2  A    between atoms: C_2  and  C_3
REMARK    3  A    between atoms: C_2  and  C_4
REMARK    4  A    between atoms: C_4  and  C_5
REMARK    5  A    between atoms: C_5  and  C_6
REMARK    6  A    between atoms: C_6  and  C_17
REMARK    7  A    between atoms: N_9  and  C_13
REMARK    8  A    between atoms: C_13  and  C_14
REMARK    9  A    between atoms: C_14  and  N_72
REMARK   10  A    between atoms: C_15  and  N_72
REMARK   11  A    between atoms: C_16  and  N_72
REMARK   12  A    between atoms: C_23  and  C_25
REMARK                            x       y       z     vdW  Elec       q    Type
REMARK                         _______ _______ _______ _____ _____    ______ ____
ROOT
ATOM      1  C   UNL     1       1.319   0.936  -4.244  0.00  0.00    +0.115 C 
ATOM      2  C   UNL     1       0.915   1.798  -3.064  0.00  0.00    +0.247 C 
ATOM      3  O   UNL     1       1.380   2.872  -2.749  0.00  0.00    -0.273 OA
ATOM      4  N   UNL     1      -0.067   1.120  -2.437  0.00  0.00    -0.226 N 
ATOM      5  C   UNL     1      -0.342  -0.034  -3.054  0.00  0.00    +0.309 C 
ATOM      6  O   UNL     1      -1.194  -0.816  -2.678  0.00  0.00    -0.252 OA
ATOM      7  N   UNL     1       0.429  -0.234  -4.139  0.00  0.00    -0.285 N 
ATOM      8  H   UNL     1       0.404  -0.998  -4.735  0.00  0.00    +0.151 HD
ENDROOT
BRANCH   1   9
ATOM      9  C   UNL     1       1.075   1.681  -5.558  0.00  0.00    +0.024 C 
ATOM     10  C   UNL     1       2.085   2.824  -5.690  0.00  0.00    +0.025 C 
ATOM     11  C   UNL     1       1.861   3.546  -7.022  0.00  0.00    +0.108 C 
ATOM     12  N   UNL     1       0.456   3.970  -7.100  0.00  0.00    -0.298 N 
ATOM     13  C   UNL     1      -0.597   2.965  -6.897  0.00  0.00    +0.108 C 
ATOM     14  C   UNL     1      -0.345   2.250  -5.566  0.00  0.00    +0.025 C 
ATOM     15  C   UNL     1       0.140   5.255  -7.354  0.00  0.00    +0.257 C 
ATOM     16  O   UNL     1      -1.024   5.592  -7.416  0.00  0.00    -0.272 OA
BRANCH  15  17
ATOM     17  C   UNL     1       1.231   6.273  -7.560  0.00  0.00    +0.263 C 
ATOM     18  C   UNL     1       2.015   6.510  -6.247  0.00  0.00    +0.093 C 
ATOM     19  C   UNL     1       2.308   7.999  -6.325  0.00  0.00    -0.002 A 
ATOM     20  C   UNL     1       3.194   8.803  -5.643  0.00  0.00    +0.007 A 
ATOM     21  C   UNL     1       3.263  10.155  -5.930  0.00  0.00    +0.000 A 
ATOM     22  C   UNL     1       2.441  10.693  -6.903  0.00  0.00    +0.004 A 
ATOM     23  C   UNL     1       1.551   9.890  -7.586  0.00  0.00    +0.046 A 
ATOM     24  C   UNL     1       1.473   8.529  -7.300  0.00  0.00    +0.125 A 
ATOM     25  O   UNL     1       0.673   7.568  -7.840  0.00  0.00    -0.479 OA
ENDBRANCH  15  17
ENDBRANCH   1   9
BRANCH   1  26
ATOM     26  C   UNL     1       2.784   0.509  -4.132  0.00  0.00    +0.036 C 
BRANCH  26  27
ATOM     27  C   UNL     1       2.984  -0.295  -2.846  0.00  0.00    +0.005 C 
BRANCH  27  29
ATOM     28  C   UNL     1       5.331   0.518  -2.578  0.00  0.00    +0.007 C 
ATOM     29  C   UNL     1       4.449  -0.722  -2.734  0.00  0.00    -0.017 C 
ATOM     30  C   UNL     1       4.624  -1.629  -1.515  0.00  0.00    +0.007 C 
ENDBRANCH  27  29
ENDBRANCH  26  27
ENDBRANCH   1  26
BRANCH   4  31
ATOM     31  C   UNL     1      -0.753   1.593  -1.232  0.00  0.00    +0.099 C 
BRANCH  31  32
ATOM     32  C   UNL     1      -0.013   1.086   0.008  0.00  0.00    -0.060 C 
BRANCH  32  35
ATOM     33  C   UNL     1      -2.034   0.955   1.335  0.00  0.00    -0.097 C 
ATOM     34  C   UNL     1       0.104   1.297   2.417  0.00  0.00    -0.097 C 
ATOM     35  N   UNL     1      -0.704   1.588   1.214  0.00  0.00    +0.377 N 
ATOM     36  H   UNL     1      -0.824   2.604   1.131  0.00  0.00    -0.083 HD
ENDBRANCH  32  35
ENDBRANCH  31  32
ENDBRANCH   4  31
TORSDOF 8
