REMARK  Name = ZINC39359373
REMARK  7 active torsions:
REMARK  status: ('A' for Active; 'I' for Inactive)
REMARK    1  A    between atoms: C_1  and  C_2
REMARK    2  A    between atoms: C_7  and  C_12
REMARK    3  A    between atoms: C_12  and  C_31
REMARK    4  A    between atoms: C_13  and  C_14
REMARK    5  A    between atoms: C_17  and  C_19
REMARK    6  A    between atoms: C_21  and  C_28
REMARK    7  A    between atoms: C_23  and  C_25
REMARK                            x       y       z     vdW  Elec       q    Type
REMARK                         _______ _______ _______ _____ _____    ______ ____
ROOT
ATOM      1  C   UNL     1      -0.056  -6.766   2.968  0.00  0.00    +0.130 A 
ATOM      2  C   UNL     1      -0.304  -7.855   3.781  0.00  0.00    +0.050 A 
ATOM      3  C   UNL     1      -1.689  -8.045   3.789  0.00  0.00    +0.050 A 
ATOM      4  C   UNL     1      -2.232  -7.079   2.991  0.00  0.00    +0.136 A 
ATOM      5  O   UNL     1      -1.239  -6.311   2.506  0.00  0.00    -0.455 OA
ENDROOT
BRANCH   4   6
ATOM      6  C   UNL     1      -3.671  -6.903   2.711  0.00  0.00    +0.019 A 
ATOM      7  C   UNL     1      -4.604  -7.765   3.287  0.00  0.00    +0.026 A 
ATOM      8  C   UNL     1      -5.965  -7.598   3.023  0.00  0.00    +0.065 A 
ATOM      9  C   UNL     1      -6.391  -6.570   2.182  0.00  0.00    +0.030 A 
ATOM     10  C   UNL     1      -5.457  -5.708   1.605  0.00  0.00    +0.065 A 
ATOM     11  C   UNL     1      -4.098  -5.871   1.874  0.00  0.00    +0.026 A 
BRANCH  10  12
ATOM     12  C   UNL     1      -5.908  -4.620   0.716  0.00  0.00    +0.387 C 
ATOM     13  O   UNL     1      -7.100  -4.474   0.484  0.00  0.00    -0.241 OA
ATOM     14  O   UNL     1      -5.090  -3.865   0.210  0.00  0.00    -0.241 OA
ENDBRANCH  10  12
BRANCH   8  15
ATOM     15  C   UNL     1      -6.952  -8.510   3.632  0.00  0.00    +0.387 C 
ATOM     16  O   UNL     1      -6.579  -9.412   4.369  0.00  0.00    -0.241 OA
ATOM     17  O   UNL     1      -8.144  -8.364   3.400  0.00  0.00    -0.241 OA
ENDBRANCH   8  15
ENDBRANCH   4   6
BRANCH   1  19
ATOM     18  C   UNL     1       1.313  -5.069   1.963  0.00  0.00    +0.075 C 
ATOM     19  C   UNL     1       1.216  -6.219   2.676  0.00  0.00    +0.064 C 
BRANCH  18  26
ATOM     20  C   UNL     1      -0.041   0.332  -2.262  0.00  0.00    +0.044 C 
ATOM     21  C   UNL     1      -0.150  -1.019  -1.603  0.00  0.00    -0.048 A 
ATOM     22  C   UNL     1      -0.623  -2.104  -2.364  0.00  0.00    +0.005 A 
ATOM     23  C   UNL     1      -0.753  -3.346  -1.855  0.00  0.00    +0.027 A 
ATOM     24  C   UNL     1      -0.392  -3.597  -0.453  0.00  0.00    +0.060 A 
ATOM     25  N   UNL     1      -0.413  -4.666   0.288  0.00  0.00    -0.359 N 
ATOM     26  C   UNL     1       0.070  -4.287   1.622  0.00  0.00    +0.216 C 
ATOM     27  N   UNL     1       0.377  -2.853   1.559  0.00  0.00    -0.359 N 
ATOM     28  C   UNL     1       0.109  -2.449   0.351  0.00  0.00    +0.061 A 
ATOM     29  C   UNL     1       0.213  -1.141  -0.311  0.00  0.00    +0.030 A 
ATOM     30  H   UNL     1      -0.697  -5.551   0.011  0.00  0.00    +0.162 HD
ATOM     31  H   UNL     1       0.718  -2.306   2.285  0.00  0.00    +0.162 HD
ENDBRANCH  18  26
BRANCH  18  32
ATOM     32  C   UNL     1       2.595  -4.598   1.534  0.00  0.00    +0.099 C 
ATOM     33  N   UNL     1       3.613  -4.224   1.194  0.00  0.00    -0.191 NA
ENDBRANCH  18  32
ENDBRANCH   1  19
TORSDOF 6
