REMARK  Name = ZINC51994544
REMARK  3 active torsions:
REMARK  status: ('A' for Active; 'I' for Inactive)
REMARK    1  A    between atoms: C_3  and  C_6
REMARK    2  A    between atoms: C_8  and  C_11
REMARK    3  A    between atoms: C_11  and  N_12
REMARK                            x       y       z     vdW  Elec       q    Type
REMARK                         _______ _______ _______ _____ _____    ______ ____
ROOT
ATOM      1  C   UNL     1       7.333   1.324  -0.070  0.00  0.00    +0.184 C 
ENDROOT
BRANCH   1   2
ATOM      2  N   UNL     1       7.781   1.178  -1.461  0.00  0.00    -0.286 NA
ATOM      3  C   UNL     1       7.045   0.102  -2.141  0.00  0.00    +0.113 C 
ATOM      4  C   UNL     1       7.497   0.022  -3.601  0.00  0.00    +0.175 C 
ATOM      5  O   UNL     1       8.914  -0.173  -3.649  0.00  0.00    -0.374 OA
ATOM      6  C   UNL     1       9.656   0.858  -2.994  0.00  0.00    +0.135 C 
ATOM      7  C   UNL     1       9.231   0.933  -1.526  0.00  0.00    +0.086 C 
ATOM      8  C   UNL     1       9.543  -0.397  -0.836  0.00  0.00    +0.021 C 
ATOM      9  C   UNL     1      11.042  -0.683  -0.926  0.00  0.00    +0.002 C 
ATOM     10  C   UNL     1      11.456  -0.770  -2.397  0.00  0.00    +0.003 C 
ATOM     11  C   UNL     1      11.151   0.556  -3.080  0.00  0.00    +0.033 C 
ENDBRANCH   1   2
BRANCH   1  14
ATOM     12  C   UNL     1       3.738   1.826  -0.024  0.00  0.00    +0.209 A 
ATOM     13  N   UNL     1       4.846   1.060  -0.044  0.00  0.00    -0.190 NA
ATOM     14  C   UNL     1       5.908   1.813  -0.049  0.00  0.00    +0.242 A 
ATOM     15  O   UNL     1       5.522   3.095  -0.032  0.00  0.00    -0.336 OA
ATOM     16  N   UNL     1       4.102   3.087  -0.022  0.00  0.00    -0.055 NA
BRANCH  12  19
ATOM     17  C   UNL     1      -0.016   1.355   0.009  0.00  0.00    +0.008 A 
ATOM     18  C   UNL     1       1.176   2.042   0.002  0.00  0.00    +0.019 A 
ATOM     19  C   UNL     1       2.346   1.330  -0.013  0.00  0.00    +0.060 A 
ATOM     20  S   UNL     1       1.753  -0.354  -0.017  0.00  0.00    -0.093 S 
ATOM     21  C   UNL     1       0.002  -0.004   0.002  0.00  0.00    +0.046 A 
ENDBRANCH  12  19
ENDBRANCH   1  14
TORSDOF 3
