REMARK  Name = ZINC40322675
REMARK  10 active torsions:
REMARK  status: ('A' for Active; 'I' for Inactive)
REMARK    1  A    between atoms: C_1  and  C_2
REMARK    2  A    between atoms: C_5  and  S_8
REMARK    3  A    between atoms: S_8  and  C_11
REMARK    4  A    between atoms: C_14  and  C_16
REMARK    5  A    between atoms: N_18  and  C_19
REMARK    6  A    between atoms: C_19  and  C_20
REMARK    7  A    between atoms: C_20  and  C_22
REMARK    8  A    between atoms: C_20  and  N_29
REMARK    9  A    between atoms: N_29  and  C_30
REMARK   10  A    between atoms: N_29  and  C_31
REMARK                            x       y       z     vdW  Elec       q    Type
REMARK                         _______ _______ _______ _____ _____    ______ ____
ROOT
ATOM      1  C   UNL     1       5.538  -5.582  -1.704  0.00  0.00    +0.279 C 
ATOM      2  O   UNL     1       6.644  -5.996  -1.408  0.00  0.00    -0.267 OA
ATOM      3  N   UNL     1       5.131  -5.606  -2.988  0.00  0.00    -0.310 N 
ATOM      4  H   UNL     1       4.249  -5.277  -3.224  0.00  0.00    +0.149 HD
ENDROOT
BRANCH   1   8
ATOM      5  C   UNL     1       2.896  -4.180   0.323  0.00  0.00    +0.246 A 
ATOM      6  C   UNL     1       3.809  -4.413   1.291  0.00  0.00    +0.070 A 
ATOM      7  C   UNL     1       4.936  -4.975   0.670  0.00  0.00    +0.056 A 
ATOM      8  C   UNL     1       4.649  -5.057  -0.662  0.00  0.00    +0.192 A 
ATOM      9  O   UNL     1       3.404  -4.574  -0.852  0.00  0.00    -0.433 OA
BRANCH   5  10
ATOM     10  S   UNL     1       1.297  -3.481   0.567  0.00  0.00    +0.058 S 
ATOM     11  O   UNL     1       0.948  -3.728   1.922  0.00  0.00    -0.161 OA
ATOM     12  O   UNL     1       0.492  -3.919  -0.519  0.00  0.00    -0.161 OA
BRANCH  10  17
ATOM     13  C   UNL     1       1.857   2.500  -0.006  0.00  0.00    +0.044 C 
ATOM     14  C   UNL     1       1.717   1.006   0.137  0.00  0.00    -0.050 A 
ATOM     15  C   UNL     1       1.435   0.229  -0.971  0.00  0.00    +0.005 A 
ATOM     16  C   UNL     1       1.307  -1.141  -0.840  0.00  0.00    +0.028 A 
ATOM     17  C   UNL     1       1.462  -1.734   0.399  0.00  0.00    +0.097 A 
ATOM     18  C   UNL     1       1.745  -0.957   1.507  0.00  0.00    +0.028 A 
ATOM     19  C   UNL     1       1.877   0.412   1.375  0.00  0.00    +0.005 A 
ENDBRANCH  10  17
ENDBRANCH   5  10
ENDBRANCH   1   8
BRANCH   3  20
ATOM     20  C   UNL     1       6.019  -6.131  -4.029  0.00  0.00    +0.094 C 
BRANCH  20  21
ATOM     21  C   UNL     1       5.276  -6.158  -5.366  0.00  0.00    -0.020 C 
BRANCH  21  22
ATOM     22  C   UNL     1       4.132  -7.135  -5.286  0.00  0.00    -0.041 A 
ATOM     23  C   UNL     1       2.845  -6.676  -5.075  0.00  0.00    +0.003 A 
ATOM     24  C   UNL     1       1.795  -7.572  -5.001  0.00  0.00    +0.000 A 
ATOM     25  C   UNL     1       2.031  -8.928  -5.138  0.00  0.00    +0.001 A 
ATOM     26  C   UNL     1       3.317  -9.387  -5.348  0.00  0.00    +0.020 A 
ATOM     27  C   UNL     1       4.367  -8.491  -5.428  0.00  0.00    +0.043 A 
ATOM     28 CL   UNL     1       5.982  -9.067  -5.699  0.00  0.00    -0.083 Cl
ENDBRANCH  21  22
BRANCH  21  29
ATOM     29  N   UNL     1       4.756  -4.818  -5.665  0.00  0.00    +0.382 N 
ATOM     30  C   UNL     1       5.854  -3.843  -5.614  0.00  0.00    -0.096 C 
ATOM     31  C   UNL     1       4.159  -4.812  -7.007  0.00  0.00    -0.096 C 
ATOM     32  H   UNL     1       4.054  -4.570  -4.984  0.00  0.00    -0.082 HD
ENDBRANCH  21  29
ENDBRANCH  20  21
ENDBRANCH   3  20
TORSDOF 7
