REMARK  Name = ZINC59734552
REMARK  8 active torsions:
REMARK  status: ('A' for Active; 'I' for Inactive)
REMARK    1  A    between atoms: C_4  and  C_7
REMARK    2  A    between atoms: C_12  and  N_21
REMARK    3  A    between atoms: C_14  and  C_16
REMARK    4  A    between atoms: N_21  and  C_22
REMARK    5  A    between atoms: C_22  and  C_23
REMARK    6  A    between atoms: C_23  and  C_24
REMARK    7  A    between atoms: C_24  and  S_25
REMARK    8  A    between atoms: S_25  and  N_28
REMARK                            x       y       z     vdW  Elec       q    Type
REMARK                         _______ _______ _______ _____ _____    ______ ____
ROOT
ATOM      1  C   UNL     1       3.719  -0.649  -0.006  0.00  0.00    +0.002 A 
ATOM      2  C   UNL     1       4.648  -0.377  -0.953  0.00  0.00    +0.056 A 
ATOM      3  S   UNL     1       5.987  -1.483  -0.554  0.00  0.00    -0.076 S 
ATOM      4  C   UNL     1       5.279  -2.282   0.863  0.00  0.00    +0.114 A 
ATOM      5  C   UNL     1       4.017  -1.665   0.998  0.00  0.00    +0.055 A 
ATOM      6  C   UNL     1       3.222  -2.125   2.084  0.00  0.00    +0.132 A 
ATOM      7  N   UNL     1       3.695  -3.067   2.881  0.00  0.00    -0.212 NA
ATOM      8  C   UNL     1       4.899  -3.605   2.700  0.00  0.00    +0.169 A 
ATOM      9  N   UNL     1       5.681  -3.220   1.696  0.00  0.00    -0.219 NA
ENDROOT
BRANCH   1  13
ATOM     10  C   UNL     1       0.012   1.429   0.051  0.00  0.00    +0.000 A 
ATOM     11  C   UNL     1       0.859   1.501   1.142  0.00  0.00    +0.001 A 
ATOM     12  C   UNL     1       2.063   0.828   1.130  0.00  0.00    +0.008 A 
ATOM     13  C   UNL     1       2.427   0.075   0.014  0.00  0.00    -0.017 A 
ATOM     14  C   UNL     1       1.569   0.007  -1.083  0.00  0.00    +0.008 A 
ATOM     15  C   UNL     1       0.367   0.684  -1.059  0.00  0.00    +0.001 A 
ENDBRANCH   1  13
BRANCH   8  16
ATOM     16  C   UNL     1       5.370  -4.653   3.625  0.00  0.00    +0.056 A 
ATOM     17  C   UNL     1       6.562  -5.330   3.627  0.00  0.00    +0.019 A 
ATOM     18  C   UNL     1       6.782  -6.278   4.600  0.00  0.00    +0.008 A 
ATOM     19  C   UNL     1       5.816  -6.514   5.526  0.00  0.00    +0.046 A 
ATOM     20  S   UNL     1       4.540  -5.365   5.036  0.00  0.00    -0.094 S 
ENDBRANCH   8  16
BRANCH   6  21
ATOM     21  N   UNL     1       1.965  -1.590   2.304  0.00  0.00    -0.328 N 
ATOM     22  H   UNL     1       1.586  -0.965   1.667  0.00  0.00    +0.147 HD
BRANCH  21  23
ATOM     23  C   UNL     1       1.208  -1.968   3.499  0.00  0.00    +0.104 C 
BRANCH  23  24
ATOM     24  C   UNL     1      -0.139  -1.240   3.501  0.00  0.00    +0.043 C 
BRANCH  24  25
ATOM     25  C   UNL     1      -0.930  -1.635   4.750  0.00  0.00    +0.186 C 
BRANCH  25  26
ATOM     26  S   UNL     1      -2.526  -0.773   4.752  0.00  0.00    +0.027 S 
ATOM     27  O   UNL     1      -2.328   0.623   4.934  0.00  0.00    -0.158 OA
ATOM     28  O   UNL     1      -3.345  -1.256   3.696  0.00  0.00    -0.158 OA
BRANCH  26  29
ATOM     29  N   UNL     1      -3.280  -1.277   6.137  0.00  0.00    -0.208 NA
ATOM     30  H   UNL     1      -3.902  -0.689   6.592  0.00  0.00    +0.144 HD
ATOM     31  H   UNL     1      -3.100  -2.161   6.493  0.00  0.00    +0.144 HD
ENDBRANCH  26  29
ENDBRANCH  25  26
ENDBRANCH  24  25
ENDBRANCH  23  24
ENDBRANCH  21  23
ENDBRANCH   6  21
TORSDOF 8
