REMARK  Name = ZINC39915909
REMARK  14 active torsions:
REMARK  status: ('A' for Active; 'I' for Inactive)
REMARK    1  A    between atoms: C_1  and  C_2
REMARK    2  A    between atoms: C_2  and  C_3
REMARK    3  A    between atoms: C_3  and  C_4
REMARK    4  A    between atoms: C_4  and  O_5
REMARK    5  A    between atoms: O_5  and  C_6
REMARK    6  A    between atoms: C_9  and  C_12
REMARK    7  A    between atoms: C_12  and  N_13
REMARK    8  A    between atoms: C_21  and  S_22
REMARK    9  A    between atoms: S_22  and  C_23
REMARK   10  A    between atoms: C_25  and  O_38
REMARK   11  A    between atoms: C_27  and  O_37
REMARK   12  A    between atoms: C_29  and  O_36
REMARK   13  A    between atoms: C_31  and  C_34
REMARK   14  A    between atoms: C_34  and  O_35
REMARK                            x       y       z     vdW  Elec       q    Type
REMARK                         _______ _______ _______ _____ _____    ______ ____
ROOT
ATOM      1  N   UNL     1       3.137  -8.843   2.154  0.00  0.00    -0.314 N 
ATOM      2  C   UNL     1       3.329  -9.280   0.853  0.00  0.00    +0.070 A 
ATOM      3  C   UNL     1       2.490  -9.451  -0.237  0.00  0.00    +0.028 A 
ATOM      4  C   UNL     1       3.002  -9.918  -1.431  0.00  0.00    +0.002 A 
ATOM      5  C   UNL     1       4.351 -10.218  -1.547  0.00  0.00    +0.002 A 
ATOM      6  C   UNL     1       5.198 -10.055  -0.475  0.00  0.00    +0.030 A 
ATOM      7  C   UNL     1       4.696  -9.582   0.741  0.00  0.00    +0.090 A 
ATOM      8  N   UNL     1       5.264  -9.322   1.947  0.00  0.00    -0.222 NA
ATOM      9  C   UNL     1       4.351  -8.882   2.778  0.00  0.00    +0.173 A 
ENDROOT
BRANCH   1  10
ATOM     10  C   UNL     1       1.868  -8.412   2.747  0.00  0.00    +0.159 C 
BRANCH  10  14
ATOM     11  C   UNL     1       1.365  -4.212   2.143  0.00  0.00    +0.121 A 
ATOM     12  C   UNL     1       0.887  -5.111   1.202  0.00  0.00    +0.046 A 
ATOM     13  C   UNL     1       1.051  -6.469   1.399  0.00  0.00    +0.009 A 
ATOM     14  C   UNL     1       1.691  -6.931   2.534  0.00  0.00    -0.027 A 
ATOM     15  C   UNL     1       2.168  -6.037   3.474  0.00  0.00    +0.009 A 
ATOM     16  C   UNL     1       2.012  -4.678   3.279  0.00  0.00    +0.046 A 
BRANCH  11  17
ATOM     17  O   UNL     1       1.205  -2.876   1.951  0.00  0.00    -0.492 OA
BRANCH  17  18
ATOM     18  C   UNL     1       0.530  -2.468   0.760  0.00  0.00    +0.229 C 
BRANCH  18  19
ATOM     19  C   UNL     1       0.446  -0.941   0.718  0.00  0.00    +0.041 C 
BRANCH  19  21
ATOM     20  C   UNL     1      -0.361   1.023  -0.599  0.00  0.00    +0.004 C 
ATOM     21  C   UNL     1      -0.277  -0.504  -0.557  0.00  0.00    -0.000 C 
ENDBRANCH  19  21
ENDBRANCH  18  19
ENDBRANCH  17  18
ENDBRANCH  11  17
ENDBRANCH  10  14
ENDBRANCH   1  10
BRANCH   9  22
ATOM     22  S   UNL     1       4.646  -8.415   4.451  0.00  0.00    -0.054 S 
BRANCH  22  23
ATOM     23  C   UNL     1       6.425  -8.688   4.677  0.00  0.00    +0.214 C 
ATOM     24  C   UNL     1       6.844  -8.201   6.066  0.00  0.00    +0.185 C 
ATOM     25  C   UNL     1       8.334  -8.490   6.272  0.00  0.00    +0.177 C 
ATOM     26  C   UNL     1       8.583  -9.989   6.082  0.00  0.00    +0.176 C 
ATOM     27  C   UNL     1       8.097 -10.407   4.692  0.00  0.00    +0.176 C 
ATOM     28  O   UNL     1       6.712 -10.083   4.555  0.00  0.00    -0.355 OA
BRANCH  26  29
ATOM     29  O   UNL     1       9.982 -10.260   6.201  0.00  0.00    -0.386 OA
ATOM     30  H   UNL     1      10.358 -10.015   7.058  0.00  0.00    +0.210 HD
ENDBRANCH  26  29
BRANCH  25  31
ATOM     31  O   UNL     1       9.100  -7.751   5.318  0.00  0.00    -0.386 OA
ATOM     32  H   UNL     1       8.985  -6.793   5.378  0.00  0.00    +0.210 HD
ENDBRANCH  25  31
BRANCH  24  33
ATOM     33  O   UNL     1       6.610  -6.795   6.171  0.00  0.00    -0.386 OA
ATOM     34  H   UNL     1       5.685  -6.540   6.046  0.00  0.00    +0.210 HD
ENDBRANCH  24  33
BRANCH  27  35
ATOM     35  C   UNL     1       8.903  -9.664   3.624  0.00  0.00    +0.190 C 
BRANCH  35  36
ATOM     36  O   UNL     1       8.557 -10.164   2.332  0.00  0.00    -0.392 OA
ATOM     37  H   UNL     1       9.030  -9.737   1.605  0.00  0.00    +0.210 HD
ENDBRANCH  35  36
ENDBRANCH  27  35
ENDBRANCH  22  23
ENDBRANCH   9  22
TORSDOF 13
