REMARK  Name = ZINC19825990
REMARK  9 active torsions:
REMARK  status: ('A' for Active; 'I' for Inactive)
REMARK    1  A    between atoms: C_4  and  C_7
REMARK    2  A    between atoms: C_10  and  S_18
REMARK    3  A    between atoms: N_11  and  C_12
REMARK    4  A    between atoms: S_18  and  C_19
REMARK    5  A    between atoms: C_19  and  C_20
REMARK    6  A    between atoms: N_22  and  N_23
REMARK    7  A    between atoms: C_24  and  C_25
REMARK    8  A    between atoms: C_26  and  C_27
REMARK    9  A    between atoms: C_32  and  N_33
REMARK                            x       y       z     vdW  Elec       q    Type
REMARK                         _______ _______ _______ _____ _____    ______ ____
ROOT
ATOM      1  S   UNL     1       1.601  -2.515  -3.849  0.00  0.00    -0.076 S 
ENDROOT
BRANCH   1   5
ATOM      2  C   UNL     1       4.565  -3.035  -1.353  0.00  0.00    +0.169 A 
ATOM      3  N   UNL     1       4.240  -4.265  -1.678  0.00  0.00    -0.128 NA
ATOM      4  N   UNL     1       3.262  -4.256  -2.511  0.00  0.00    -0.122 NA
ATOM      5  C   UNL     1       2.897  -3.020  -2.767  0.00  0.00    +0.197 A 
ATOM      6  N   UNL     1       3.711  -2.198  -2.037  0.00  0.00    -0.270 N 
BRANCH   2  10
ATOM      7  C   UNL     1       7.658  -1.860   1.310  0.00  0.00    +0.000 A 
ATOM      8  C   UNL     1       6.659  -0.963   0.976  0.00  0.00    +0.001 A 
ATOM      9  C   UNL     1       5.651  -1.338   0.112  0.00  0.00    +0.011 A 
ATOM     10  C   UNL     1       5.641  -2.626  -0.426  0.00  0.00    +0.020 A 
ATOM     11  C   UNL     1       6.649  -3.528  -0.081  0.00  0.00    +0.011 A 
ATOM     12  C   UNL     1       7.654  -3.139   0.780  0.00  0.00    +0.001 A 
ENDBRANCH   2  10
BRANCH   6  13
ATOM     13  C   UNL     1       3.685  -0.797  -1.997  0.00  0.00    +0.051 A 
ATOM     14  C   UNL     1       2.610  -0.137  -1.417  0.00  0.00    +0.026 A 
ATOM     15  C   UNL     1       2.588   1.244  -1.379  0.00  0.00    +0.002 A 
ATOM     16  C   UNL     1       3.635   1.968  -1.918  0.00  0.00    +0.000 A 
ATOM     17  C   UNL     1       4.707   1.314  -2.496  0.00  0.00    +0.002 A 
ATOM     18  C   UNL     1       4.735  -0.067  -2.537  0.00  0.00    +0.026 A 
ENDBRANCH   6  13
ENDBRANCH   1   5
BRANCH   1  19
ATOM     19  C   UNL     1       1.018  -4.132  -4.417  0.00  0.00    +0.174 C 
BRANCH  19  20
ATOM     20  C   UNL     1      -0.124  -3.944  -5.382  0.00  0.00    +0.242 C 
ATOM     21  O   UNL     1      -0.507  -2.826  -5.658  0.00  0.00    -0.273 OA
ATOM     22  N   UNL     1      -0.720  -5.017  -5.938  0.00  0.00    -0.206 N 
ATOM     23  H   UNL     1      -0.373  -6.030  -5.688  0.00  0.00    +0.177 HD
BRANCH  22  24
ATOM     24  N   UNL     1      -1.782  -4.842  -6.835  0.00  0.00    -0.188 NA
ATOM     25  C   UNL     1      -2.358  -5.879  -7.372  0.00  0.00    +0.130 C 
BRANCH  25  26
ATOM     26  C   UNL     1      -3.433  -5.702  -8.280  0.00  0.00    +0.022 C 
ATOM     27  C   UNL     1      -4.012  -6.774  -8.858  0.00  0.00    +0.012 C 
BRANCH  27  28
ATOM     28  C   UNL     1      -3.642  -8.132  -8.426  0.00  0.00    +0.005 A 
ATOM     29  C   UNL     1      -3.511  -8.425  -7.065  0.00  0.00    +0.010 A 
ATOM     30  C   UNL     1      -3.163  -9.699  -6.668  0.00  0.00    +0.001 A 
ATOM     31  C   UNL     1      -2.945 -10.687  -7.613  0.00  0.00    +0.002 A 
ATOM     32  C   UNL     1      -3.073 -10.404  -8.961  0.00  0.00    +0.033 A 
ATOM     33  C   UNL     1      -3.425  -9.136  -9.374  0.00  0.00    +0.133 A 
BRANCH  33  34
ATOM     34  N   UNL     1      -3.567  -8.838 -10.817  0.00  0.00    +0.057 N 
ATOM     35  O   UNL     1      -3.481  -9.735 -11.636  0.00  0.00    -0.126 OA
ATOM     36  O   UNL     1      -3.771  -7.695 -11.185  0.00  0.00    -0.126 OA
ENDBRANCH  33  34
ENDBRANCH  27  28
ENDBRANCH  25  26
ENDBRANCH  22  24
ENDBRANCH  19  20
ENDBRANCH   1  19
TORSDOF 9
