REMARK  Name = ZINC21341673
REMARK  12 active torsions:
REMARK  status: ('A' for Active; 'I' for Inactive)
REMARK    1  A    between atoms: C_1  and  C_2
REMARK    2  A    between atoms: C_2  and  C_3
REMARK    3  A    between atoms: C_4  and  C_34
REMARK    4  A    between atoms: N_10  and  C_27
REMARK    5  A    between atoms: C_11  and  S_13
REMARK    6  A    between atoms: S_13  and  C_14
REMARK    7  A    between atoms: C_14  and  C_15
REMARK    8  A    between atoms: C_16  and  C_22
REMARK    9  A    between atoms: C_22  and  O_24
REMARK   10  A    between atoms: O_24  and  C_25
REMARK   11  A    between atoms: C_25  and  C_26
REMARK   12  A    between atoms: C_27  and  C_28
REMARK                            x       y       z     vdW  Elec       q    Type
REMARK                         _______ _______ _______ _____ _____    ______ ____
ROOT
ATOM      1  C   UNL     1      -2.704   5.228   5.877  0.00  0.00    -0.023 A 
ATOM      2  C   UNL     1      -3.214   5.270   7.116  0.00  0.00    -0.007 A 
ATOM      3  S   UNL     1      -3.045   3.591   7.690  0.00  0.00    -0.073 S 
ATOM      4  C   UNL     1      -2.293   2.881   6.248  0.00  0.00    +0.117 A 
ATOM      5  C   UNL     1      -2.195   3.970   5.360  0.00  0.00    +0.076 A 
ATOM      6  C   UNL     1      -1.607   3.684   4.088  0.00  0.00    +0.263 A 
ATOM      7  O   UNL     1      -1.476   4.566   3.256  0.00  0.00    -0.267 OA
ATOM      8  N   UNL     1      -1.205   2.428   3.818  0.00  0.00    -0.285 N 
ATOM      9  C   UNL     1      -1.338   1.429   4.739  0.00  0.00    +0.173 A 
ATOM     10  N   UNL     1      -1.871   1.665   5.921  0.00  0.00    -0.216 NA
ATOM     11  C   UNL     1      -3.792   6.453   7.849  0.00  0.00    +0.052 C 
ENDROOT
BRANCH   1  13
ATOM     12  C   UNL     1      -1.339   7.208   5.269  0.00  0.00    +0.009 C 
ATOM     13  C   UNL     1      -2.659   6.473   5.029  0.00  0.00    +0.033 C 
ENDBRANCH   1  13
BRANCH   9  14
ATOM     14  S   UNL     1      -0.791  -0.198   4.342  0.00  0.00    -0.082 S 
BRANCH  14  15
ATOM     15  C   UNL     1      -1.207  -1.054   5.881  0.00  0.00    +0.128 C 
BRANCH  15  16
ATOM     16  C   UNL     1      -0.817  -2.505   5.770  0.00  0.00    +0.034 C 
ATOM     17  C   UNL     1       0.286  -2.947   6.412  0.00  0.00    +0.071 C 
ATOM     18  C   UNL     1       0.639  -4.415   6.278  0.00  0.00    +0.150 C 
ATOM     19  N   UNL     1      -0.249  -5.242   5.444  0.00  0.00    -0.295 N 
ATOM     20  C   UNL     1      -1.313  -4.653   4.861  0.00  0.00    +0.304 C 
ATOM     21  O   UNL     1      -2.052  -5.327   4.171  0.00  0.00    -0.253 OA
ATOM     22  N   UNL     1      -1.581  -3.351   5.018  0.00  0.00    -0.272 N 
ATOM     23  H   UNL     1      -0.038  -6.313   5.309  0.00  0.00    +0.151 HD
ATOM     24  H   UNL     1      -2.473  -2.971   4.499  0.00  0.00    +0.156 HD
BRANCH  17  25
ATOM     25  C   UNL     1       1.082  -2.071   7.186  0.00  0.00    +0.338 C 
ATOM     26  O   UNL     1       2.116  -1.622   6.728  0.00  0.00    -0.245 OA
BRANCH  25  27
ATOM     27  O   UNL     1       0.695  -1.734   8.434  0.00  0.00    -0.462 OA
BRANCH  27  28
ATOM     28  C   UNL     1       1.547  -0.845   9.160  0.00  0.00    +0.229 C 
ATOM     29  C   UNL     1       0.949  -0.580  10.543  0.00  0.00    +0.048 C 
ENDBRANCH  27  28
ENDBRANCH  25  27
ENDBRANCH  17  25
ENDBRANCH  15  16
ENDBRANCH  14  15
ENDBRANCH   9  14
BRANCH   8  30
ATOM     30  C   UNL     1      -0.608   2.129   2.515  0.00  0.00    +0.159 C 
BRANCH  30  31
ATOM     31  C   UNL     1      -1.706   1.713   1.534  0.00  0.00    +0.138 C 
ATOM     32  C   UNL     1      -1.088   1.272   0.189  0.00  0.00    +0.035 C 
ATOM     33  C   UNL     1      -2.079   1.798  -0.874  0.00  0.00    +0.031 C 
ATOM     34  C   UNL     1      -3.182   2.494  -0.047  0.00  0.00    +0.160 C 
ATOM     35  O   UNL     1      -2.543   2.845   1.200  0.00  0.00    -0.375 OA
ENDBRANCH  30  31
ENDBRANCH   8  30
TORSDOF 9
