REMARK  Name = ZINC39665783
REMARK  14 active torsions:
REMARK  status: ('A' for Active; 'I' for Inactive)
REMARK    1  A    between atoms: C_1  and  C_2
REMARK    2  A    between atoms: C_4  and  C_11
REMARK    3  A    between atoms: N_5  and  C_7
REMARK    4  A    between atoms: C_7  and  C_8
REMARK    5  A    between atoms: C_7  and  C_9
REMARK    6  A    between atoms: C_7  and  C_10
REMARK    7  A    between atoms: C_15  and  C_24
REMARK    8  A    between atoms: N_26  and  C_27
REMARK    9  A    between atoms: C_27  and  C_28
REMARK   10  A    between atoms: C_28  and  C_30
REMARK   11  A    between atoms: C_28  and  O_31
REMARK   12  A    between atoms: O_31  and  C_32
REMARK   13  A    between atoms: C_35  and  O_38
REMARK   14  A    between atoms: O_38  and  C_39
REMARK                            x       y       z     vdW  Elec       q    Type
REMARK                         _______ _______ _______ _____ _____    ______ ____
ROOT
ATOM      1  C   UNL     1      -0.439  -2.425  -0.217  0.00  0.00    +0.265 C 
ATOM      2  O   UNL     1      -0.431  -2.225  -1.417  0.00  0.00    -0.268 OA
ATOM      3  N   UNL     1      -0.311  -3.680   0.257  0.00  0.00    -0.295 N 
ATOM      4  C   UNL     1      -0.429  -4.136   1.662  0.00  0.00    +0.121 C 
ATOM      5  C   UNL     1      -1.178  -5.485   1.573  0.00  0.00    +0.100 C 
ATOM      6  C   UNL     1      -0.904  -5.992   0.147  0.00  0.00    -0.004 C 
ATOM      7  C   UNL     1      -0.026  -4.917  -0.509  0.00  0.00    +0.115 C 
ATOM      8  C   UNL     1      -2.213  -6.138  -0.622  0.00  0.00    -0.010 C 
ATOM      9  C   UNL     1      -1.921  -6.697  -2.017  0.00  0.00    -0.082 C 
ATOM     10  N   UNL     1      -1.254  -8.000  -1.894  0.00  0.00    +0.379 N 
ATOM     11  C   UNL     1       0.047  -7.837  -1.234  0.00  0.00    -0.082 C 
ATOM     12  C   UNL     1      -0.163  -7.325   0.194  0.00  0.00    -0.010 C 
ATOM     13  H   UNL     1      -1.832  -8.621  -1.347  0.00  0.00    -0.086 HD
ATOM     14  H   UNL     1      -1.118  -8.394  -2.812  0.00  0.00    -0.086 HD
ENDROOT
BRANCH   1  18
ATOM     15  C   UNL     1      -0.667   0.454   3.951  0.00  0.00    +0.067 C 
ATOM     16  C   UNL     1      -0.691  -0.027   2.523  0.00  0.00    +0.061 A 
ATOM     17  C   UNL     1      -0.463  -1.337   2.094  0.00  0.00    +0.057 A 
ATOM     18  C   UNL     1      -0.588  -1.297   0.716  0.00  0.00    +0.124 A 
ATOM     19  N   UNL     1      -0.877  -0.001   0.396  0.00  0.00    -0.254 N 
ATOM     20  N   UNL     1      -0.933   0.706   1.467  0.00  0.00    -0.175 NA
BRANCH  19  21
ATOM     21  C   UNL     1      -1.094   0.505  -0.962  0.00  0.00    +0.056 C 
ATOM     22  C   UNL     1      -2.196  -0.311  -1.640  0.00  0.00    +0.036 C 
ATOM     23  C   UNL     1      -1.514   1.975  -0.897  0.00  0.00    +0.036 C 
ATOM     24  C   UNL     1       0.201   0.380  -1.766  0.00  0.00    +0.036 C 
ENDBRANCH  19  21
ENDBRANCH   1  18
BRANCH   5  25
ATOM     25  C   UNL     1      -2.656  -5.279   1.785  0.00  0.00    +0.218 C 
ATOM     26  O   UNL     1      -3.181  -4.245   1.431  0.00  0.00    -0.275 OA
ATOM     27  N   UNL     1      -3.393  -6.245   2.368  0.00  0.00    -0.312 N 
ATOM     28  H   UNL     1      -2.962  -7.037   2.724  0.00  0.00    +0.149 HD
BRANCH  27  29
ATOM     29  C   UNL     1      -4.848  -6.098   2.463  0.00  0.00    +0.148 C 
BRANCH  29  30
ATOM     30  C   UNL     1      -5.439  -7.324   3.162  0.00  0.00    +0.187 C 
ATOM     31  C   UNL     1      -6.966  -7.230   3.151  0.00  0.00    +0.053 C 
BRANCH  30  32
ATOM     32  O   UNL     1      -4.975  -7.372   4.513  0.00  0.00    -0.488 OA
BRANCH  32  33
ATOM     33  C   UNL     1      -4.966  -8.589   5.119  0.00  0.00    +0.121 A 
ATOM     34  C   UNL     1      -4.453  -8.721   6.401  0.00  0.00    +0.049 A 
ATOM     35  C   UNL     1      -4.444  -9.957   7.017  0.00  0.00    +0.049 A 
ATOM     36  C   UNL     1      -4.949 -11.066   6.355  0.00  0.00    +0.120 A 
ATOM     37  C   UNL     1      -5.463 -10.934   5.074  0.00  0.00    +0.049 A 
ATOM     38  C   UNL     1      -5.476  -9.697   4.459  0.00  0.00    +0.049 A 
BRANCH  36  39
ATOM     39  O   UNL     1      -4.939 -12.283   6.961  0.00  0.00    -0.495 OA
ATOM     40  C   UNL     1      -5.475 -13.382   6.220  0.00  0.00    +0.277 C 
ENDBRANCH  36  39
ENDBRANCH  32  33
ENDBRANCH  30  32
ENDBRANCH  29  30
ENDBRANCH  27  29
ENDBRANCH   5  25
TORSDOF 8
