REMARK  Name = ZINC09357406
REMARK  9 active torsions:
REMARK  status: ('A' for Active; 'I' for Inactive)
REMARK    1  A    between atoms: C_1  and  C_2
REMARK    2  A    between atoms: C_5  and  C_7
REMARK    3  A    between atoms: C_10  and  C_11
REMARK    4  A    between atoms: C_10  and  O_21
REMARK    5  A    between atoms: N_26  and  C_27
REMARK    6  A    between atoms: C_27  and  C_28
REMARK    7  A    between atoms: C_28  and  N_54
REMARK    8  A    between atoms: C_29  and  N_54
REMARK    9  A    between atoms: C_30  and  N_54
REMARK                            x       y       z     vdW  Elec       q    Type
REMARK                         _______ _______ _______ _____ _____    ______ ____
ROOT
ATOM      1  C   UNL     1      -5.098   3.741  -0.150  0.00  0.00    +0.180 C 
ATOM      2  C   UNL     1      -3.706   3.161  -0.047  0.00  0.00    +0.074 C 
ATOM      3  C   UNL     1      -2.520   3.863   0.048  0.00  0.00    +0.133 C 
ATOM      4  C   UNL     1      -3.861   1.767  -0.074  0.00  0.00    +0.249 C 
ATOM      5  O   UNL     1      -2.962   0.948  -0.016  0.00  0.00    -0.282 OA
ATOM      6  C   UNL     1      -5.313   1.463  -0.183  0.00  0.00    +0.288 C 
ATOM      7  O   UNL     1      -5.789   0.347  -0.227  0.00  0.00    -0.266 OA
ATOM      8  N   UNL     1      -6.021   2.604  -0.229  0.00  0.00    -0.282 N 
ENDROOT
BRANCH   3   9
ATOM      9  C   UNL     1      -1.259   3.147   0.297  0.00  0.00    +0.021 A 
ATOM     10  C   UNL     1      -0.144   3.385  -0.515  0.00  0.00    +0.015 A 
ATOM     11  C   UNL     1       1.032   2.708  -0.284  0.00  0.00    +0.050 A 
ATOM     12  C   UNL     1       1.121   1.794   0.761  0.00  0.00    +0.162 A 
ATOM     13  C   UNL     1       0.017   1.557   1.579  0.00  0.00    +0.163 A 
ATOM     14  C   UNL     1      -1.169   2.228   1.349  0.00  0.00    +0.061 A 
ATOM     15  O   UNL     1       0.090   0.669   2.608  0.00  0.00    -0.485 OA
ATOM     16  C   UNL     1       1.177  -0.262   2.577  0.00  0.00    +0.270 C 
ATOM     17  C   UNL     1       2.461   0.509   2.245  0.00  0.00    +0.270 C 
ATOM     18  O   UNL     1       2.292   1.135   0.969  0.00  0.00    -0.485 OA
ENDBRANCH   3   9
BRANCH   1  23
ATOM     19  C   UNL     1      -6.364   5.000   4.567  0.00  0.00    +0.086 C 
ATOM     20  C   UNL     1      -5.954   5.117   3.122  0.00  0.00    +0.102 A 
ATOM     21  C   UNL     1      -5.718   6.265   2.462  0.00  0.00    +0.045 A 
ATOM     22  C   UNL     1      -5.363   5.912   1.140  0.00  0.00    +0.047 A 
ATOM     23  C   UNL     1      -5.403   4.570   1.070  0.00  0.00    +0.130 A 
ATOM     24  O   UNL     1      -5.768   4.094   2.272  0.00  0.00    -0.463 OA
ENDBRANCH   1  23
BRANCH   3  25
ATOM     25  O   UNL     1      -2.518   5.207  -0.087  0.00  0.00    -0.506 OA
ATOM     26  H   UNL     1      -1.583   5.550   0.009  0.00  0.00    +0.292 HD
ENDBRANCH   3  25
BRANCH   8  27
ATOM     27  C   UNL     1      -7.478   2.698  -0.341  0.00  0.00    +0.091 C 
BRANCH  27  28
ATOM     28  C   UNL     1      -7.875   2.740  -1.819  0.00  0.00    -0.060 C 
BRANCH  28  31
ATOM     29  C   UNL     1      -9.824   4.114  -1.402  0.00  0.00    -0.097 C 
ATOM     30  C   UNL     1      -9.771   2.638  -3.321  0.00  0.00    -0.097 C 
ATOM     31  N   UNL     1      -9.348   2.813  -1.915  0.00  0.00    +0.377 N 
ATOM     32  H   UNL     1      -9.757   2.061  -1.348  0.00  0.00    -0.083 HD
ENDBRANCH  28  31
ENDBRANCH  27  28
ENDBRANCH   8  27
TORSDOF 6
