REMARK  Name = ZINC09467936
REMARK  13 active torsions:
REMARK  status: ('A' for Active; 'I' for Inactive)
REMARK    1  A    between atoms: C_1  and  C_2
REMARK    2  A    between atoms: C_2  and  N_3
REMARK    3  A    between atoms: C_7  and  S_28
REMARK    4  A    between atoms: C_11  and  C_12
REMARK    5  A    between atoms: C_12  and  O_13
REMARK    6  A    between atoms: O_13  and  C_14
REMARK    7  A    between atoms: C_14  and  C_16
REMARK    8  A    between atoms: C_16  and  C_17
REMARK    9  A    between atoms: C_17  and  C_18
REMARK   10  A    between atoms: C_18  and  C_19
REMARK   11  A    between atoms: S_28  and  N_31
REMARK   12  A    between atoms: N_31  and  C_32
REMARK   13  A    between atoms: N_31  and  C_33
REMARK                            x       y       z     vdW  Elec       q    Type
REMARK                         _______ _______ _______ _____ _____    ______ ____
ROOT
ATOM      1  N   UNL     1       1.286  -0.454  -0.013  0.00  0.00    -0.325 N 
ATOM      2  C   UNL     1       2.109   0.654  -0.015  0.00  0.00    +0.069 A 
ATOM      3  C   UNL     1       3.486   0.836  -0.027  0.00  0.00    +0.030 A 
ATOM      4  C   UNL     1       4.006   2.112  -0.026  0.00  0.00    +0.030 A 
ATOM      5  C   UNL     1       3.163   3.215  -0.012  0.00  0.00    +0.108 A 
ATOM      6  C   UNL     1       1.807   3.055   0.001  0.00  0.00    +0.058 A 
ATOM      7  C   UNL     1       1.257   1.771  -0.000  0.00  0.00    +0.091 A 
ATOM      8  N   UNL     1      -0.016   1.297   0.009  0.00  0.00    -0.229 NA
ATOM      9  C   UNL     1       0.002  -0.004   0.002  0.00  0.00    +0.149 A 
ENDROOT
BRANCH   5  10
ATOM     10  S   UNL     1       3.851   4.837  -0.011  0.00  0.00    +0.060 S 
ATOM     11  O   UNL     1       2.868   5.694   0.554  0.00  0.00    -0.153 OA
ATOM     12  O   UNL     1       5.161   4.723   0.526  0.00  0.00    -0.153 OA
BRANCH  10  13
ATOM     13  N   UNL     1       4.026   5.296  -1.592  0.00  0.00    -0.183 NA
ATOM     14  C   UNL     1       2.935   5.994  -2.277  0.00  0.00    +0.131 C 
ATOM     15  C   UNL     1       5.271   5.004  -2.306  0.00  0.00    +0.131 C 
ENDBRANCH  10  13
ENDBRANCH   5  10
BRANCH   1  17
ATOM     16  C   UNL     1       1.850  -2.335  -1.471  0.00  0.00    +0.027 C 
ATOM     17  C   UNL     1       1.715  -1.855  -0.024  0.00  0.00    +0.120 C 
ENDBRANCH   1  17
BRANCH   9  18
ATOM     18  C   UNL     1      -1.221  -0.884   0.009  0.00  0.00    +0.306 C 
BRANCH  18  19
ATOM     19  O   UNL     1      -1.627  -1.160  -1.358  0.00  0.00    -0.457 OA
BRANCH  19  20
ATOM     20  C   UNL     1      -2.709  -1.936  -1.527  0.00  0.00    +0.307 C 
ATOM     21  O   UNL     1      -3.297  -2.371  -0.566  0.00  0.00    -0.251 OA
BRANCH  20  22
ATOM     22  C   UNL     1      -3.189  -2.265  -2.917  0.00  0.00    +0.121 C 
BRANCH  22  23
ATOM     23  C   UNL     1      -4.429  -3.158  -2.830  0.00  0.00    +0.018 C 
BRANCH  23  24
ATOM     24  C   UNL     1      -4.917  -3.493  -4.241  0.00  0.00    +0.063 C 
BRANCH  24  25
ATOM     25  C   UNL     1      -6.138  -4.372  -4.155  0.00  0.00    +0.080 A 
ATOM     26  N   UNL     1      -7.389  -4.014  -4.100  0.00  0.00    -0.244 NA
ATOM     27  C   UNL     1      -8.397  -4.908  -4.025  0.00  0.00    +0.078 A 
ATOM     28  C   UNL     1      -9.789  -4.678  -3.959  0.00  0.00    +0.029 A 
ATOM     29  C   UNL     1     -10.662  -5.719  -3.888  0.00  0.00    +0.002 A 
ATOM     30  C   UNL     1     -10.225  -7.037  -3.877  0.00  0.00    +0.001 A 
ATOM     31  C   UNL     1      -8.871  -7.303  -3.940  0.00  0.00    +0.017 A 
ATOM     32  C   UNL     1      -7.981  -6.259  -4.013  0.00  0.00    +0.039 A 
ATOM     33  S   UNL     1      -6.215  -6.106  -4.115  0.00  0.00    -0.072 S 
ENDBRANCH  24  25
ENDBRANCH  23  24
ENDBRANCH  22  23
ENDBRANCH  20  22
ENDBRANCH  19  20
ENDBRANCH  18  19
ENDBRANCH   9  18
TORSDOF 10
