REMARK  Name = ZINC05864256
REMARK  4 active torsions:
REMARK  status: ('A' for Active; 'I' for Inactive)
REMARK    1  A    between atoms: C_6  and  C_7
REMARK    2  A    between atoms: N_12  and  N_13
REMARK    3  A    between atoms: C_14  and  C_15
REMARK    4  A    between atoms: C_17  and  N_21
REMARK                            x       y       z     vdW  Elec       q    Type
REMARK                         _______ _______ _______ _____ _____    ______ ____
ROOT
ATOM      1  C   UNL     1      -0.629   9.646  -0.834  0.00  0.00    +0.080 A 
ATOM      2  C   UNL     1      -1.973  10.107  -0.775  0.00  0.00    +0.077 A 
ATOM      3  S   UNL     1      -2.831   8.625  -0.480  0.00  0.00    -0.059 S 
ATOM      4  C   UNL     1      -1.419   7.533  -0.443  0.00  0.00    +0.178 A 
ATOM      5  N   UNL     1      -0.405   8.373  -0.665  0.00  0.00    -0.224 NA
ATOM      6  N   UNL     1      -1.386   6.203  -0.248  0.00  0.00    -0.215 N 
ATOM      7  H   UNL     1      -0.538   5.732  -0.259  0.00  0.00    +0.176 HD
ENDROOT
BRANCH   1  13
ATOM      8  C   UNL     1       0.224  11.947  -1.265  0.00  0.00    +0.013 A 
ATOM      9  C   UNL     1       1.267  12.819  -1.489  0.00  0.00    +0.039 A 
ATOM     10  C   UNL     1       2.571  12.347  -1.542  0.00  0.00    +0.123 A 
ATOM     11  C   UNL     1       2.833  10.995  -1.365  0.00  0.00    +0.039 A 
ATOM     12  C   UNL     1       1.800  10.114  -1.135  0.00  0.00    +0.013 A 
ATOM     13  C   UNL     1       0.483  10.585  -1.080  0.00  0.00    +0.001 A 
ATOM     14  F   UNL     1       3.589  13.206  -1.768  0.00  0.00    -0.205 F 
ENDBRANCH   1  13
BRANCH   6  15
ATOM     15  N   UNL     1      -2.482   5.553  -0.047  0.00  0.00    -0.188 NA
ATOM     16  C   UNL     1      -2.441   4.264   0.256  0.00  0.00    +0.142 C 
BRANCH  16  17
ATOM     17  C   UNL     1      -1.222   3.667   0.629  0.00  0.00    +0.044 A 
ATOM     18  C   UNL     1      -0.194   4.447   1.199  0.00  0.00    +0.050 A 
ATOM     19  C   UNL     1       0.983   3.866   1.554  0.00  0.00    +0.173 A 
ATOM     20  C   UNL     1       1.181   2.493   1.368  0.00  0.00    +0.213 A 
ATOM     21  C   UNL     1       0.180   1.704   0.813  0.00  0.00    +0.104 A 
ATOM     22  C   UNL     1      -1.022   2.275   0.441  0.00  0.00    +0.191 A 
ATOM     23  O   UNL     1      -2.001   1.512  -0.101  0.00  0.00    -0.287 OA
ATOM     24  O   UNL     1       2.358   1.928   1.731  0.00  0.00    -0.285 OA
BRANCH  19  25
ATOM     25  N   UNL     1       2.060   4.691   2.147  0.00  0.00    +0.060 N 
ATOM     26  O   UNL     1       1.878   5.983   2.324  0.00  0.00    -0.126 OA
ATOM     27  O   UNL     1       3.200   4.132   2.497  0.00  0.00    -0.126 OA
ENDBRANCH  19  25
ENDBRANCH  16  17
ENDBRANCH   6  15
TORSDOF 4
