REMARK  Name = ZINC22790105
REMARK  6 active torsions:
REMARK  status: ('A' for Active; 'I' for Inactive)
REMARK    1  A    between atoms: C_9  and  C_11
REMARK    2  A    between atoms: C_11  and  N_12
REMARK    3  A    between atoms: N_15  and  C_18
REMARK    4  A    between atoms: C_18  and  C_19
REMARK    5  A    between atoms: N_21  and  C_22
REMARK    6  A    between atoms: C_23  and  C_30
REMARK                            x       y       z     vdW  Elec       q    Type
REMARK                         _______ _______ _______ _____ _____    ______ ____
ROOT
ATOM      1  N   UNL     1       1.238  -4.622  -1.291  0.00  0.00    -0.294 NA
ATOM      2  C   UNL     1       0.336  -4.398  -2.429  0.00  0.00    +0.100 C 
ATOM      3  C   UNL     1       1.065  -4.742  -3.730  0.00  0.00    +0.100 C 
ATOM      4  N   UNL     1       1.510  -6.142  -3.683  0.00  0.00    -0.292 NA
ATOM      5  C   UNL     1       2.413  -6.366  -2.545  0.00  0.00    +0.100 C 
ATOM      6  C   UNL     1       1.684  -6.022  -1.244  0.00  0.00    +0.100 C 
ENDROOT
BRANCH   1   7
ATOM      7  C   UNL     1       0.600  -4.230  -0.027  0.00  0.00    +0.137 C 
BRANCH   7  16
ATOM      8  C   UNL     1      -0.017   1.370   0.010  0.00  0.00    +0.104 A 
ATOM      9  C   UNL     1       1.115   2.074   0.003  0.00  0.00    +0.067 A 
ATOM     10  S   UNL     1       2.349   0.782  -0.016  0.00  0.00    -0.059 S 
ATOM     11  C   UNL     1       1.233  -0.605  -0.013  0.00  0.00    +0.158 A 
ATOM     12  N   UNL     1       0.002  -0.004   0.002  0.00  0.00    -0.264 N 
ATOM     13  C   UNL     1      -1.082  -0.836   0.007  0.00  0.00    +0.259 A 
ATOM     14  O   UNL     1      -2.210  -0.370   0.020  0.00  0.00    -0.267 OA
ATOM     15  C   UNL     1      -0.897  -2.219  -0.002  0.00  0.00    +0.093 A 
ATOM     16  C   UNL     1       0.379  -2.739  -0.017  0.00  0.00    +0.037 A 
ATOM     17  N   UNL     1       1.413  -1.902  -0.022  0.00  0.00    -0.338 N 
ATOM     18  H   UNL     1       2.315  -2.258  -0.032  0.00  0.00    +0.168 HD
ENDBRANCH   7  16
ENDBRANCH   1   7
BRANCH   4  19
ATOM     19  C   UNL     1       2.149  -6.534  -4.946  0.00  0.00    +0.180 C 
BRANCH  19  20
ATOM     20  C   UNL     1       2.370  -8.025  -4.956  0.00  0.00    +0.232 C 
ATOM     21  O   UNL     1       2.029  -8.694  -4.005  0.00  0.00    -0.274 OA
ATOM     22  N   UNL     1       2.946  -8.613  -6.023  0.00  0.00    -0.278 N 
ATOM     23  H   UNL     1       3.219  -8.078  -6.784  0.00  0.00    +0.155 HD
BRANCH  22  24
ATOM     24  C   UNL     1       3.149  -9.985  -6.032  0.00  0.00    +0.084 A 
ATOM     25  C   UNL     1       3.725 -10.752  -7.027  0.00  0.00    +0.068 A 
ATOM     26  C   UNL     1       3.824 -12.192  -6.791  0.00  0.00    -0.023 A 
ATOM     27  C   UNL     1       3.327 -12.588  -5.605  0.00  0.00    -0.004 A 
ATOM     28  S   UNL     1       2.759 -11.093  -4.835  0.00  0.00    -0.077 S 
ATOM     29  C   UNL     1       3.450 -14.076  -5.415  0.00  0.00    +0.043 C 
ATOM     30  C   UNL     1       3.709 -14.631  -6.833  0.00  0.00    +0.010 C 
ATOM     31  C   UNL     1       4.353 -13.417  -7.534  0.00  0.00    +0.037 C 
BRANCH  25  32
ATOM     32  C   UNL     1       4.216 -10.148  -8.269  0.00  0.00    +0.244 C 
ATOM     33  O   UNL     1       5.367  -9.759  -8.344  0.00  0.00    -0.270 OA
ATOM     34  N   UNL     1       3.393 -10.022  -9.329  0.00  0.00    -0.325 N 
ATOM     35  H   UNL     1       2.475 -10.332  -9.270  0.00  0.00    +0.145 HD
ATOM     36  H   UNL     1       3.718  -9.622 -10.151  0.00  0.00    +0.145 HD
ENDBRANCH  25  32
ENDBRANCH  22  24
ENDBRANCH  19  20
ENDBRANCH   4  19
TORSDOF 6
