REMARK  Name = ZINC09642122
REMARK  7 active torsions:
REMARK  status: ('A' for Active; 'I' for Inactive)
REMARK    1  A    between atoms: C_1  and  C_2
REMARK    2  A    between atoms: C_2  and  C_3
REMARK    3  A    between atoms: C_6  and  C_9
REMARK    4  A    between atoms: C_9  and  N_10
REMARK    5  A    between atoms: C_11  and  C_13
REMARK    6  A    between atoms: C_24  and  C_27
REMARK    7  A    between atoms: C_25  and  C_26
REMARK                            x       y       z     vdW  Elec       q    Type
REMARK                         _______ _______ _______ _____ _____    ______ ____
ROOT
ATOM      1  C   UNL     1      -2.836   7.153  -1.053  0.00  0.00    +0.078 C 
ATOM      2  C   UNL     1      -1.408   7.246  -0.511  0.00  0.00    +0.031 C 
ATOM      3  C   UNL     1      -1.210   6.189   0.579  0.00  0.00    +0.107 C 
ATOM      4  N   UNL     1      -1.562   4.872   0.030  0.00  0.00    -0.314 N 
ATOM      5  C   UNL     1      -2.877   4.699  -0.602  0.00  0.00    +0.107 C 
ATOM      6  C   UNL     1      -3.059   5.772  -1.673  0.00  0.00    +0.031 C 
ATOM      7  C   UNL     1      -0.672   3.819   0.102  0.00  0.00    +0.148 C 
ATOM      8  N   UNL     1       0.612   4.035   0.143  0.00  0.00    -0.113 NA
ATOM      9  S   UNL     1       1.300   2.511   0.224  0.00  0.00    +0.101 S 
ATOM     10  O   UNL     1       1.899   2.374   1.505  0.00  0.00    -0.146 OA
ATOM     11  O   UNL     1       1.994   2.284  -0.995  0.00  0.00    -0.146 OA
ATOM     12  C   UNL     1      -0.174   1.512   0.204  0.00  0.00    +0.126 C 
ATOM     13  C   UNL     1      -1.147   2.449   0.128  0.00  0.00    +0.018 C 
ATOM     14  C   UNL     1      -2.611   2.097   0.078  0.00  0.00    +0.049 C 
ENDROOT
BRANCH  12  15
ATOM     15  C   UNL     1      -0.301   0.046   0.251  0.00  0.00    +0.002 A 
ATOM     16  C   UNL     1      -1.321  -0.547   1.002  0.00  0.00    +0.011 A 
ATOM     17  C   UNL     1      -1.437  -1.920   1.037  0.00  0.00    +0.020 A 
ATOM     18  C   UNL     1      -0.540  -2.713   0.340  0.00  0.00    +0.041 A 
ATOM     19  C   UNL     1       0.476  -2.132  -0.401  0.00  0.00    +0.020 A 
ATOM     20  C   UNL     1       0.601  -0.760  -0.450  0.00  0.00    +0.011 A 
ATOM     21 CL   UNL     1      -0.689  -4.441   0.396  0.00  0.00    -0.084 Cl
ENDBRANCH  12  15
BRANCH   1  23
ATOM     22  N   UNL     1      -4.237   8.323  -2.722  0.00  0.00    -0.311 N 
ATOM     23  C   UNL     1      -3.046   8.215  -2.102  0.00  0.00    +0.216 C 
ATOM     24  O   UNL     1      -2.142   8.971  -2.388  0.00  0.00    -0.276 OA
ATOM     25  H   UNL     1      -4.960   7.718  -2.493  0.00  0.00    +0.149 HD
BRANCH  22  26
ATOM     26  C   UNL     1      -4.441   9.355  -3.742  0.00  0.00    +0.139 C 
BRANCH  26  30
ATOM     27  C   UNL     1      -8.427   9.096  -5.255  0.00  0.00    -0.048 A 
ATOM     28  C   UNL     1      -8.153   9.900  -4.164  0.00  0.00    +0.004 A 
ATOM     29  C   UNL     1      -6.863   9.984  -3.675  0.00  0.00    +0.005 A 
ATOM     30  C   UNL     1      -5.847   9.264  -4.275  0.00  0.00    -0.030 A 
ATOM     31  C   UNL     1      -6.121   8.464  -5.369  0.00  0.00    +0.005 A 
ATOM     32  C   UNL     1      -7.412   8.377  -5.856  0.00  0.00    +0.004 A 
BRANCH  27  34
ATOM     33  C   UNL     1     -10.048  10.082  -6.852  0.00  0.00    +0.009 C 
ATOM     34  C   UNL     1      -9.834   9.004  -5.788  0.00  0.00    +0.032 C 
ENDBRANCH  27  34
ENDBRANCH  26  30
ENDBRANCH  22  26
ENDBRANCH   1  23
TORSDOF 5
