REMARK  Name = ZINC08984208
REMARK  10 active torsions:
REMARK  status: ('A' for Active; 'I' for Inactive)
REMARK    1  A    between atoms: C_1  and  C_2
REMARK    2  A    between atoms: C_3  and  C_33
REMARK    3  A    between atoms: N_6  and  C_25
REMARK    4  A    between atoms: C_7  and  N_56
REMARK    5  A    between atoms: C_9  and  C_11
REMARK    6  A    between atoms: C_9  and  C_21
REMARK    7  A    between atoms: C_9  and  N_56
REMARK    8  A    between atoms: C_21  and  O_23
REMARK    9  A    between atoms: O_23  and  C_24
REMARK   10  A    between atoms: C_25  and  C_26
REMARK                            x       y       z     vdW  Elec       q    Type
REMARK                         _______ _______ _______ _____ _____    ______ ____
ROOT
ATOM      1  N   UNL     1      -2.101   7.441  -1.516  0.00  0.00    +0.405 N 
ATOM      2  H   UNL     1      -2.394   8.123  -2.225  0.00  0.00    -0.081 HD
ATOM      3  H   UNL     1      -1.539   7.914  -0.798  0.00  0.00    -0.081 HD
ENDROOT
BRANCH   1  10
ATOM      4  C   UNL     1      -1.616   7.291  -4.676  0.00  0.00    +0.039 C 
ATOM      5  C   UNL     1      -0.778   6.876  -3.494  0.00  0.00    -0.062 C 
ATOM      6  C   UNL     1       0.549   6.868  -3.430  0.00  0.00    +0.010 C 
ATOM      7  C   UNL     1       0.980   6.403  -2.108  0.00  0.00    +0.241 C 
ATOM      8  O   UNL     1       2.137   6.293  -1.750  0.00  0.00    -0.270 OA
ATOM      9  N   UNL     1      -0.094   6.113  -1.349  0.00  0.00    -0.304 N 
ATOM     10  C   UNL     1      -1.288   6.391  -2.157  0.00  0.00    +0.048 C 
ATOM     11  C   UNL     1       1.473   7.279  -4.548  0.00  0.00    +0.049 C 
BRANCH   9  12
ATOM     12  C   UNL     1      -0.074   5.619   0.030  0.00  0.00    +0.141 C 
BRANCH  12  13
ATOM     13  C   UNL     1      -0.054   4.112   0.023  0.00  0.00    -0.030 A 
ATOM     14  C   UNL     1       1.153   3.438   0.009  0.00  0.00    +0.008 A 
ATOM     15  C   UNL     1       1.173   2.056   0.002  0.00  0.00    +0.038 A 
ATOM     16  C   UNL     1      -0.016   1.347   0.009  0.00  0.00    +0.123 A 
ATOM     17  C   UNL     1      -1.224   2.023   0.019  0.00  0.00    +0.038 A 
ATOM     18  C   UNL     1      -1.242   3.405   0.031  0.00  0.00    +0.008 A 
ATOM     19  F   UNL     1       0.002  -0.004   0.002  0.00  0.00    -0.205 F 
ENDBRANCH  12  13
ENDBRANCH   9  12
ENDBRANCH   1  10
BRANCH   1  20
ATOM     20  C   UNL     1      -3.297   6.851  -0.886  0.00  0.00    +0.073 C 
BRANCH  20  21
ATOM     21  C   UNL     1      -3.763   7.749   0.231  0.00  0.00    -0.050 A 
ATOM     22  C   UNL     1      -3.729   9.132   0.059  0.00  0.00    +0.003 A 
ATOM     23  C   UNL     1      -4.143   9.971   1.047  0.00  0.00    +0.009 A 
ATOM     24  C   UNL     1      -4.611   9.439   2.260  0.00  0.00    -0.018 A 
ATOM     25  C   UNL     1      -5.047  10.274   3.304  0.00  0.00    +0.008 A 
ATOM     26  C   UNL     1      -5.495   9.723   4.465  0.00  0.00    +0.001 A 
ATOM     27  C   UNL     1      -5.528   8.341   4.637  0.00  0.00    +0.001 A 
ATOM     28  C   UNL     1      -5.114   7.501   3.649  0.00  0.00    +0.008 A 
ATOM     29  C   UNL     1      -4.645   8.033   2.436  0.00  0.00    -0.018 A 
ATOM     30  C   UNL     1      -4.215   7.198   1.390  0.00  0.00    +0.011 A 
ENDBRANCH  20  21
BRANCH  20  31
ATOM     31  C   UNL     1      -4.392   6.717  -1.913  0.00  0.00    +0.297 C 
ATOM     32  O   UNL     1      -4.198   7.069  -3.052  0.00  0.00    -0.252 OA
BRANCH  31  33
ATOM     33  O   UNL     1      -5.583   6.207  -1.561  0.00  0.00    -0.469 OA
ATOM     34  C   UNL     1      -6.590   6.107  -2.602  0.00  0.00    +0.280 C 
ENDBRANCH  31  33
ENDBRANCH  20  31
ENDBRANCH   1  20
TORSDOF 7
