REMARK  Name = ZINC14164257
REMARK  8 active torsions:
REMARK  status: ('A' for Active; 'I' for Inactive)
REMARK    1  A    between atoms: C_4  and  C_7
REMARK    2  A    between atoms: C_7  and  N_8
REMARK    3  A    between atoms: N_8  and  C_9
REMARK    4  A    between atoms: C_17  and  C_19
REMARK    5  A    between atoms: C_19  and  S_20
REMARK    6  A    between atoms: S_20  and  C_21
REMARK    7  A    between atoms: C_24  and  C_26
REMARK    8  A    between atoms: C_26  and  C_27
REMARK                            x       y       z     vdW  Elec       q    Type
REMARK                         _______ _______ _______ _____ _____    ______ ____
ROOT
ATOM      1  N   UNL     1      -4.510   4.302  -9.450  0.00  0.00    -0.292 N 
ATOM      2  C   UNL     1      -3.748   3.363  -8.855  0.00  0.00    +0.226 C 
ATOM      3  O   UNL     1      -3.161   3.621  -7.825  0.00  0.00    -0.275 OA
ENDROOT
BRANCH   1   4
ATOM      4  C   UNL     1      -4.550   5.663  -8.910  0.00  0.00    +0.099 C 
ATOM      5  C   UNL     1      -3.133   6.260  -8.924  0.00  0.00    +0.047 C 
ATOM      6  C   UNL     1      -3.146   7.559  -8.070  0.00  0.00    +0.168 C 
ATOM      7  S   UNL     1      -4.209   7.028  -6.662  0.00  0.00    -0.029 S 
ATOM      8  O   UNL     1      -3.382   6.522  -5.623  0.00  0.00    -0.174 OA
ATOM      9  O   UNL     1      -5.143   8.059  -6.373  0.00  0.00    -0.174 OA
ATOM     10  C   UNL     1      -5.092   5.626  -7.461  0.00  0.00    +0.188 C 
ENDBRANCH   1   4
BRANCH   1  11
ATOM     11  C   UNL     1      -5.300   3.961 -10.636  0.00  0.00    +0.143 C 
BRANCH  11  15
ATOM     12  C   UNL     1      -9.287   2.980  -9.461  0.00  0.00    +0.000 A 
ATOM     13  C   UNL     1      -8.961   4.287  -9.774  0.00  0.00    +0.000 A 
ATOM     14  C   UNL     1      -7.670   4.604 -10.155  0.00  0.00    +0.005 A 
ATOM     15  C   UNL     1      -6.706   3.615 -10.221  0.00  0.00    -0.030 A 
ATOM     16  C   UNL     1      -7.034   2.308  -9.912  0.00  0.00    +0.005 A 
ATOM     17  C   UNL     1      -8.323   1.992  -9.527  0.00  0.00    +0.000 A 
ENDBRANCH  11  15
ENDBRANCH   1  11
BRANCH   2  18
ATOM     18  C   UNL     1      -3.624   1.993  -9.470  0.00  0.00    +0.175 C 
BRANCH  18  19
ATOM     19  S   UNL     1      -2.500   0.984  -8.473  0.00  0.00    -0.056 S 
BRANCH  19  20
ATOM     20  C   UNL     1      -2.539  -0.518  -9.393  0.00  0.00    +0.278 A 
ATOM     21  N   UNL     1      -3.227  -0.743 -10.487  0.00  0.00    -0.101 NA
ATOM     22  N   UNL     1      -3.015  -1.948 -10.883  0.00  0.00    -0.112 NA
ATOM     23  C   UNL     1      -2.192  -2.537 -10.066  0.00  0.00    +0.219 A 
ATOM     24  O   UNL     1      -1.874  -1.652  -9.100  0.00  0.00    -0.416 OA
BRANCH  23  25
ATOM     25  C   UNL     1      -1.690  -3.954 -10.175  0.00  0.00    +0.103 C 
BRANCH  25  26
ATOM     26  C   UNL     1      -0.406  -3.977 -11.006  0.00  0.00    +0.020 C 
ATOM     27  C   UNL     1      -0.721  -3.533 -12.444  0.00  0.00    +0.028 C 
ATOM     28  C   UNL     1       0.512  -3.863 -13.334  0.00  0.00    +0.166 C 
ATOM     29  S   UNL     1       0.979  -5.520 -12.663  0.00  0.00    -0.031 S 
ATOM     30  O   UNL     1       2.388  -5.569 -12.491  0.00  0.00    -0.174 OA
ATOM     31  O   UNL     1       0.331  -6.529 -13.425  0.00  0.00    -0.174 OA
ATOM     32  C   UNL     1       0.177  -5.411 -11.011  0.00  0.00    +0.170 C 
ENDBRANCH  25  26
ENDBRANCH  23  25
ENDBRANCH  19  20
ENDBRANCH  18  19
ENDBRANCH   2  18
TORSDOF 8
