REMARK  Name = ZINC36545459
REMARK  9 active torsions:
REMARK  status: ('A' for Active; 'I' for Inactive)
REMARK    1  A    between atoms: C_1  and  C_2
REMARK    2  A    between atoms: C_3  and  C_4
REMARK    3  A    between atoms: C_4  and  C_6
REMARK    4  A    between atoms: C_4  and  N_15
REMARK    5  A    between atoms: N_8  and  C_9
REMARK    6  A    between atoms: N_15  and  C_16
REMARK    7  A    between atoms: C_23  and  C_25
REMARK    8  A    between atoms: C_29  and  O_32
REMARK    9  A    between atoms: C_30  and  O_31
REMARK                            x       y       z     vdW  Elec       q    Type
REMARK                         _______ _______ _______ _____ _____    ______ ____
ROOT
ATOM      1  N   UNL     1       1.581   1.591  -1.916  0.00  0.00    -0.250 N 
ATOM      2  C   UNL     1       0.752   2.439  -2.558  0.00  0.00    +0.255 C 
ATOM      3  O   UNL     1      -0.057   2.010  -3.357  0.00  0.00    -0.269 OA
ENDROOT
BRANCH   1   4
ATOM      4  C   UNL     1       2.432   2.069  -0.913  0.00  0.00    +0.056 A 
ATOM      5  C   UNL     1       3.707   2.513  -1.237  0.00  0.00    +0.025 A 
ATOM      6  C   UNL     1       4.545   2.985  -0.246  0.00  0.00    +0.002 A 
ATOM      7  C   UNL     1       4.116   3.015   1.069  0.00  0.00    +0.002 A 
ATOM      8  C   UNL     1       2.847   2.574   1.395  0.00  0.00    +0.022 A 
ATOM      9  C   UNL     1       2.001   2.106   0.407  0.00  0.00    +0.062 A 
ATOM     10 CL   UNL     1       0.405   1.558   0.817  0.00  0.00    -0.082 Cl
ENDBRANCH   1   4
BRANCH   2  11
ATOM     11  C   UNL     1       0.828   3.888  -2.290  0.00  0.00    +0.082 A 
ATOM     12  C   UNL     1       2.044   4.564  -2.421  0.00  0.00    +0.017 A 
ATOM     13  C   UNL     1       2.110   5.917  -2.170  0.00  0.00    +0.005 A 
ATOM     14  C   UNL     1       0.976   6.614  -1.786  0.00  0.00    +0.049 A 
ATOM     15  C   UNL     1      -0.236   5.958  -1.652  0.00  0.00    +0.159 A 
ATOM     16  C   UNL     1      -0.320   4.593  -1.908  0.00  0.00    +0.171 A 
BRANCH  16  17
ATOM     17  O   UNL     1      -1.507   3.947  -1.782  0.00  0.00    -0.503 OA
ATOM     18  H   UNL     1      -1.671   3.594  -0.897  0.00  0.00    +0.292 HD
ENDBRANCH  16  17
BRANCH  15  19
ATOM     19  O   UNL     1      -1.345   6.649  -1.274  0.00  0.00    -0.503 OA
ATOM     20  H   UNL     1      -1.850   7.016  -2.013  0.00  0.00    +0.292 HD
ENDBRANCH  15  19
ENDBRANCH   2  11
BRANCH   1  21
ATOM     21  C   UNL     1       1.589   0.169  -2.267  0.00  0.00    +0.190 C 
BRANCH  21  22
ATOM     22  C   UNL     1       2.917  -0.187  -2.887  0.00  0.00    +0.238 C 
ATOM     23  O   UNL     1       3.771   0.663  -3.021  0.00  0.00    -0.273 OA
ATOM     24  N   UNL     1       3.154  -1.450  -3.291  0.00  0.00    -0.311 N 
ATOM     25  H   UNL     1       2.471  -2.131  -3.184  0.00  0.00    +0.149 HD
BRANCH  24  26
ATOM     26  C   UNL     1       4.444  -1.796  -3.893  0.00  0.00    +0.073 C 
ATOM     27  C   UNL     1       4.410  -1.480  -5.390  0.00  0.00    +0.022 C 
ATOM     28  C   UNL     1       5.757  -1.841  -6.018  0.00  0.00    +0.002 C 
ATOM     29  C   UNL     1       6.029  -3.333  -5.819  0.00  0.00    +0.000 C 
ATOM     30  C   UNL     1       6.063  -3.650  -4.323  0.00  0.00    +0.002 C 
ATOM     31  C   UNL     1       4.716  -3.289  -3.694  0.00  0.00    +0.022 C 
ENDBRANCH  24  26
ENDBRANCH  21  22
BRANCH  21  34
ATOM     32  C   UNL     1      -0.546  -1.668  -2.139  0.00  0.00    +0.035 C 
ATOM     33  C   UNL     1       0.352  -1.468  -0.945  0.00  0.00    -0.032 C 
ATOM     34  C   UNL     1       1.377  -0.657  -1.025  0.00  0.00    +0.000 C 
ENDBRANCH  21  34
ENDBRANCH   1  21
TORSDOF 8
