REMARK  Name = ZINC06193555
REMARK  10 active torsions:
REMARK  status: ('A' for Active; 'I' for Inactive)
REMARK    1  A    between atoms: C_1  and  C_2
REMARK    2  A    between atoms: C_4  and  C_40
REMARK    3  A    between atoms: C_7  and  C_14
REMARK    4  A    between atoms: C_14  and  C_16
REMARK    5  A    between atoms: C_14  and  N_72
REMARK    6  A    between atoms: N_20  and  C_21
REMARK    7  A    between atoms: C_27  and  C_28
REMARK    8  A    between atoms: C_27  and  N_72
REMARK    9  A    between atoms: C_34  and  C_35
REMARK   10  A    between atoms: C_34  and  N_72
REMARK                            x       y       z     vdW  Elec       q    Type
REMARK                         _______ _______ _______ _____ _____    ______ ____
ROOT
ATOM      1  C   UNL     1      -3.588   6.177   0.163  0.00  0.00    +0.040 C 
ENDROOT
BRANCH   1   8
ATOM      2  C   UNL     1       3.274   2.422   1.724  0.00  0.00    +0.044 C 
ATOM      3  C   UNL     1       1.887   2.917   1.406  0.00  0.00    -0.048 A 
ATOM      4  C   UNL     1       0.870   2.004   1.165  0.00  0.00    +0.007 A 
ATOM      5  C   UNL     1      -0.394   2.432   0.871  0.00  0.00    -0.041 A 
ATOM      6  C   UNL     1      -0.668   3.803   0.822  0.00  0.00    +0.002 A 
ATOM      7  C   UNL     1      -2.012   4.296   0.515  0.00  0.00    +0.018 A 
ATOM      8  C   UNL     1      -2.217   5.636   0.476  0.00  0.00    +0.011 A 
ATOM      9  C   UNL     1      -1.151   6.526   0.728  0.00  0.00    +0.251 A 
ATOM     10  O   UNL     1      -1.357   7.726   0.688  0.00  0.00    -0.268 OA
ATOM     11  N   UNL     1       0.087   6.082   1.011  0.00  0.00    -0.322 N 
ATOM     12  H   UNL     1       0.797   6.721   1.180  0.00  0.00    +0.169 HD
ATOM     13  C   UNL     1       0.361   4.732   1.066  0.00  0.00    +0.050 A 
ATOM     14  C   UNL     1       1.641   4.273   1.358  0.00  0.00    +0.029 A 
ATOM     15  C   UNL     1      -1.489   1.431   0.604  0.00  0.00    +0.044 C 
ENDBRANCH   1   8
BRANCH   1  16
ATOM     16  C   UNL     1      -4.128   6.905   1.367  0.00  0.00    +0.143 A 
ATOM     17  N   UNL     1      -3.763   8.089   1.794  0.00  0.00    -0.115 NA
ATOM     18  N   UNL     1      -4.454   8.363   2.847  0.00  0.00    -0.023 NA
ATOM     19  N   UNL     1      -5.249   7.383   3.103  0.00  0.00    -0.044 NA
ATOM     20  N   UNL     1      -5.082   6.467   2.209  0.00  0.00    -0.227 N 
BRANCH  20  21
ATOM     21  C   UNL     1      -5.794   5.190   2.130  0.00  0.00    +0.111 C 
ATOM     22  C   UNL     1      -7.294   5.451   1.977  0.00  0.00    +0.027 C 
ATOM     23  C   UNL     1      -8.038   4.116   1.894  0.00  0.00    +0.002 C 
ATOM     24  C   UNL     1      -7.788   3.312   3.171  0.00  0.00    +0.000 C 
ATOM     25  C   UNL     1      -6.288   3.051   3.323  0.00  0.00    +0.002 C 
ATOM     26  C   UNL     1      -5.544   4.385   3.407  0.00  0.00    +0.027 C 
ENDBRANCH  20  21
ENDBRANCH   1  16
BRANCH   1  27
ATOM     27  N   UNL     1      -3.487   7.129  -0.963  0.00  0.00    +0.397 N 
ATOM     28  H   UNL     1      -3.016   7.981  -0.638  0.00  0.00    -0.079 HD
BRANCH  27  29
ATOM     29  C   UNL     1      -2.698   6.532  -2.060  0.00  0.00    -0.039 C 
BRANCH  29  30
ATOM     30  C   UNL     1      -2.287   7.626  -3.012  0.00  0.00    -0.046 A 
ATOM     31  C   UNL     1      -3.120   7.998  -4.056  0.00  0.00    +0.005 A 
ATOM     32  C   UNL     1      -2.703   9.013  -4.904  0.00  0.00    +0.020 A 
ATOM     33  C   UNL     1      -1.475   9.610  -4.687  0.00  0.00    +0.111 A 
ATOM     34  N   UNL     1      -0.707   9.227  -3.686  0.00  0.00    -0.263 NA
ATOM     35  C   UNL     1      -1.073   8.268  -2.857  0.00  0.00    +0.112 A 
ENDBRANCH  29  30
ENDBRANCH  27  29
BRANCH  27  36
ATOM     36  C   UNL     1      -4.838   7.483  -1.448  0.00  0.00    -0.001 C 
BRANCH  36  37
ATOM     37  C   UNL     1      -5.519   6.277  -2.043  0.00  0.00    +0.089 A 
ATOM     38  C   UNL     1      -6.358   5.448  -1.397  0.00  0.00    +0.042 A 
ATOM     39  C   UNL     1      -6.758   4.462  -2.329  0.00  0.00    +0.041 A 
ATOM     40  C   UNL     1      -6.138   4.748  -3.489  0.00  0.00    +0.195 A 
ATOM     41  O   UNL     1      -5.394   5.852  -3.311  0.00  0.00    -0.470 OA
ENDBRANCH  36  37
ENDBRANCH  27  36
ENDBRANCH   1  27
TORSDOF 8
