REMARK  Name = ZINC08837142
REMARK  9 active torsions:
REMARK  status: ('A' for Active; 'I' for Inactive)
REMARK    1  A    between atoms: C_1  and  C_2
REMARK    2  A    between atoms: C_5  and  N_8
REMARK    3  A    between atoms: C_12  and  C_13
REMARK    4  A    between atoms: C_13  and  O_15
REMARK    5  A    between atoms: O_15  and  C_16
REMARK    6  A    between atoms: C_18  and  N_19
REMARK    7  A    between atoms: N_19  and  C_20
REMARK    8  A    between atoms: C_22  and  C_27
REMARK    9  A    between atoms: C_24  and  C_26
REMARK                            x       y       z     vdW  Elec       q    Type
REMARK                         _______ _______ _______ _____ _____    ______ ____
ROOT
ATOM      1  N   UNL     1       0.007  -4.175  -0.016  0.00  0.00    -0.205 N 
ATOM      2  C   UNL     1      -0.103  -4.969  -1.105  0.00  0.00    +0.276 C 
ATOM      3  O   UNL     1      -0.332  -4.626  -2.247  0.00  0.00    -0.268 OA
ATOM      4  C   UNL     1       0.116  -6.355  -0.602  0.00  0.00    +0.136 C 
ATOM      5  C   UNL     1       0.102  -7.508  -1.335  0.00  0.00    +0.124 C 
ATOM      6  N   UNL     1       0.332  -6.239   0.724  0.00  0.00    -0.211 NA
ATOM      7  C   UNL     1       0.275  -4.973   1.069  0.00  0.00    +0.222 C 
ENDROOT
BRANCH   1  12
ATOM      8  C   UNL     1      -0.524   1.475   0.055  0.00  0.00    +0.044 C 
ATOM      9  C   UNL     1      -0.383  -0.025   0.036  0.00  0.00    -0.050 A 
ATOM     10  C   UNL     1      -0.526  -0.717  -1.153  0.00  0.00    +0.005 A 
ATOM     11  C   UNL     1      -0.397  -2.092  -1.173  0.00  0.00    +0.024 A 
ATOM     12  C   UNL     1      -0.123  -2.780   0.002  0.00  0.00    +0.044 A 
ATOM     13  C   UNL     1       0.020  -2.083   1.194  0.00  0.00    +0.024 A 
ATOM     14  C   UNL     1      -0.105  -0.707   1.207  0.00  0.00    +0.005 A 
ENDBRANCH   1  12
BRANCH   5  15
ATOM     15  C   UNL     1      -0.008  -7.446  -2.791  0.00  0.00    +0.334 C 
ATOM     16  O   UNL     1      -0.022  -6.369  -3.355  0.00  0.00    -0.246 OA
BRANCH  15  17
ATOM     17  O   UNL     1      -0.094  -8.585  -3.510  0.00  0.00    -0.465 OA
ATOM     18  C   UNL     1      -0.199  -8.451  -4.929  0.00  0.00    +0.280 C 
ENDBRANCH  15  17
ENDBRANCH   5  15
BRANCH   7  19
ATOM     19  N   UNL     1       0.456  -4.510   2.345  0.00  0.00    -0.145 NA
BRANCH  19  20
ATOM     20  C   UNL     1       0.724  -5.400   3.375  0.00  0.00    +0.242 A 
ATOM     21  N   UNL     1       0.806  -6.694   3.106  0.00  0.00    -0.218 NA
ATOM     22  C   UNL     1       1.060  -7.570   4.064  0.00  0.00    +0.044 A 
ATOM     23  C   UNL     1       1.240  -7.118   5.362  0.00  0.00    +0.046 A 
ATOM     24  C   UNL     1       1.146  -5.757   5.609  0.00  0.00    +0.044 A 
ATOM     25  N   UNL     1       0.896  -4.935   4.603  0.00  0.00    -0.218 NA
ATOM     26  C   UNL     1       1.335  -5.220   7.004  0.00  0.00    +0.066 C 
ATOM     27  C   UNL     1       1.151  -9.040   3.749  0.00  0.00    +0.066 C 
ENDBRANCH  19  20
ENDBRANCH   7  19
TORSDOF 5
