REMARK  Name = ZINC03380375
REMARK  8 active torsions:
REMARK  status: ('A' for Active; 'I' for Inactive)
REMARK    1  A    between atoms: C_1  and  C_2
REMARK    2  A    between atoms: C_9  and  N_13
REMARK    3  A    between atoms: C_10  and  C_11
REMARK    4  A    between atoms: C_14  and  C_16
REMARK    5  A    between atoms: C_16  and  N_48
REMARK    6  A    between atoms: C_17  and  N_48
REMARK    7  A    between atoms: C_18  and  C_19
REMARK    8  A    between atoms: C_18  and  N_48
REMARK                            x       y       z     vdW  Elec       q    Type
REMARK                         _______ _______ _______ _____ _____    ______ ____
ROOT
ATOM      1  N   UNL     1       1.932  -5.847  -1.734  0.00  0.00    -0.281 N 
ATOM      2  C   UNL     1       2.229  -6.109  -3.022  0.00  0.00    +0.201 C 
ATOM      3  O   UNL     1       2.201  -5.218  -3.844  0.00  0.00    -0.278 OA
ATOM      4  H   UNL     1       1.955  -6.559  -1.076  0.00  0.00    +0.155 HD
ENDROOT
BRANCH   1  12
ATOM      5  C   UNL     1      -0.019   1.526   0.010  0.00  0.00    +0.008 C 
ATOM      6  C   UNL     1       0.002  -0.004   0.002  0.00  0.00    -0.009 C 
ATOM      7  C   UNL     1       0.742  -0.514   1.242  0.00  0.00    +0.008 C 
ATOM      8  C   UNL     1       0.556  -2.027   1.373  0.00  0.00    +0.037 C 
ATOM      9  C   UNL     1       0.941  -2.684   0.054  0.00  0.00    -0.018 A 
ATOM     10  C   UNL     1       1.008  -1.965  -1.089  0.00  0.00    -0.004 A 
ATOM     11  S   UNL     1       1.485  -3.134  -2.331  0.00  0.00    -0.077 S 
ATOM     12  C   UNL     1       1.593  -4.557  -1.349  0.00  0.00    +0.090 A 
ATOM     13  C   UNL     1       1.258  -4.095  -0.084  0.00  0.00    +0.084 A 
ATOM     14  C   UNL     1       0.736  -0.502  -1.252  0.00  0.00    +0.046 C 
BRANCH  13  15
ATOM     15  C   UNL     1       1.226  -4.977   1.044  0.00  0.00    +0.102 C 
ATOM     16  N   UNL     1       1.200  -5.676   1.938  0.00  0.00    -0.191 NA
ENDBRANCH  13  15
ENDBRANCH   1  12
BRANCH   2  17
ATOM     17  C   UNL     1       2.598  -7.509  -3.440  0.00  0.00    +0.019 C 
BRANCH  17  19
ATOM     18  C   UNL     1       4.074  -6.746  -5.200  0.00  0.00    -0.095 C 
ATOM     19  N   UNL     1       2.853  -7.521  -4.896  0.00  0.00    +0.386 N 
ATOM     20  H   UNL     1       2.055  -7.089  -5.377  0.00  0.00    -0.081 HD
BRANCH  19  21
ATOM     21  C   UNL     1       3.005  -8.912  -5.371  0.00  0.00    -0.041 C 
BRANCH  21  22
ATOM     22  C   UNL     1       3.043  -8.909  -6.878  0.00  0.00    -0.044 A 
ATOM     23  C   UNL     1       4.239  -9.119  -7.539  0.00  0.00    +0.003 A 
ATOM     24  C   UNL     1       4.274  -9.116  -8.921  0.00  0.00    +0.002 A 
ATOM     25  C   UNL     1       3.114  -8.904  -9.643  0.00  0.00    +0.021 A 
ATOM     26  C   UNL     1       1.917  -8.695  -8.982  0.00  0.00    +0.059 A 
ATOM     27  C   UNL     1       1.881  -8.703  -7.598  0.00  0.00    +0.061 A 
ATOM     28 CL   UNL     1       0.378  -8.448  -6.768  0.00  0.00    -0.082 Cl
ATOM     29 CL   UNL     1       0.461  -8.428  -9.888  0.00  0.00    -0.082 Cl
ENDBRANCH  21  22
ENDBRANCH  19  21
ENDBRANCH  17  19
ENDBRANCH   2  17
TORSDOF 6
