REMARK  Name = ZINC04319274
REMARK  6 active torsions:
REMARK  status: ('A' for Active; 'I' for Inactive)
REMARK    1  A    between atoms: C_3  and  N_11
REMARK    2  A    between atoms: C_6  and  N_7
REMARK    3  A    between atoms: C_12  and  C_14
REMARK    4  A    between atoms: C_14  and  O_15
REMARK    5  A    between atoms: O_15  and  C_16
REMARK    6  A    between atoms: C_16  and  C_18
REMARK                            x       y       z     vdW  Elec       q    Type
REMARK                         _______ _______ _______ _____ _____    ______ ____
ROOT
ATOM      1  N   UNL     1       3.584   2.126  -0.021  0.00  0.00    -0.281 N 
ATOM      2  C   UNL     1       3.568   3.470  -0.116  0.00  0.00    +0.255 C 
ATOM      3  O   UNL     1       2.512   4.066  -0.103  0.00  0.00    -0.272 OA
ATOM      4  H   UNL     1       4.429   1.655   0.049  0.00  0.00    +0.155 HD
ENDROOT
BRANCH   1   7
ATOM      5  C   UNL     1       0.065   1.242  -0.620  0.00  0.00    +0.034 A 
ATOM      6  C   UNL     1       1.250   1.952  -0.618  0.00  0.00    +0.027 A 
ATOM      7  C   UNL     1       2.381   1.409  -0.024  0.00  0.00    +0.052 A 
ATOM      8  C   UNL     1       2.317   0.153   0.567  0.00  0.00    +0.064 A 
ATOM      9  C   UNL     1       1.128  -0.551   0.562  0.00  0.00    +0.054 A 
ATOM     10  C   UNL     1       0.004  -0.007  -0.031  0.00  0.00    +0.128 A 
ATOM     11 CL   UNL     1       3.729  -0.530   1.311  0.00  0.00    -0.082 Cl
BRANCH  10  12
ATOM     12  N   UNL     1      -1.268  -0.764  -0.035  0.00  0.00    +0.056 N 
ATOM     13  O   UNL     1      -2.253  -0.289  -0.552  0.00  0.00    -0.126 OA
ATOM     14  O   UNL     1      -1.323  -1.856   0.480  0.00  0.00    -0.126 OA
ENDBRANCH  10  12
ENDBRANCH   1   7
BRANCH   2  15
ATOM     15  C   UNL     1       4.862   4.232  -0.238  0.00  0.00    +0.328 C 
BRANCH  15  16
ATOM     16  O   UNL     1       4.585   5.632  -0.323  0.00  0.00    -0.455 OA
BRANCH  16  17
ATOM     17  C   UNL     1       5.638   6.456  -0.437  0.00  0.00    +0.311 C 
ATOM     18  O   UNL     1       6.758   6.004  -0.464  0.00  0.00    -0.251 OA
BRANCH  17  19
ATOM     19  C   UNL     1       5.423   7.946  -0.532  0.00  0.00    +0.099 C 
ATOM     20  C   UNL     1       4.547   8.250  -1.748  0.00  0.00    +0.025 C 
ATOM     21  C   UNL     1       4.304   9.761  -1.845  0.00  0.00    +0.056 C 
ATOM     22  C   UNL     1       4.892  10.273  -3.167  0.00  0.00    +0.011 C 
ATOM     23  C   UNL     1       6.392   9.993  -3.219  0.00  0.00    +0.001 C 
ATOM     24  C   UNL     1       7.121  10.672  -2.062  0.00  0.00    +0.011 C 
ATOM     25  C   UNL     1       6.576  10.161  -0.723  0.00  0.00    +0.056 C 
ATOM     26  C   UNL     1       6.778   8.642  -0.653  0.00  0.00    +0.025 C 
ATOM     27  C   UNL     1       5.078  10.422  -0.716  0.00  0.00    +0.140 C 
ATOM     28  O   UNL     1       4.543  11.105   0.124  0.00  0.00    -0.297 OA
ENDBRANCH  17  19
ENDBRANCH  16  17
ENDBRANCH  15  16
ENDBRANCH   2  15
TORSDOF 6
