REMARK  Name = ZINC27103885
REMARK  6 active torsions:
REMARK  status: ('A' for Active; 'I' for Inactive)
REMARK    1  A    between atoms: C_1  and  C_2
REMARK    2  A    between atoms: C_5  and  C_25
REMARK    3  A    between atoms: N_20  and  C_21
REMARK    4  A    between atoms: C_21  and  C_22
REMARK    5  A    between atoms: C_21  and  C_23
REMARK    6  A    between atoms: C_21  and  C_24
REMARK                            x       y       z     vdW  Elec       q    Type
REMARK                         _______ _______ _______ _____ _____    ______ ____
ROOT
ATOM      1  C   UNL     1       2.493  -5.842   4.466  0.00  0.00    +0.030 C 
ATOM      2  C   UNL     1       2.884  -5.125   3.172  0.00  0.00    +0.094 C 
ATOM      3  C   UNL     1       3.251  -3.684   3.456  0.00  0.00    +0.013 C 
ATOM      4  C   UNL     1       2.405  -2.935   2.781  0.00  0.00    +0.025 C 
ATOM      5  N   UNL     1       1.494  -3.700   2.076  0.00  0.00    -0.207 N 
ATOM      6  N   UNL     1       1.726  -5.033   2.262  0.00  0.00    -0.227 NA
ATOM      7  C   UNL     1       0.487  -3.185   1.282  0.00  0.00    +0.242 A 
ATOM      8  N   UNL     1      -0.270  -4.001   0.555  0.00  0.00    -0.180 NA
ATOM      9  C   UNL     1      -1.239  -3.505  -0.208  0.00  0.00    +0.221 A 
ATOM     10  N   UNL     1      -1.455  -2.193  -0.239  0.00  0.00    -0.181 NA
ATOM     11  C   UNL     1      -0.695  -1.377   0.485  0.00  0.00    +0.224 A 
ATOM     12  N   UNL     1       0.274  -1.873   1.248  0.00  0.00    -0.179 NA
ATOM     13  N   UNL     1      -0.916  -0.015   0.449  0.00  0.00    -0.295 N 
ATOM     14  C   UNL     1      -2.029   0.314  -0.454  0.00  0.00    +0.136 C 
ATOM     15  C   UNL     1      -2.278   1.824  -0.418  0.00  0.00    +0.179 C 
ATOM     16  O   UNL     1      -1.074   2.510  -0.771  0.00  0.00    -0.377 OA
ATOM     17  C   UNL     1       0.031   2.212   0.087  0.00  0.00    +0.179 C 
ATOM     18  C   UNL     1       0.303   0.706   0.057  0.00  0.00    +0.136 C 
ATOM     19  N   UNL     1      -2.024  -4.352  -0.963  0.00  0.00    -0.309 N 
ATOM     20  C   UNL     1       2.423  -1.428   2.781  0.00  0.00    +0.062 C 
ATOM     21  H   UNL     1       0.917  -5.489   2.658  0.00  0.00    +0.145 HD
ATOM     22  H   UNL     1      -2.777  -3.937  -1.650  0.00  0.00    +0.149 HD
ENDROOT
BRANCH  19  23
ATOM     23  C   UNL     1      -1.856  -5.803  -0.850  0.00  0.00    +0.026 C 
ATOM     24  C   UNL     1      -2.162  -6.241   0.583  0.00  0.00    +0.031 C 
ATOM     25  C   UNL     1      -2.814  -6.504  -1.815  0.00  0.00    +0.031 C 
ATOM     26  C   UNL     1      -0.414  -6.177  -1.201  0.00  0.00    +0.031 C 
ENDBRANCH  19  23
TORSDOF 1
