REMARK  Name = ZINC35584568
REMARK  9 active torsions:
REMARK  status: ('A' for Active; 'I' for Inactive)
REMARK    1  A    between atoms: C_1  and  C_2
REMARK    2  A    between atoms: C_2  and  C_3
REMARK    3  A    between atoms: C_3  and  N_4
REMARK    4  A    between atoms: N_4  and  C_5
REMARK    5  A    between atoms: C_5  and  C_7
REMARK    6  A    between atoms: C_5  and  C_19
REMARK    7  A    between atoms: C_19  and  C_20
REMARK    8  A    between atoms: C_19  and  C_21
REMARK    9  A    between atoms: C_19  and  C_22
REMARK                            x       y       z     vdW  Elec       q    Type
REMARK                         _______ _______ _______ _____ _____    ______ ____
ROOT
ATOM      1  C   UNL     1       1.825  -3.878   2.288  0.00  0.00    -0.043 A 
ATOM      2  C   UNL     1       1.194  -4.396   1.171  0.00  0.00    +0.052 A 
ATOM      3  C   UNL     1       1.288  -5.749   0.896  0.00  0.00    +0.162 A 
ATOM      4  C   UNL     1       2.011  -6.582   1.738  0.00  0.00    +0.163 A 
ATOM      5  C   UNL     1       2.640  -6.062   2.856  0.00  0.00    +0.065 A 
ATOM      6  C   UNL     1       2.550  -4.707   3.125  0.00  0.00    +0.023 A 
ATOM      7 BR   UNL     1       3.415  -3.988   4.645  0.00  0.00    -0.050 Br
ATOM      8  O   UNL     1       2.097  -7.915   1.457  0.00  0.00    -0.488 OA
ATOM      9  C   UNL     1       0.885  -8.661   1.587  0.00  0.00    +0.232 C 
ATOM     10  C   UNL     1       0.052  -8.561   0.319  0.00  0.00    +0.082 C 
ATOM     11  C   UNL     1      -0.431  -7.144   0.053  0.00  0.00    +0.232 C 
ATOM     12  O   UNL     1       0.672  -6.272  -0.204  0.00  0.00    -0.488 OA
ENDROOT
BRANCH   1  13
ATOM     13  C   UNL     1       1.726  -2.405   2.591  0.00  0.00    -0.034 C 
BRANCH  13  14
ATOM     14  C   UNL     1       0.469  -2.138   3.421  0.00  0.00    -0.046 C 
ATOM     15  C   UNL     1      -0.769  -2.537   2.614  0.00  0.00    +0.009 C 
ATOM     16  C   UNL     1       0.523  -2.960   4.710  0.00  0.00    +0.009 C 
ATOM     17  C   UNL     1       0.393  -0.650   3.768  0.00  0.00    +0.009 C 
ENDBRANCH  13  14
BRANCH  13  18
ATOM     18  N   UNL     1       1.653  -1.650   1.333  0.00  0.00    +0.384 N 
ATOM     19  H   UNL     1       0.698  -1.633   1.007  0.00  0.00    -0.085 HD
ATOM     20  H   UNL     1       2.237  -2.093   0.640  0.00  0.00    -0.085 HD
BRANCH  18  21
ATOM     21  C   UNL     1       2.118  -0.275   1.559  0.00  0.00    -0.082 C 
BRANCH  21  23
ATOM     22  C   UNL     1       2.663   1.901   0.459  0.00  0.00    +0.002 C 
ATOM     23  C   UNL     1       2.178   0.469   0.224  0.00  0.00    -0.022 C 
ENDBRANCH  21  23
ENDBRANCH  18  21
ENDBRANCH  13  18
ENDBRANCH   1  13
TORSDOF 5
