REMARK  Name = ZINC03433216
REMARK  10 active torsions:
REMARK  status: ('A' for Active; 'I' for Inactive)
REMARK    1  A    between atoms: C_1  and  N_2
REMARK    2  A    between atoms: N_2  and  C_3
REMARK    3  A    between atoms: N_2  and  C_4
REMARK    4  A    between atoms: C_7  and  C_10
REMARK    5  A    between atoms: C_10  and  C_12
REMARK    6  A    between atoms: C_10  and  C_27
REMARK    7  A    between atoms: C_12  and  N_13
REMARK    8  A    between atoms: C_14  and  C_16
REMARK    9  A    between atoms: C_17  and  C_18
REMARK   10  A    between atoms: C_23  and  N_24
REMARK                            x       y       z     vdW  Elec       q    Type
REMARK                         _______ _______ _______ _____ _____    ______ ____
ROOT
ATOM      1  C   UNL     1      -2.512   0.020   0.421  0.00  0.00    +0.068 C 
ENDROOT
BRANCH   1   2
ATOM      2  C   UNL     1      -1.024  -0.218   0.415  0.00  0.00    -0.013 A 
ATOM      3  C   UNL     1      -0.405  -1.405   0.523  0.00  0.00    +0.088 A 
ATOM      4  N   UNL     1       0.952  -1.229   0.478  0.00  0.00    -0.360 N 
ATOM      5  H   UNL     1       1.608  -1.941   0.536  0.00  0.00    +0.165 HD
ATOM      6  C   UNL     1       1.246   0.109   0.336  0.00  0.00    +0.047 A 
ATOM      7  C   UNL     1       0.021   0.800   0.291  0.00  0.00    +0.003 A 
ATOM      8  C   UNL     1       0.011   2.189   0.151  0.00  0.00    +0.010 A 
ATOM      9  C   UNL     1       1.192   2.871   0.059  0.00  0.00    +0.001 A 
ATOM     10  C   UNL     1       2.402   2.193   0.102  0.00  0.00    +0.002 A 
ATOM     11  C   UNL     1       2.436   0.823   0.240  0.00  0.00    +0.026 A 
ENDBRANCH   1   2
BRANCH   1  15
ATOM     12  C   UNL     1      -4.164  -1.384   4.105  0.00  0.00    +0.029 A 
ATOM     13  C   UNL     1      -4.290  -0.047   3.750  0.00  0.00    +0.023 A 
ATOM     14  C   UNL     1      -3.755   0.404   2.559  0.00  0.00    +0.006 A 
ATOM     15  C   UNL     1      -3.094  -0.475   1.720  0.00  0.00    -0.038 A 
ATOM     16  C   UNL     1      -2.972  -1.808   2.067  0.00  0.00    +0.006 A 
ATOM     17  C   UNL     1      -3.500  -2.264   3.260  0.00  0.00    +0.023 A 
BRANCH  12  19
ATOM     18  C   UNL     1      -5.295  -0.893   6.255  0.00  0.00    +0.129 C 
ATOM     19  N   UNL     1      -4.704  -1.843   5.308  0.00  0.00    -0.336 N 
ATOM     20  C   UNL     1      -4.681  -3.273   5.623  0.00  0.00    +0.129 C 
ENDBRANCH  12  19
ENDBRANCH   1  15
BRANCH   1  21
ATOM     21  C   UNL     1      -3.154  -0.733  -0.746  0.00  0.00    +0.117 C 
BRANCH  21  22
ATOM     22  N   UNL     1      -2.676  -0.171  -2.011  0.00  0.00    -0.311 N 
ATOM     23  C   UNL     1      -3.111  -0.680  -3.181  0.00  0.00    +0.237 C 
ATOM     24  O   UNL     1      -3.900  -1.607  -3.186  0.00  0.00    -0.271 OA
ATOM     25  H   UNL     1      -2.048   0.568  -2.008  0.00  0.00    +0.149 HD
BRANCH  23  26
ATOM     26  C   UNL     1      -2.634  -0.118  -4.446  0.00  0.00    +0.068 C 
ATOM     27  C   UNL     1      -3.068  -0.628  -5.617  0.00  0.00    +0.015 C 
BRANCH  27  28
ATOM     28  C   UNL     1      -2.589  -0.063  -6.888  0.00  0.00    +0.005 A 
ATOM     29  C   UNL     1      -1.609   0.935  -6.889  0.00  0.00    +0.010 A 
ATOM     30  C   UNL     1      -1.165   1.459  -8.085  0.00  0.00    +0.001 A 
ATOM     31  C   UNL     1      -1.686   1.000  -9.282  0.00  0.00    +0.002 A 
ATOM     32  C   UNL     1      -2.656   0.013  -9.290  0.00  0.00    +0.033 A 
ATOM     33  C   UNL     1      -3.107  -0.525  -8.102  0.00  0.00    +0.133 A 
BRANCH  33  34
ATOM     34  N   UNL     1      -4.140  -1.585  -8.113  0.00  0.00    +0.057 N 
ATOM     35  O   UNL     1      -4.078  -2.504  -7.316  0.00  0.00    -0.126 OA
ATOM     36  O   UNL     1      -5.053  -1.538  -8.918  0.00  0.00    -0.126 OA
ENDBRANCH  33  34
ENDBRANCH  27  28
ENDBRANCH  23  26
ENDBRANCH  21  22
ENDBRANCH   1  21
TORSDOF 8
