REMARK  Name = ZINC10107921
REMARK  12 active torsions:
REMARK  status: ('A' for Active; 'I' for Inactive)
REMARK    1  A    between atoms: C_1  and  C_2
REMARK    2  A    between atoms: C_2  and  C_3
REMARK    3  A    between atoms: C_9  and  C_10
REMARK    4  A    between atoms: C_9  and  N_72
REMARK    5  A    between atoms: C_10  and  C_12
REMARK    6  A    between atoms: C_10  and  C_13
REMARK    7  A    between atoms: C_13  and  N_14
REMARK    8  A    between atoms: C_23  and  C_33
REMARK    9  A    between atoms: N_24  and  C_25
REMARK   10  A    between atoms: C_29  and  O_31
REMARK   11  A    between atoms: O_31  and  C_32
REMARK   12  A    between atoms: N_34  and  C_37
REMARK                            x       y       z     vdW  Elec       q    Type
REMARK                         _______ _______ _______ _____ _____    ______ ____
ROOT
ATOM      1  N   UNL     1      -1.508   9.437  -2.793  0.00  0.00    -0.259 N 
ATOM      2  C   UNL     1      -1.421   8.811  -1.601  0.00  0.00    +0.283 A 
ATOM      3  O   UNL     1      -1.263   9.454  -0.578  0.00  0.00    -0.265 OA
ATOM      4  C   UNL     1      -1.514   7.410  -1.552  0.00  0.00    +0.157 A 
ATOM      5  C   UNL     1      -1.693   6.698  -2.737  0.00  0.00    +0.170 A 
ATOM      6  N   UNL     1      -1.749   5.407  -2.424  0.00  0.00    -0.193 NA
ATOM      7  C   UNL     1      -1.616   5.253  -1.115  0.00  0.00    +0.223 A 
ATOM      8  N   UNL     1      -1.468   6.468  -0.535  0.00  0.00    -0.277 N 
ATOM      9  C   UNL     1      -1.331   6.281   0.829  0.00  0.00    +0.116 A 
ATOM     10  C   UNL     1      -1.400   4.978   1.084  0.00  0.00    +0.040 A 
ATOM     11  N   UNL     1      -1.572   4.313  -0.117  0.00  0.00    -0.283 N 
ATOM     12  C   UNL     1      -1.304   4.337   2.444  0.00  0.00    +0.065 C 
ATOM     13  N   UNL     1      -1.775   7.399  -3.931  0.00  0.00    -0.279 N 
ATOM     14  C   UNL     1      -1.682   8.743  -3.931  0.00  0.00    +0.333 A 
ATOM     15  O   UNL     1      -1.755   9.342  -4.986  0.00  0.00    -0.246 OA
ATOM     16  C   UNL     1      -1.964   6.679  -5.192  0.00  0.00    +0.155 C 
ENDROOT
BRANCH  11  17
ATOM     17  C   UNL     1      -1.687   2.927  -0.283  0.00  0.00    +0.053 A 
ATOM     18  C   UNL     1      -2.876   2.378  -0.749  0.00  0.00    +0.026 A 
ATOM     19  C   UNL     1      -2.987   1.012  -0.917  0.00  0.00    +0.006 A 
ATOM     20  C   UNL     1      -1.921   0.186  -0.614  0.00  0.00    +0.046 A 
ATOM     21  C   UNL     1      -0.731   0.729  -0.149  0.00  0.00    +0.122 A 
ATOM     22  C   UNL     1      -0.614   2.100   0.017  0.00  0.00    +0.071 A 
BRANCH  21  23
ATOM     23  O   UNL     1       0.318  -0.084   0.143  0.00  0.00    -0.495 OA
ATOM     24  C   UNL     1       0.126  -1.486  -0.052  0.00  0.00    +0.277 C 
ENDBRANCH  21  23
ENDBRANCH  11  17
BRANCH   1  25
ATOM     25  C   UNL     1      -1.412  10.898  -2.848  0.00  0.00    +0.131 C 
BRANCH  25  26
ATOM     26  C   UNL     1      -2.809  11.507  -2.710  0.00  0.00    -0.011 C 
ATOM     27  C   UNL     1      -3.659  11.111  -3.919  0.00  0.00    +0.007 C 
BRANCH  26  28
ATOM     28  C   UNL     1      -2.696  13.031  -2.642  0.00  0.00    -0.074 C 
BRANCH  28  34
ATOM     29  C   UNL     1      -4.256  13.744  -0.933  0.00  0.00    -0.069 C 
ATOM     30  C   UNL     1      -5.693  14.209  -0.690  0.00  0.00    -0.015 C 
ATOM     31  C   UNL     1      -5.914  15.553  -1.390  0.00  0.00    -0.003 C 
ATOM     32  C   UNL     1      -5.616  15.396  -2.884  0.00  0.00    -0.019 C 
ATOM     33  C   UNL     1      -4.181  14.896  -3.063  0.00  0.00    -0.078 C 
ATOM     34  N   UNL     1      -4.041  13.589  -2.387  0.00  0.00    +0.382 N 
ATOM     35  H   UNL     1      -4.746  12.943  -2.761  0.00  0.00    -0.081 HD
BRANCH  29  37
ATOM     36  C   UNL     1      -5.096  11.399  -0.733  0.00  0.00    +0.002 C 
ATOM     37  C   UNL     1      -4.036  12.391  -0.251  0.00  0.00    -0.019 C 
ENDBRANCH  29  37
ENDBRANCH  28  34
ENDBRANCH  26  28
ENDBRANCH  25  26
ENDBRANCH   1  25
TORSDOF 7
