REMARK  Name = ZINC37426021
REMARK  8 active torsions:
REMARK  status: ('A' for Active; 'I' for Inactive)
REMARK    1  A    between atoms: C_1  and  C_2
REMARK    2  A    between atoms: C_2  and  C_3
REMARK    3  A    between atoms: C_2  and  C_4
REMARK    4  A    between atoms: C_4  and  N_5
REMARK    5  A    between atoms: C_6  and  C_8
REMARK    6  A    between atoms: C_15  and  C_17
REMARK    7  A    between atoms: N_22  and  C_23
REMARK    8  A    between atoms: C_26  and  N_29
REMARK                            x       y       z     vdW  Elec       q    Type
REMARK                         _______ _______ _______ _____ _____    ______ ____
ROOT
ATOM      1  C   UNL     1      -2.379  -4.169  -0.729  0.00  0.00    +0.092 C 
ATOM      2  C   UNL     1      -3.821  -4.674  -0.823  0.00  0.00    +0.016 C 
ATOM      3  C   UNL     1      -3.820  -6.188  -1.048  0.00  0.00    +0.020 C 
ATOM      4  C   UNL     1      -3.143  -6.877   0.141  0.00  0.00    +0.108 C 
ATOM      5  N   UNL     1      -1.807  -6.293   0.328  0.00  0.00    -0.296 N 
ATOM      6  C   UNL     1      -1.685  -4.835   0.463  0.00  0.00    +0.120 C 
ATOM      7  C   UNL     1      -0.714  -7.081   0.373  0.00  0.00    +0.266 C 
ATOM      8  O   UNL     1       0.395  -6.581   0.389  0.00  0.00    -0.268 OA
ENDROOT
BRANCH   7   9
ATOM      9  C   UNL     1      -0.863  -8.545   0.406  0.00  0.00    +0.135 A 
ATOM     10  C   UNL     1       0.233  -9.359   0.262  0.00  0.00    +0.081 A 
ATOM     11  S   UNL     1      -0.532 -10.971   0.379  0.00  0.00    -0.060 S 
ATOM     12  C   UNL     1      -2.214 -10.409   0.605  0.00  0.00    +0.163 A 
ATOM     13  N   UNL     1      -2.064  -9.100   0.580  0.00  0.00    -0.220 NA
ATOM     14  N   UNL     1      -3.370 -11.154   0.770  0.00  0.00    -0.294 N 
ATOM     15  H   UNL     1      -4.234 -10.713   0.775  0.00  0.00    +0.154 HD
BRANCH  14  16
ATOM     16  C   UNL     1      -3.292 -12.540   0.928  0.00  0.00    +0.033 A 
ATOM     17  C   UNL     1      -2.244 -13.100   1.649  0.00  0.00    +0.025 A 
ATOM     18  C   UNL     1      -2.169 -14.471   1.803  0.00  0.00    +0.034 A 
ATOM     19  C   UNL     1      -3.136 -15.285   1.243  0.00  0.00    +0.126 A 
ATOM     20  C   UNL     1      -4.180 -14.731   0.525  0.00  0.00    +0.034 A 
ATOM     21  C   UNL     1      -4.264 -13.361   0.371  0.00  0.00    +0.025 A 
BRANCH  19  22
ATOM     22  N   UNL     1      -3.053 -16.753   1.410  0.00  0.00    +0.056 N 
ATOM     23  O   UNL     1      -2.140 -17.239   2.037  0.00  0.00    -0.126 OA
ATOM     24  O   UNL     1      -3.897 -17.467   0.921  0.00  0.00    -0.126 OA
ENDBRANCH  19  22
ENDBRANCH  14  16
ENDBRANCH   7   9
BRANCH   1  26
ATOM     25  N   UNL     1      -1.215  -2.008  -0.429  0.00  0.00    -0.315 N 
ATOM     26  C   UNL     1      -2.381  -2.674  -0.539  0.00  0.00    +0.218 C 
ATOM     27  O   UNL     1      -3.432  -2.071  -0.485  0.00  0.00    -0.275 OA
ATOM     28  H   UNL     1      -0.374  -2.490  -0.472  0.00  0.00    +0.149 HD
BRANCH  25  29
ATOM     29  C   UNL     1      -1.216  -0.554  -0.244  0.00  0.00    +0.107 C 
BRANCH  29  31
ATOM     30  C   UNL     1       0.228   1.478  -0.082  0.00  0.00    +0.009 C 
ATOM     31  C   UNL     1       0.225  -0.051  -0.149  0.00  0.00    -0.000 C 
ATOM     32  C   UNL     1       0.881  -0.618   1.111  0.00  0.00    +0.009 C 
ENDBRANCH  29  31
ENDBRANCH  25  29
ENDBRANCH   1  26
TORSDOF 6
