REMARK  Name = ZINC09296133
REMARK  9 active torsions:
REMARK  status: ('A' for Active; 'I' for Inactive)
REMARK    1  A    between atoms: C_1  and  O_2
REMARK    2  A    between atoms: O_2  and  C_3
REMARK    3  A    between atoms: C_5  and  C_10
REMARK    4  A    between atoms: C_8  and  O_9
REMARK    5  A    between atoms: N_14  and  C_23
REMARK    6  A    between atoms: N_17  and  C_18
REMARK    7  A    between atoms: C_18  and  C_19
REMARK    8  A    between atoms: C_19  and  O_21
REMARK    9  A    between atoms: O_21  and  C_22
REMARK                            x       y       z     vdW  Elec       q    Type
REMARK                         _______ _______ _______ _____ _____    ______ ____
ROOT
ATOM      1  C   UNL     1      -1.721   5.087  -0.065  0.00  0.00    +0.036 C 
ATOM      2  C   UNL     1      -0.942   3.985  -0.207  0.00  0.00    +0.100 C 
ATOM      3  C   UNL     1       0.414   3.775   0.323  0.00  0.00    +0.271 C 
ATOM      4  O   UNL     1       1.071   4.559   0.983  0.00  0.00    -0.268 OA
ATOM      5  N   UNL     1       0.784   2.539  -0.070  0.00  0.00    -0.216 N 
ATOM      6  C   UNL     1      -0.203   1.974  -0.783  0.00  0.00    +0.152 C 
ATOM      7  S   UNL     1      -0.130   0.406  -1.465  0.00  0.00    -0.017 S 
ATOM      8  N   UNL     1      -1.254   2.806  -0.896  0.00  0.00    -0.267 N 
ENDROOT
BRANCH   5   9
ATOM      9  C   UNL     1       2.014   1.935   0.222  0.00  0.00    +0.043 A 
ATOM     10  C   UNL     1       2.068   0.847   1.083  0.00  0.00    +0.025 A 
ATOM     11  C   UNL     1       3.281   0.250   1.365  0.00  0.00    +0.022 A 
ATOM     12  C   UNL     1       4.444   0.743   0.799  0.00  0.00    +0.041 A 
ATOM     13  C   UNL     1       4.394   1.830  -0.055  0.00  0.00    +0.022 A 
ATOM     14  C   UNL     1       3.183   2.427  -0.344  0.00  0.00    +0.025 A 
ATOM     15 CL   UNL     1       5.968  -0.005   1.161  0.00  0.00    -0.084 Cl
ENDBRANCH   5   9
BRANCH   1  18
ATOM     16  C   UNL     1      -5.100   5.813  -1.520  0.00  0.00    +0.162 A 
ATOM     17  C   UNL     1      -3.747   5.895  -1.258  0.00  0.00    +0.057 A 
ATOM     18  C   UNL     1      -3.160   5.010  -0.345  0.00  0.00    -0.019 A 
ATOM     19  C   UNL     1      -3.952   4.055   0.305  0.00  0.00    +0.012 A 
ATOM     20  C   UNL     1      -5.302   3.985   0.040  0.00  0.00    +0.050 A 
ATOM     21  C   UNL     1      -5.881   4.859  -0.869  0.00  0.00    +0.158 A 
BRANCH  16  23
ATOM     22  C   UNL     1      -4.813   7.619  -3.041  0.00  0.00    +0.277 C 
ATOM     23  O   UNL     1      -5.673   6.667  -2.410  0.00  0.00    -0.491 OA
ENDBRANCH  16  23
BRANCH  21  24
ATOM     24  O   UNL     1      -7.213   4.785  -1.125  0.00  0.00    -0.503 OA
ATOM     25  H   UNL     1      -7.756   5.338  -0.546  0.00  0.00    +0.292 HD
ENDBRANCH  21  24
ENDBRANCH   1  18
BRANCH   8  26
ATOM     26  C   UNL     1      -2.503   2.526  -1.608  0.00  0.00    +0.233 C 
BRANCH  26  27
ATOM     27  C   UNL     1      -3.419   1.724  -0.720  0.00  0.00    +0.325 C 
ATOM     28  O   UNL     1      -3.051   1.387   0.381  0.00  0.00    -0.249 OA
BRANCH  27  29
ATOM     29  O   UNL     1      -4.644   1.384  -1.152  0.00  0.00    -0.467 OA
ATOM     30  C   UNL     1      -5.471   0.611  -0.243  0.00  0.00    +0.280 C 
ENDBRANCH  27  29
ENDBRANCH  26  27
ENDBRANCH   8  26
TORSDOF 7
