REMARK  Name = ZINC44865054
REMARK  8 active torsions:
REMARK  status: ('A' for Active; 'I' for Inactive)
REMARK    1  A    between atoms: C_1  and  C_2
REMARK    2  A    between atoms: C_2  and  C_3
REMARK    3  A    between atoms: C_2  and  C_4
REMARK    4  A    between atoms: C_4  and  C_6
REMARK    5  A    between atoms: C_4  and  C_10
REMARK    6  A    between atoms: N_7  and  O_8
REMARK    7  A    between atoms: N_12  and  C_13
REMARK    8  A    between atoms: C_13  and  C_14
REMARK                            x       y       z     vdW  Elec       q    Type
REMARK                         _______ _______ _______ _____ _____    ______ ____
ROOT
ATOM      1  C   UNL     1       0.924  -1.810   1.154  0.00  0.00    +0.224 C 
ATOM      2  O   UNL     1       0.391  -2.513   1.987  0.00  0.00    -0.275 OA
ATOM      3  N   UNL     1       1.701  -2.364   0.202  0.00  0.00    -0.311 N 
ATOM      4  H   UNL     1       2.062  -1.813  -0.510  0.00  0.00    +0.149 HD
ENDROOT
BRANCH   1   5
ATOM      5  C   UNL     1       0.718  -0.318   1.184  0.00  0.00    +0.144 C 
BRANCH   5   6
ATOM      6  C   UNL     1       0.406   0.118   2.593  0.00  0.00    +0.144 C 
ATOM      7  N   UNL     1      -0.822   0.251   2.971  0.00  0.00    -0.076 NA
ATOM      8  N   UNL     1       1.431   0.374   3.477  0.00  0.00    -0.343 N 
ATOM      9  H   UNL     1       2.353   0.275   3.193  0.00  0.00    +0.144 HD
ATOM     10  H   UNL     1       1.230   0.655   4.383  0.00  0.00    +0.144 HD
BRANCH   7  11
ATOM     11  O   UNL     1      -1.115   0.660   4.295  0.00  0.00    -0.408 OA
ATOM     12  H   UNL     1      -2.060   0.731   4.484  0.00  0.00    +0.328 HD
ENDBRANCH   7  11
ENDBRANCH   5   6
BRANCH   5  14
ATOM     13  C   UNL     1      -0.691   1.563   0.336  0.00  0.00    +0.008 C 
ATOM     14  C   UNL     1      -0.448   0.054   0.266  0.00  0.00    +0.002 C 
ATOM     15  C   UNL     1      -0.110  -0.341  -1.173  0.00  0.00    +0.008 C 
ENDBRANCH   5  14
ENDBRANCH   1   5
BRANCH   3  16
ATOM     16  C   UNL     1       1.999  -3.798   0.243  0.00  0.00    +0.139 C 
BRANCH  16  17
ATOM     17  C   UNL     1       2.880  -4.161  -0.925  0.00  0.00    -0.030 A 
ATOM     18  C   UNL     1       2.312  -4.543  -2.126  0.00  0.00    +0.006 A 
ATOM     19  C   UNL     1       3.120  -4.875  -3.198  0.00  0.00    +0.015 A 
ATOM     20  C   UNL     1       4.496  -4.826  -3.068  0.00  0.00    +0.018 A 
ATOM     21  C   UNL     1       5.064  -4.444  -1.866  0.00  0.00    +0.015 A 
ATOM     22  C   UNL     1       4.255  -4.106  -0.796  0.00  0.00    +0.006 A 
ATOM     23 BR   UNL     1       5.601  -5.281  -4.533  0.00  0.00    -0.050 Br
ENDBRANCH  16  17
ENDBRANCH   3  16
TORSDOF 6
