REMARK  Name = ZINC39482479
REMARK  7 active torsions:
REMARK  status: ('A' for Active; 'I' for Inactive)
REMARK    1  A    between atoms: C_4  and  S_7
REMARK    2  A    between atoms: S_7  and  S_10
REMARK    3  A    between atoms: S_10  and  N_13
REMARK    4  A    between atoms: N_13  and  C_14
REMARK    5  A    between atoms: C_17  and  C_28
REMARK    6  A    between atoms: C_19  and  N_20
REMARK    7  A    between atoms: C_33  and  O_34
REMARK                            x       y       z     vdW  Elec       q    Type
REMARK                         _______ _______ _______ _____ _____    ______ ____
ROOT
ATOM      1  C   UNL     1       6.552  -2.293   3.095  0.00  0.00    +0.097 A 
ATOM      2  C   UNL     1       5.955  -1.965   4.305  0.00  0.00    +0.029 A 
ATOM      3  C   UNL     1       6.567  -2.307   5.494  0.00  0.00    +0.010 A 
ATOM      4  C   UNL     1       7.787  -2.982   5.483  0.00  0.00    -0.013 A 
ATOM      5  C   UNL     1       8.388  -3.313   4.270  0.00  0.00    +0.033 A 
ATOM      6  C   UNL     1       7.770  -2.975   3.078  0.00  0.00    +0.055 A 
ENDROOT
BRANCH   6   7
ATOM      7  N   UNL     1       8.368  -3.311   1.858  0.00  0.00    -0.324 N 
ATOM      8  C   UNL     1       9.311  -2.393   1.201  0.00  0.00    +0.120 C 
ATOM      9  C   UNL     1       8.868  -2.198  -0.253  0.00  0.00    +0.101 C 
ATOM     10  N   UNL     1       8.727  -3.510  -0.898  0.00  0.00    -0.298 NA
ATOM     11  C   UNL     1       7.676  -4.309  -0.256  0.00  0.00    +0.164 C 
ATOM     12  C   UNL     1       8.074  -4.594   1.201  0.00  0.00    +0.140 C 
ATOM     13 CL   UNL     1       7.481  -5.869  -1.140  0.00  0.00    -0.103 Cl
ATOM     14  H   UNL     1       8.552  -3.409  -1.887  0.00  0.00    +0.123 HD
ENDBRANCH   6   7
BRANCH   4  15
ATOM     15  C   UNL     1       8.444  -3.348   6.761  0.00  0.00    +0.024 A 
ATOM     16  C   UNL     1       8.896  -4.649   6.968  0.00  0.00    +0.012 A 
ATOM     17  C   UNL     1       9.506  -4.985   8.160  0.00  0.00    +0.001 A 
ATOM     18  C   UNL     1       9.671  -4.033   9.150  0.00  0.00    +0.004 A 
ATOM     19  C   UNL     1       9.227  -2.739   8.955  0.00  0.00    +0.046 A 
ATOM     20  C   UNL     1       8.617  -2.387   7.762  0.00  0.00    +0.125 A 
BRANCH  20  21
ATOM     21  O   UNL     1       8.185  -1.114   7.566  0.00  0.00    -0.506 OA
ATOM     22  H   UNL     1       7.274  -0.959   7.852  0.00  0.00    +0.292 HD
ENDBRANCH  20  21
ENDBRANCH   4  15
BRANCH   1  23
ATOM     23  N   UNL     1       5.928  -1.946   1.891  0.00  0.00    -0.079 NA
BRANCH  23  24
ATOM     24  S   UNL     1       4.483  -1.137   1.911  0.00  0.00    +0.191 S 
ATOM     25  O   UNL     1       4.742   0.145   2.465  0.00  0.00    -0.130 OA
ATOM     26  O   UNL     1       3.527  -2.029   2.467  0.00  0.00    -0.130 OA
BRANCH  24  27
ATOM     27  S   UNL     1       3.934  -0.832  -0.041  0.00  0.00    +0.133 S 
ATOM     28  O   UNL     1       3.674  -2.114  -0.595  0.00  0.00    -0.146 OA
ATOM     29  O   UNL     1       4.890   0.060  -0.597  0.00  0.00    -0.146 OA
BRANCH  27  33
ATOM     30  C   UNL     1      -0.017   1.378   0.010  0.00  0.00    +0.000 A 
ATOM     31  C   UNL     1       1.171   2.086   0.002  0.00  0.00    +0.002 A 
ATOM     32  C   UNL     1       2.377   1.411  -0.013  0.00  0.00    +0.029 A 
ATOM     33  C   UNL     1       2.396   0.029  -0.020  0.00  0.00    +0.114 A 
ATOM     34  C   UNL     1       1.208  -0.679  -0.012  0.00  0.00    +0.029 A 
ATOM     35  C   UNL     1       0.002  -0.004   0.002  0.00  0.00    +0.002 A 
ENDBRANCH  27  33
ENDBRANCH  24  27
ENDBRANCH  23  24
ENDBRANCH   1  23
TORSDOF 7
