REMARK  Name = ZINC48875641
REMARK  7 active torsions:
REMARK  status: ('A' for Active; 'I' for Inactive)
REMARK    1  A    between atoms: C_1  and  O_2
REMARK    2  A    between atoms: O_2  and  C_3
REMARK    3  A    between atoms: C_3  and  C_4
REMARK    4  A    between atoms: C_4  and  N_5
REMARK    5  A    between atoms: N_13  and  C_22
REMARK    6  A    between atoms: C_16  and  C_17
REMARK    7  A    between atoms: C_22  and  C_23
REMARK                            x       y       z     vdW  Elec       q    Type
REMARK                         _______ _______ _______ _____ _____    ______ ____
ROOT
ATOM      1  N   UNL     1       1.321  -2.701   2.160  0.00  0.00    -0.315 N 
ATOM      2  C   UNL     1       2.666  -3.014   2.245  0.00  0.00    +0.152 A 
ATOM      3  C   UNL     1       3.762  -2.898   1.367  0.00  0.00    +0.280 A 
ATOM      4  O   UNL     1       3.612  -2.430   0.252  0.00  0.00    -0.265 OA
ATOM      5  N   UNL     1       4.980  -3.312   1.774  0.00  0.00    -0.273 N 
ATOM      6  H   UNL     1       5.737  -3.233   1.173  0.00  0.00    +0.173 HD
ATOM      7  C   UNL     1       5.161  -3.829   3.001  0.00  0.00    +0.331 A 
ATOM      8  O   UNL     1       6.273  -4.191   3.334  0.00  0.00    -0.246 OA
ATOM      9  N   UNL     1       4.142  -3.958   3.872  0.00  0.00    -0.272 N 
ATOM     10  C   UNL     1       2.866  -3.551   3.513  0.00  0.00    +0.169 A 
ATOM     11  N   UNL     1       1.690  -3.553   4.140  0.00  0.00    -0.208 NA
ATOM     12  C   UNL     1       0.761  -3.045   3.353  0.00  0.00    +0.165 A 
ENDROOT
BRANCH  12  13
ATOM     13  C   UNL     1      -0.662  -2.880   3.708  0.00  0.00    +0.137 A 
ATOM     14  C   UNL     1      -1.169  -3.241   4.932  0.00  0.00    +0.100 A 
ATOM     15  S   UNL     1      -2.791  -2.836   4.771  0.00  0.00    +0.029 S 
ATOM     16  N   UNL     1      -2.778  -2.260   3.260  0.00  0.00    -0.110 NA
ATOM     17  N   UNL     1      -1.555  -2.365   2.874  0.00  0.00    -0.138 NA
ENDBRANCH  12  13
BRANCH   1  18
ATOM     18  C   UNL     1       0.633  -2.108   1.011  0.00  0.00    +0.152 C 
BRANCH  18  19
ATOM     19  C   UNL     1       0.673  -0.582   1.123  0.00  0.00    +0.181 C 
BRANCH  19  21
ATOM     20  C   UNL     1      -0.017   1.425   0.010  0.00  0.00    +0.194 C 
ATOM     21  O   UNL     1       0.002  -0.004   0.002  0.00  0.00    -0.381 OA
ENDBRANCH  19  21
ENDBRANCH  18  19
ENDBRANCH   1  18
BRANCH   9  22
ATOM     22  C   UNL     1       4.381  -4.528   5.200  0.00  0.00    +0.163 C 
BRANCH  22  23
ATOM     23  C   UNL     1       4.734  -3.425   6.164  0.00  0.00    -0.028 A 
ATOM     24  C   UNL     1       6.055  -3.052   6.334  0.00  0.00    +0.005 A 
ATOM     25  C   UNL     1       6.379  -2.040   7.218  0.00  0.00    +0.000 A 
ATOM     26  C   UNL     1       5.383  -1.401   7.932  0.00  0.00    +0.000 A 
ATOM     27  C   UNL     1       4.062  -1.773   7.761  0.00  0.00    +0.000 A 
ATOM     28  C   UNL     1       3.738  -2.782   6.874  0.00  0.00    +0.005 A 
ENDBRANCH  22  23
ENDBRANCH   9  22
TORSDOF 6
