REMARK  Name = ZINC36640865
REMARK  15 active torsions:
REMARK  status: ('A' for Active; 'I' for Inactive)
REMARK    1  A    between atoms: C_1  and  C_2
REMARK    2  A    between atoms: C_2  and  N_3
REMARK    3  A    between atoms: N_3  and  C_4
REMARK    4  A    between atoms: N_3  and  C_6
REMARK    5  A    between atoms: C_4  and  C_5
REMARK    6  A    between atoms: C_6  and  C_7
REMARK    7  A    between atoms: C_7  and  N_8
REMARK    8  A    between atoms: C_20  and  C_22
REMARK    9  A    between atoms: C_23  and  C_24
REMARK   10  A    between atoms: C_26  and  O_34
REMARK   11  A    between atoms: C_27  and  O_32
REMARK   12  A    between atoms: C_28  and  O_30
REMARK   13  A    between atoms: O_30  and  C_31
REMARK   14  A    between atoms: O_32  and  C_33
REMARK   15  A    between atoms: O_34  and  C_35
REMARK                            x       y       z     vdW  Elec       q    Type
REMARK                         _______ _______ _______ _____ _____    ______ ____
ROOT
ATOM      1  N   UNL     1       1.357  -4.020  -2.680  0.00  0.00    -0.249 N 
ATOM      2  C   UNL     1       0.354  -4.566  -3.463  0.00  0.00    +0.168 A 
ATOM      3  N   UNL     1      -0.560  -3.953  -4.177  0.00  0.00    -0.221 NA
ATOM      4  C   UNL     1      -1.487  -4.621  -4.900  0.00  0.00    +0.116 A 
ATOM      5  C   UNL     1      -2.519  -4.084  -5.706  0.00  0.00    +0.152 A 
ATOM      6  C   UNL     1      -3.384  -4.909  -6.379  0.00  0.00    +0.079 A 
ATOM      7  C   UNL     1      -3.280  -6.292  -6.294  0.00  0.00    +0.127 A 
ATOM      8  C   UNL     1      -2.281  -6.850  -5.515  0.00  0.00    +0.055 A 
ATOM      9  C   UNL     1      -1.411  -6.030  -4.838  0.00  0.00    +0.046 A 
ATOM     10  S   UNL     1      -0.021  -6.288  -3.762  0.00  0.00    -0.052 S 
ATOM     11  F   UNL     1      -4.145  -7.084  -6.966  0.00  0.00    -0.205 F 
ATOM     12  F   UNL     1      -2.654  -2.744  -5.814  0.00  0.00    -0.203 F 
ATOM     13  C   UNL     1       2.212  -4.826  -2.020  0.00  0.00    +0.245 C 
ATOM     14  O   UNL     1       2.102  -6.035  -2.111  0.00  0.00    -0.270 OA
ENDROOT
BRANCH  13  15
ATOM     15  C   UNL     1       3.271  -4.248  -1.194  0.00  0.00    +0.068 C 
ATOM     16  C   UNL     1       4.127  -5.056  -0.533  0.00  0.00    +0.013 C 
BRANCH  16  17
ATOM     17  C   UNL     1       5.192  -4.476   0.298  0.00  0.00    -0.018 A 
ATOM     18  C   UNL     1       5.316  -3.086   0.408  0.00  0.00    +0.057 A 
ATOM     19  C   UNL     1       6.318  -2.544   1.190  0.00  0.00    +0.166 A 
ATOM     20  C   UNL     1       7.204  -3.378   1.867  0.00  0.00    +0.204 A 
ATOM     21  C   UNL     1       7.083  -4.762   1.759  0.00  0.00    +0.166 A 
ATOM     22  C   UNL     1       6.080  -5.311   0.984  0.00  0.00    +0.057 A 
BRANCH  21  23
ATOM     23  O   UNL     1       7.951  -5.573   2.422  0.00  0.00    -0.491 OA
ATOM     24  C   UNL     1       7.770  -6.982   2.266  0.00  0.00    +0.277 C 
ENDBRANCH  21  23
BRANCH  20  25
ATOM     25  O   UNL     1       8.189  -2.842   2.635  0.00  0.00    -0.488 OA
ATOM     26  C   UNL     1       7.879  -2.596   4.008  0.00  0.00    +0.277 C 
ENDBRANCH  20  25
BRANCH  19  27
ATOM     27  O   UNL     1       6.440  -1.194   1.298  0.00  0.00    -0.491 OA
ATOM     28  C   UNL     1       5.498  -0.398   0.577  0.00  0.00    +0.277 C 
ENDBRANCH  19  27
ENDBRANCH  16  17
ENDBRANCH  13  15
BRANCH   1  29
ATOM     29  C   UNL     1       1.489  -2.565  -2.571  0.00  0.00    +0.097 C 
BRANCH  29  30
ATOM     30  C   UNL     1       0.650  -2.064  -1.394  0.00  0.00    -0.059 C 
BRANCH  30  31
ATOM     31  N   UNL     1       0.878  -0.625  -1.207  0.00  0.00    +0.380 N 
ATOM     32  H   UNL     1       1.867  -0.452  -1.101  0.00  0.00    -0.082 HD
BRANCH  31  34
ATOM     33  C   UNL     1       0.725   1.590  -2.241  0.00  0.00    -0.017 C 
ATOM     34  C   UNL     1       0.377   0.106  -2.378  0.00  0.00    -0.082 C 
ENDBRANCH  31  34
BRANCH  31  35
ATOM     35  C   UNL     1       0.169  -0.168  -0.004  0.00  0.00    -0.082 C 
ATOM     36  C   UNL     1       0.797  -0.812   1.233  0.00  0.00    -0.017 C 
ENDBRANCH  31  35
ENDBRANCH  30  31
ENDBRANCH  29  30
ENDBRANCH   1  29
TORSDOF 10
