REMARK  Name = ZINC14757384
REMARK  9 active torsions:
REMARK  status: ('A' for Active; 'I' for Inactive)
REMARK    1  A    between atoms: C_1  and  C_2
REMARK    2  A    between atoms: C_3  and  N_9
REMARK    3  A    between atoms: C_4  and  C_8
REMARK    4  A    between atoms: N_5  and  C_7
REMARK    5  A    between atoms: C_10  and  C_12
REMARK    6  A    between atoms: C_12  and  C_14
REMARK    7  A    between atoms: C_12  and  S_15
REMARK    8  A    between atoms: S_15  and  C_16
REMARK    9  A    between atoms: N_29  and  C_30
REMARK                            x       y       z     vdW  Elec       q    Type
REMARK                         _______ _______ _______ _____ _____    ______ ____
ROOT
ATOM      1  C   UNL     1      -1.841   5.577  -4.102  0.00  0.00    +0.178 A 
ATOM      2  N   UNL     1      -1.188   6.051  -3.050  0.00  0.00    -0.215 NA
ATOM      3  C   UNL     1      -1.237   5.338  -1.932  0.00  0.00    +0.117 A 
ATOM      4  C   UNL     1      -1.938   4.117  -1.803  0.00  0.00    +0.076 A 
ATOM      5  C   UNL     1      -1.877   3.479  -0.498  0.00  0.00    -0.023 A 
ATOM      6  C   UNL     1      -1.159   4.115   0.456  0.00  0.00    -0.004 A 
ATOM      7  S   UNL     1      -0.535   5.580  -0.331  0.00  0.00    -0.073 S 
ATOM      8  C   UNL     1      -0.940   3.676   1.871  0.00  0.00    +0.043 C 
ATOM      9  C   UNL     1      -1.960   2.577   2.201  0.00  0.00    +0.005 C 
ATOM     10  C   UNL     1      -1.954   1.548   1.066  0.00  0.00    +0.005 C 
ATOM     11  C   UNL     1      -2.578   2.159  -0.189  0.00  0.00    +0.037 C 
ATOM     12  C   UNL     1      -2.633   3.636  -2.960  0.00  0.00    +0.268 A 
ATOM     13  O   UNL     1      -3.265   2.593  -2.948  0.00  0.00    -0.267 OA
ATOM     14  N   UNL     1      -2.543   4.409  -4.068  0.00  0.00    -0.255 N 
ENDROOT
BRANCH  14  15
ATOM     15  C   UNL     1      -3.202   3.990  -5.231  0.00  0.00    +0.052 A 
ATOM     16  C   UNL     1      -2.532   3.219  -6.171  0.00  0.00    +0.026 A 
ATOM     17  C   UNL     1      -3.186   2.802  -7.314  0.00  0.00    +0.002 A 
ATOM     18  C   UNL     1      -4.504   3.162  -7.528  0.00  0.00    +0.000 A 
ATOM     19  C   UNL     1      -5.173   3.934  -6.596  0.00  0.00    +0.002 A 
ATOM     20  C   UNL     1      -4.526   4.349  -5.448  0.00  0.00    +0.026 A 
ENDBRANCH  14  15
BRANCH   1  21
ATOM     21  S   UNL     1      -1.801   6.495  -5.606  0.00  0.00    -0.075 S 
BRANCH  21  22
ATOM     22  C   UNL     1      -0.769   7.892  -5.094  0.00  0.00    +0.137 C 
ATOM     23  C   UNL     1       0.638   7.392  -4.762  0.00  0.00    +0.029 C 
BRANCH  22  25
ATOM     24  N   UNL     1      -0.339  10.171  -5.954  0.00  0.00    -0.282 N 
ATOM     25  C   UNL     1      -0.694   8.897  -6.214  0.00  0.00    +0.230 C 
ATOM     26  O   UNL     1      -0.952   8.560  -7.351  0.00  0.00    -0.274 OA
ATOM     27  H   UNL     1      -0.209  10.460  -5.037  0.00  0.00    +0.155 HD
BRANCH  24  30
ATOM     28  C   UNL     1       0.667   9.396  -8.798  0.00  0.00    +0.069 C 
ATOM     29  C   UNL     1       0.292  10.769  -8.303  0.00  0.00    +0.081 A 
ATOM     30  C   UNL     1      -0.158  11.082  -7.011  0.00  0.00    +0.077 A 
ATOM     31  C   UNL     1      -0.393  12.418  -6.965  0.00  0.00    +0.057 A 
ATOM     32  N   UNL     1      -0.093  12.930  -8.187  0.00  0.00    -0.270 N 
ATOM     33  N   UNL     1       0.331  11.873  -9.003  0.00  0.00    -0.175 NA
ATOM     34  C   UNL     1      -0.197  14.336  -8.582  0.00  0.00    +0.172 C 
ATOM     35  C   UNL     1      -0.894  13.193  -5.774  0.00  0.00    +0.067 C 
ENDBRANCH  24  30
ENDBRANCH  22  25
ENDBRANCH  21  22
ENDBRANCH   1  21
TORSDOF 5
