REMARK  Name = ZINC12166695
REMARK  8 active torsions:
REMARK  status: ('A' for Active; 'I' for Inactive)
REMARK    1  A    between atoms: C_1  and  C_2
REMARK    2  A    between atoms: C_10  and  C_13
REMARK    3  A    between atoms: C_18  and  C_19
REMARK    4  A    between atoms: C_18  and  N_62
REMARK    5  A    between atoms: N_21  and  C_22
REMARK    6  A    between atoms: C_22  and  C_23
REMARK    7  A    between atoms: N_26  and  C_28
REMARK    8  A    between atoms: C_28  and  C_29
REMARK                            x       y       z     vdW  Elec       q    Type
REMARK                         _______ _______ _______ _____ _____    ______ ____
ROOT
ATOM      1  C   UNL     1      -1.209   1.302  -3.562  0.00  0.00    +0.019 C 
ENDROOT
BRANCH   1  13
ATOM      2  C   UNL     1       4.939  -1.577  -2.967  0.00  0.00    +0.044 C 
ATOM      3  C   UNL     1       3.984  -0.723  -2.174  0.00  0.00    -0.050 A 
ATOM      4  C   UNL     1       4.099  -0.653  -0.798  0.00  0.00    +0.007 A 
ATOM      5  C   UNL     1       3.219   0.120  -0.065  0.00  0.00    +0.046 A 
ATOM      6  C   UNL     1       2.220   0.829  -0.716  0.00  0.00    +0.123 A 
ATOM      7  C   UNL     1       2.122   0.773  -2.093  0.00  0.00    -0.022 A 
ATOM      8  C   UNL     1       2.993  -0.009  -2.825  0.00  0.00    +0.008 A 
ATOM      9  C   UNL     1       1.067   1.603  -2.799  0.00  0.00    -0.038 C 
ATOM     10  C   UNL     1      -0.773   1.581  -1.204  0.00  0.00    -0.028 C 
ATOM     11  C   UNL     1      -0.013   1.086   0.008  0.00  0.00    +0.188 C 
ATOM     12  O   UNL     1       1.334   1.576  -0.002  0.00  0.00    -0.486 OA
ATOM     13  N   UNL     1      -0.258   1.025  -2.474  0.00  0.00    +0.391 N 
ATOM     14  H   UNL     1      -0.157   0.008  -2.372  0.00  0.00    -0.080 HD
BRANCH  11  15
ATOM     15  C   UNL     1      -0.706   1.566   1.257  0.00  0.00    -0.002 A 
ATOM     16  C   UNL     1      -1.553   0.726   1.956  0.00  0.00    +0.015 A 
ATOM     17  C   UNL     1      -2.156   1.187   3.079  0.00  0.00    +0.045 A 
ATOM     18  S   UNL     1      -1.539   2.860   3.170  0.00  0.00    -0.105 S 
ATOM     19  C   UNL     1      -0.512   2.829   1.709  0.00  0.00    +0.052 A 
ENDBRANCH  11  15
ENDBRANCH   1  13
BRANCH   1  20
ATOM     20  C   UNL     1      -1.450   2.783  -3.705  0.00  0.00    +0.197 C 
ATOM     21  O   UNL     1      -0.884   3.563  -2.969  0.00  0.00    -0.278 OA
ATOM     22  N   UNL     1      -2.294   3.240  -4.651  0.00  0.00    -0.313 N 
ATOM     23  H   UNL     1      -2.747   2.616  -5.239  0.00  0.00    +0.149 HD
BRANCH  22  24
ATOM     24  C   UNL     1      -2.529   4.680  -4.790  0.00  0.00    +0.142 C 
BRANCH  24  25
ATOM     25  C   UNL     1      -3.505   4.924  -5.911  0.00  0.00    +0.007 A 
ATOM     26  C   UNL     1      -4.897   4.988  -5.790  0.00  0.00    +0.139 A 
ATOM     27  N   UNL     1      -5.400   5.215  -6.977  0.00  0.00    -0.179 NA
ATOM     28  N   UNL     1      -4.343   5.301  -7.891  0.00  0.00    -0.267 N 
ATOM     29  C   UNL     1      -3.191   5.125  -7.212  0.00  0.00    +0.113 A 
BRANCH  28  30
ATOM     30  C   UNL     1      -4.466   5.546  -9.331  0.00  0.00    +0.178 C 
BRANCH  30  31
ATOM     31  C   UNL     1      -5.389   4.521  -9.938  0.00  0.00    -0.026 A 
ATOM     32  C   UNL     1      -4.878   3.332 -10.424  0.00  0.00    +0.005 A 
ATOM     33  C   UNL     1      -5.725   2.390 -10.976  0.00  0.00    +0.000 A 
ATOM     34  C   UNL     1      -7.082   2.641 -11.052  0.00  0.00    +0.000 A 
ATOM     35  C   UNL     1      -7.593   3.832 -10.570  0.00  0.00    +0.000 A 
ATOM     36  C   UNL     1      -6.746   4.772 -10.013  0.00  0.00    +0.005 A 
ENDBRANCH  30  31
ENDBRANCH  28  30
ENDBRANCH  24  25
ENDBRANCH  22  24
ENDBRANCH   1  20
TORSDOF 7
