REMARK  Name = ZINC04978872
REMARK  7 active torsions:
REMARK  status: ('A' for Active; 'I' for Inactive)
REMARK    1  A    between atoms: C_1  and  C_2
REMARK    2  A    between atoms: C_4  and  C_8
REMARK    3  A    between atoms: C_5  and  C_7
REMARK    4  A    between atoms: C_15  and  N_30
REMARK    5  A    between atoms: C_16  and  C_28
REMARK    6  A    between atoms: C_17  and  C_19
REMARK    7  A    between atoms: C_23  and  N_25
REMARK                            x       y       z     vdW  Elec       q    Type
REMARK                         _______ _______ _______ _____ _____    ______ ____
ROOT
ATOM      1  C   UNL     1      -2.033  -3.580  -0.031  0.00  0.00    +0.101 A 
ATOM      2  C   UNL     1      -3.363  -3.160   0.059  0.00  0.00    +0.054 A 
ATOM      3  C   UNL     1      -4.151  -4.271   0.159  0.00  0.00    +0.223 A 
ATOM      4  N   UNL     1      -3.343  -5.351   0.130  0.00  0.00    -0.246 N 
ATOM      5  H   UNL     1      -3.627  -6.277   0.182  0.00  0.00    +0.192 HD
ATOM      6  N   UNL     1      -2.020  -4.899   0.006  0.00  0.00    -0.171 NA
ATOM      7  O   UNL     1      -5.501  -4.203   0.266  0.00  0.00    -0.423 OA
ATOM      8  C   UNL     1      -6.046  -3.002   0.548  0.00  0.00    +0.200 C 
ATOM      9  C   UNL     1      -5.371  -1.834   0.473  0.00  0.00    +0.098 C 
ATOM     10  C   UNL     1      -3.924  -1.762   0.055  0.00  0.00    +0.102 C 
ENDROOT
BRANCH   1  14
ATOM     11  C   UNL     1       0.808   0.405   1.326  0.00  0.00    +0.051 C 
ATOM     12  C   UNL     1       0.413  -0.823   0.546  0.00  0.00    -0.012 A 
ATOM     13  C   UNL     1      -0.683  -1.603   0.688  0.00  0.00    +0.021 A 
ATOM     14  C   UNL     1      -0.845  -2.699  -0.154  0.00  0.00    +0.013 A 
ATOM     15  C   UNL     1       0.114  -2.946  -1.095  0.00  0.00    -0.004 A 
ATOM     16  S   UNL     1       1.267  -1.614  -0.807  0.00  0.00    -0.098 S 
ATOM     17  C   UNL     1       0.178  -4.052  -2.117  0.00  0.00    +0.052 C 
ENDBRANCH   1  14
BRANCH  10  18
ATOM     18  C   UNL     1      -3.823  -1.178  -1.331  0.00  0.00    -0.032 A 
ATOM     19  C   UNL     1      -4.410  -1.829  -2.400  0.00  0.00    +0.005 A 
ATOM     20  C   UNL     1      -4.318  -1.293  -3.670  0.00  0.00    +0.003 A 
ATOM     21  C   UNL     1      -3.639  -0.106  -3.872  0.00  0.00    +0.033 A 
ATOM     22  C   UNL     1      -3.052   0.545  -2.804  0.00  0.00    +0.126 A 
ATOM     23  C   UNL     1      -3.148   0.012  -1.532  0.00  0.00    +0.037 A 
BRANCH  22  24
ATOM     24  N   UNL     1      -2.325   1.816  -3.020  0.00  0.00    +0.056 N 
ATOM     25  O   UNL     1      -2.163   2.236  -4.142  0.00  0.00    -0.126 OA
ATOM     26  O   UNL     1      -1.892   2.433  -2.075  0.00  0.00    -0.126 OA
ENDBRANCH  22  24
ENDBRANCH  10  18
BRANCH   8  27
ATOM     27  N   UNL     1      -7.363  -2.965   0.935  0.00  0.00    -0.328 N 
ATOM     28  H   UNL     1      -7.873  -3.787   0.998  0.00  0.00    +0.145 HD
ATOM     29  H   UNL     1      -7.782  -2.116   1.145  0.00  0.00    +0.145 HD
ENDBRANCH   8  27
BRANCH   9  30
ATOM     30  C   UNL     1      -6.056  -0.619   0.801  0.00  0.00    +0.101 C 
ATOM     31  N   UNL     1      -6.598   0.344   1.062  0.00  0.00    -0.191 NA
ENDBRANCH   9  30
TORSDOF 5
