REMARK  Name = ZINC15235597
REMARK  9 active torsions:
REMARK  status: ('A' for Active; 'I' for Inactive)
REMARK    1  A    between atoms: C_1  and  C_2
REMARK    2  A    between atoms: C_7  and  N_8
REMARK    3  A    between atoms: C_21  and  S_22
REMARK    4  A    between atoms: S_22  and  C_23
REMARK    5  A    between atoms: C_23  and  C_24
REMARK    6  A    between atoms: C_24  and  C_26
REMARK    7  A    between atoms: C_24  and  O_35
REMARK    8  A    between atoms: C_26  and  O_27
REMARK    9  A    between atoms: O_27  and  C_28
REMARK                            x       y       z     vdW  Elec       q    Type
REMARK                         _______ _______ _______ _____ _____    ______ ____
ROOT
ATOM      1  N   UNL     1       3.432   0.755  -0.026  0.00  0.00    -0.245 N 
ATOM      2  C   UNL     1       4.108  -0.412  -0.039  0.00  0.00    +0.268 A 
ATOM      3  O   UNL     1       5.324  -0.421  -0.050  0.00  0.00    -0.267 OA
ATOM      4  C   UNL     1       3.350  -1.676  -0.039  0.00  0.00    +0.064 A 
ATOM      5  C   UNL     1       4.000  -2.909  -0.052  0.00  0.00    +0.015 A 
ATOM      6  C   UNL     1       3.257  -4.071  -0.052  0.00  0.00    +0.001 A 
ATOM      7  C   UNL     1       1.872  -4.017  -0.038  0.00  0.00    +0.002 A 
ATOM      8  C   UNL     1       1.217  -2.802  -0.024  0.00  0.00    +0.027 A 
ATOM      9  C   UNL     1       1.947  -1.623  -0.026  0.00  0.00    +0.064 A 
ATOM     10  N   UNL     1       1.317  -0.385  -0.013  0.00  0.00    -0.255 N 
ATOM     11  C   UNL     1       2.046   0.776  -0.013  0.00  0.00    +0.245 A 
ATOM     12  N   UNL     1       1.185   1.766   0.000  0.00  0.00    -0.109 NA
ATOM     13  N   UNL     1      -0.016   1.307   0.009  0.00  0.00    -0.120 NA
ATOM     14  C   UNL     1       0.002  -0.004   0.002  0.00  0.00    +0.198 A 
ENDROOT
BRANCH   1  21
ATOM     15  C   UNL     1       4.099   1.922  -2.535  0.00  0.00    +0.046 C 
ATOM     16  C   UNL     1       4.486   2.566  -1.228  0.00  0.00    -0.026 A 
ATOM     17  C   UNL     1       5.179   3.761  -1.225  0.00  0.00    +0.005 A 
ATOM     18  C   UNL     1       5.539   4.350  -0.027  0.00  0.00    +0.000 A 
ATOM     19  C   UNL     1       5.201   3.748   1.172  0.00  0.00    +0.002 A 
ATOM     20  C   UNL     1       4.503   2.557   1.175  0.00  0.00    +0.026 A 
ATOM     21  C   UNL     1       4.140   1.963  -0.026  0.00  0.00    +0.056 A 
ENDBRANCH   1  21
BRANCH  14  22
ATOM     22  S   UNL     1      -1.399  -1.072   0.010  0.00  0.00    -0.083 S 
BRANCH  22  23
ATOM     23  C   UNL     1      -2.815   0.062   0.030  0.00  0.00    +0.112 C 
BRANCH  23  24
ATOM     24  C   UNL     1      -4.115  -0.745   0.038  0.00  0.00    +0.162 C 
BRANCH  24  25
ATOM     25  O   UNL     1      -4.207  -1.487   1.256  0.00  0.00    -0.388 OA
ATOM     26  H   UNL     1      -4.207  -0.938   2.052  0.00  0.00    +0.210 HD
ENDBRANCH  24  25
BRANCH  24  27
ATOM     27  C   UNL     1      -5.307   0.207  -0.070  0.00  0.00    +0.261 C 
BRANCH  27  28
ATOM     28  O   UNL     1      -6.514  -0.551  -0.180  0.00  0.00    -0.489 OA
BRANCH  28  29
ATOM     29  C   UNL     1      -7.675   0.149  -0.286  0.00  0.00    +0.121 A 
ATOM     30  C   UNL     1      -7.653   1.536  -0.278  0.00  0.00    +0.047 A 
ATOM     31  C   UNL     1      -8.833   2.245  -0.390  0.00  0.00    +0.023 A 
ATOM     32  C   UNL     1     -10.037   1.573  -0.500  0.00  0.00    +0.041 A 
ATOM     33  C   UNL     1     -10.062   0.189  -0.502  0.00  0.00    +0.023 A 
ATOM     34  C   UNL     1      -8.883  -0.523  -0.395  0.00  0.00    +0.047 A 
ATOM     35 CL   UNL     1     -11.520   2.466  -0.635  0.00  0.00    -0.084 Cl
ENDBRANCH  28  29
ENDBRANCH  27  28
ENDBRANCH  24  27
ENDBRANCH  23  24
ENDBRANCH  22  23
ENDBRANCH  14  22
TORSDOF 8
