REMARK  Name = ZINC14479330
REMARK  5 active torsions:
REMARK  status: ('A' for Active; 'I' for Inactive)
REMARK    1  A    between atoms: C_1  and  O_2
REMARK    2  A    between atoms: O_2  and  C_3
REMARK    3  A    between atoms: C_6  and  C_11
REMARK    4  A    between atoms: C_8  and  O_9
REMARK    5  A    between atoms: O_9  and  C_10
REMARK                            x       y       z     vdW  Elec       q    Type
REMARK                         _______ _______ _______ _____ _____    ______ ____
ROOT
ATOM      1  C   UNL     1       3.515   3.428   0.561  0.00  0.00    +0.105 C 
ATOM      2  C   UNL     1       2.862   4.674  -0.043  0.00  0.00    +0.029 C 
ATOM      3  C   UNL     1       3.192   5.879   0.883  0.00  0.00    +0.033 C 
ATOM      4  C   UNL     1       2.163   5.769   1.990  0.00  0.00    -0.030 C 
ATOM      5  C   UNL     1       1.136   5.060   1.594  0.00  0.00    -0.023 C 
ATOM      6  C   UNL     1       1.335   4.590   0.171  0.00  0.00    +0.050 C 
ATOM      7  C   UNL     1       0.831   3.187   0.001  0.00  0.00    +0.002 A 
ATOM      8  C   UNL     1       1.678   2.103  -0.150  0.00  0.00    +0.051 A 
ATOM      9  C   UNL     1       1.146   0.822  -0.294  0.00  0.00    +0.064 A 
ATOM     10  C   UNL     1      -0.220   0.628  -0.292  0.00  0.00    +0.043 A 
ATOM     11  C   UNL     1      -1.067   1.713  -0.145  0.00  0.00    +0.061 A 
ATOM     12  C   UNL     1      -0.543   2.983   0.001  0.00  0.00    +0.065 A 
ATOM     13 CL   UNL     1      -1.613   4.339   0.178  0.00  0.00    -0.082 Cl
ATOM     14 CL   UNL     1      -2.787   1.477  -0.144  0.00  0.00    -0.082 Cl
ATOM     15 CL   UNL     1       2.210  -0.538  -0.478  0.00  0.00    -0.082 Cl
ATOM     16  N   UNL     1       3.067   2.241  -0.167  0.00  0.00    -0.335 N 
ATOM     17  H   UNL     1       3.517   1.410   0.185  0.00  0.00    +0.147 HD
ENDROOT
BRANCH   1  21
ATOM     18  C   UNL     1       2.390   3.080   4.673  0.00  0.00    +0.162 A 
ATOM     19  C   UNL     1       1.732   2.337   3.706  0.00  0.00    +0.050 A 
ATOM     20  C   UNL     1       2.094   2.456   2.377  0.00  0.00    +0.009 A 
ATOM     21  C   UNL     1       3.120   3.307   2.011  0.00  0.00    -0.023 A 
ATOM     22  C   UNL     1       3.781   4.051   2.970  0.00  0.00    +0.055 A 
ATOM     23  C   UNL     1       3.420   3.941   4.303  0.00  0.00    +0.162 A 
BRANCH  18  25
ATOM     24  C   UNL     1       0.967   2.066   6.285  0.00  0.00    +0.277 C 
ATOM     25  O   UNL     1       2.032   2.968   5.980  0.00  0.00    -0.491 OA
ENDBRANCH  18  25
BRANCH  23  26
ATOM     26  O   UNL     1       4.069   4.672   5.248  0.00  0.00    -0.491 OA
ATOM     27  C   UNL     1       5.115   5.534   4.796  0.00  0.00    +0.277 C 
ENDBRANCH  23  26
ENDBRANCH   1  21
TORSDOF 3
