REMARK  Name = ZINC36579820
REMARK  9 active torsions:
REMARK  status: ('A' for Active; 'I' for Inactive)
REMARK    1  A    between atoms: C_1  and  C_2
REMARK    2  A    between atoms: C_2  and  C_3
REMARK    3  A    between atoms: C_3  and  C_5
REMARK    4  A    between atoms: C_3  and  C_6
REMARK    5  A    between atoms: C_6  and  C_8
REMARK    6  A    between atoms: C_6  and  N_12
REMARK    7  A    between atoms: C_8  and  O_10
REMARK    8  A    between atoms: O_10  and  C_11
REMARK    9  A    between atoms: C_24  and  C_26
REMARK                            x       y       z     vdW  Elec       q    Type
REMARK                         _______ _______ _______ _____ _____    ______ ____
ROOT
ATOM      1  N   UNL     1       0.141  -4.225   2.463  0.00  0.00    -0.286 N 
ATOM      2  C   UNL     1       1.030  -3.550   3.218  0.00  0.00    +0.304 C 
ATOM      3  O   UNL     1       1.483  -2.493   2.824  0.00  0.00    -0.253 OA
ATOM      4  N   UNL     1       1.417  -4.047   4.410  0.00  0.00    -0.273 N 
ATOM      5  C   UNL     1       2.294  -3.272   5.300  0.00  0.00    +0.116 C 
ATOM      6  C   UNL     1       1.532  -2.937   6.588  0.00  0.00    +0.074 C 
ATOM      7  C   UNL     1       0.815  -4.174   7.063  0.00  0.00    +0.040 A 
ATOM      8  C   UNL     1       0.558  -5.258   6.300  0.00  0.00    +0.062 A 
ATOM      9  N   UNL     1      -0.092  -6.149   7.050  0.00  0.00    -0.348 N 
ATOM     10  C   UNL     1      -0.249  -5.663   8.254  0.00  0.00    +0.171 A 
ATOM     11  N   UNL     1       0.306  -4.430   8.300  0.00  0.00    -0.349 N 
ATOM     12  H   UNL     1       0.337  -3.840   9.070  0.00  0.00    +0.166 HD
ATOM     13  C   UNL     1       0.966  -5.378   4.855  0.00  0.00    +0.159 C 
ATOM     14  H   UNL     1      -0.165  -5.103   2.742  0.00  0.00    +0.151 HD
ATOM     15  H   UNL     1      -0.400  -7.019   6.750  0.00  0.00    +0.167 HD
ENDROOT
BRANCH  13  16
ATOM     16  C   UNL     1       2.092  -6.371   4.725  0.00  0.00    +0.017 A 
ATOM     17  C   UNL     1       2.787  -6.779   5.849  0.00  0.00    +0.009 A 
ATOM     18  C   UNL     1       3.820  -7.690   5.731  0.00  0.00    +0.003 A 
ATOM     19  C   UNL     1       4.161  -8.194   4.490  0.00  0.00    +0.041 A 
ATOM     20  C   UNL     1       3.468  -7.788   3.364  0.00  0.00    +0.159 A 
ATOM     21  C   UNL     1       2.428  -6.878   3.482  0.00  0.00    +0.164 A 
ATOM     22  F   UNL     1       1.746  -6.484   2.385  0.00  0.00    -0.202 F 
ATOM     23  F   UNL     1       3.801  -8.280   2.151  0.00  0.00    -0.202 F 
ENDBRANCH  13  16
BRANCH   1  24
ATOM     24  C   UNL     1      -0.364  -3.634   1.221  0.00  0.00    +0.186 C 
BRANCH  24  25
ATOM     25  C   UNL     1      -0.818  -4.747   0.274  0.00  0.00    +0.017 C 
ATOM     26  C   UNL     1      -2.011  -5.483   0.886  0.00  0.00    +0.010 C 
BRANCH  25  28
ATOM     27  C   UNL     1      -1.562  -5.258  -2.055  0.00  0.00    +0.004 C 
ATOM     28  C   UNL     1      -1.228  -4.138  -1.068  0.00  0.00    +0.002 C 
ENDBRANCH  25  28
ENDBRANCH  24  25
BRANCH  24  29
ATOM     29  C   UNL     1      -1.531  -2.733   1.532  0.00  0.00    +0.328 C 
ATOM     30  O   UNL     1      -1.903  -2.598   2.674  0.00  0.00    -0.249 OA
BRANCH  29  31
ATOM     31  O   UNL     1      -2.157  -2.079   0.541  0.00  0.00    -0.467 OA
ATOM     32  C   UNL     1      -3.256  -1.242   0.908  0.00  0.00    +0.280 C 
ENDBRANCH  29  31
ENDBRANCH  24  29
ENDBRANCH   1  24
TORSDOF 6
