REMARK  Name = ZINC59293510
REMARK  9 active torsions:
REMARK  status: ('A' for Active; 'I' for Inactive)
REMARK    1  A    between atoms: C_1  and  C_2
REMARK    2  A    between atoms: C_5  and  C_8
REMARK    3  A    between atoms: C_14  and  C_29
REMARK    4  A    between atoms: C_15  and  C_22
REMARK    5  A    between atoms: C_17  and  C_20
REMARK    6  A    between atoms: C_18  and  N_19
REMARK    7  A    between atoms: C_25  and  C_28
REMARK    8  A    between atoms: N_31  and  C_32
REMARK    9  A    between atoms: N_31  and  C_33
REMARK                            x       y       z     vdW  Elec       q    Type
REMARK                         _______ _______ _______ _____ _____    ______ ____
ROOT
ATOM      1  C   UNL     1       0.735  -3.990   0.107  0.00  0.00    +0.028 C 
ATOM      2  C   UNL     1       0.704  -4.735   1.241  0.00  0.00    +0.079 A 
ATOM      3  C   UNL     1       0.738  -4.300   2.643  0.00  0.00    +0.271 A 
ATOM      4  O   UNL     1       0.804  -3.119   2.928  0.00  0.00    -0.266 OA
ATOM      5  N   UNL     1       0.694  -5.241   3.607  0.00  0.00    -0.257 N 
ATOM      6  C   UNL     1       0.619  -6.561   3.212  0.00  0.00    +0.099 A 
ATOM      7  C   UNL     1       0.568  -7.616   4.067  0.00  0.00    +0.058 C 
ATOM      8  C   UNL     1       0.594  -7.336   5.556  0.00  0.00    +0.100 C 
ATOM      9  C   UNL     1       0.677  -5.875   5.949  0.00  0.00    +0.079 C 
ATOM     10  C   UNL     1       0.720  -4.940   4.974  0.00  0.00    +0.118 C 
ATOM     11  S   UNL     1       0.602  -6.507   1.431  0.00  0.00    -0.065 S 
ENDROOT
BRANCH   1  16
ATOM     12  C   UNL     1       1.693   1.668   0.412  0.00  0.00    +0.044 C 
ATOM     13  C   UNL     1       1.442   0.185   0.332  0.00  0.00    -0.050 A 
ATOM     14  C   UNL     1       0.531  -0.311  -0.585  0.00  0.00    +0.004 A 
ATOM     15  C   UNL     1       0.296  -1.667  -0.665  0.00  0.00    +0.008 A 
ATOM     16  C   UNL     1       0.981  -2.543   0.185  0.00  0.00    -0.024 A 
ATOM     17  C   UNL     1       1.899  -2.034   1.109  0.00  0.00    +0.008 A 
ATOM     18  C   UNL     1       2.127  -0.676   1.173  0.00  0.00    +0.004 A 
ENDBRANCH   1  16
BRANCH   8  19
ATOM     19  C   UNL     1       1.784  -8.047   6.148  0.00  0.00    -0.035 A 
ATOM     20  C   UNL     1       3.051  -7.803   5.655  0.00  0.00    +0.005 A 
ATOM     21  C   UNL     1       4.142  -8.456   6.198  0.00  0.00    +0.003 A 
ATOM     22  C   UNL     1       3.965  -9.352   7.235  0.00  0.00    -0.050 A 
ATOM     23  C   UNL     1       2.697  -9.596   7.729  0.00  0.00    +0.003 A 
ATOM     24  C   UNL     1       1.607  -8.940   7.189  0.00  0.00    +0.005 A 
ATOM     25  C   UNL     1       5.154 -10.065   7.827  0.00  0.00    +0.044 C 
ENDBRANCH   8  19
BRANCH   7  26
ATOM     26  C   UNL     1       0.492  -8.932   3.583  0.00  0.00    +0.246 C 
ATOM     27  O   UNL     1       1.485  -9.639   3.581  0.00  0.00    -0.270 OA
ATOM     28  N   UNL     1      -0.679  -9.414   3.120  0.00  0.00    -0.304 N 
ATOM     29  C   UNL     1      -0.786 -10.819   2.719  0.00  0.00    +0.132 C 
ATOM     30  C   UNL     1      -1.844  -8.532   3.018  0.00  0.00    +0.132 C 
ENDBRANCH   7  26
BRANCH  10  31
ATOM     31  N   UNL     1       0.796  -3.620   5.346  0.00  0.00    -0.343 N 
ATOM     32  H   UNL     1       0.380  -2.937   4.796  0.00  0.00    +0.144 HD
ATOM     33  H   UNL     1       1.265  -3.370   6.157  0.00  0.00    +0.144 HD
ENDBRANCH  10  31
BRANCH   9  34
ATOM     34  C   UNL     1       0.709  -5.492   7.328  0.00  0.00    +0.099 C 
ATOM     35  N   UNL     1       0.734  -5.187   8.423  0.00  0.00    -0.191 NA
ENDBRANCH   9  34
TORSDOF 5
