REMARK  Name = ZINC41551583
REMARK  7 active torsions:
REMARK  status: ('A' for Active; 'I' for Inactive)
REMARK    1  A    between atoms: C_1  and  C_2
REMARK    2  A    between atoms: C_2  and  C_3
REMARK    3  A    between atoms: C_2  and  O_4
REMARK    4  A    between atoms: O_4  and  C_5
REMARK    5  A    between atoms: C_9  and  C_16
REMARK    6  A    between atoms: N_18  and  C_19
REMARK    7  A    between atoms: C_20  and  C_28
REMARK                            x       y       z     vdW  Elec       q    Type
REMARK                         _______ _______ _______ _____ _____    ______ ____
ROOT
ATOM      1  C   UNL     1       7.041  -0.463   0.286  0.00  0.00    +0.250 C 
ATOM      2  O   UNL     1       8.253  -0.545   0.295  0.00  0.00    -0.270 OA
ATOM      3  N   UNL     1       6.386  -0.031   1.382  0.00  0.00    -0.275 N 
ATOM      4  H   UNL     1       5.427   0.108   1.351  0.00  0.00    +0.156 HD
ENDROOT
BRANCH   1   9
ATOM      5  C   UNL     1       8.194  -2.559  -4.297  0.00  0.00    +0.124 A 
ATOM      6  C   UNL     1       8.943  -2.220  -3.171  0.00  0.00    +0.046 A 
ATOM      7  C   UNL     1       8.338  -1.665  -2.081  0.00  0.00    +0.016 A 
ATOM      8  C   UNL     1       6.959  -1.435  -2.093  0.00  0.00    +0.030 A 
ATOM      9  C   UNL     1       6.282  -0.838  -0.931  0.00  0.00    +0.054 A 
ATOM     10  C   UNL     1       4.931  -0.639  -1.008  0.00  0.00    +0.105 A 
ATOM     11  C   UNL     1       4.235  -1.008  -2.184  0.00  0.00    +0.338 A 
ATOM     12  O   UNL     1       3.032  -0.827  -2.243  0.00  0.00    -0.245 OA
ATOM     13  O   UNL     1       4.866  -1.551  -3.235  0.00  0.00    -0.422 OA
ATOM     14  C   UNL     1       6.198  -1.775  -3.225  0.00  0.00    +0.143 A 
ATOM     15  C   UNL     1       6.828  -2.334  -4.327  0.00  0.00    +0.092 A 
BRANCH   5  16
ATOM     16  O   UNL     1       8.810  -3.111  -5.374  0.00  0.00    -0.489 OA
BRANCH  16  18
ATOM     17  C   UNL     1       7.895  -2.065  -7.351  0.00  0.00    +0.051 C 
ATOM     18  C   UNL     1       8.004  -3.351  -6.530  0.00  0.00    +0.167 C 
ATOM     19  C   UNL     1       8.648  -4.447  -7.381  0.00  0.00    +0.051 C 
ENDBRANCH  16  18
ENDBRANCH   5  16
ENDBRANCH   1   9
BRANCH   3  20
ATOM     20  C   UNL     1       7.084   0.213   2.553  0.00  0.00    +0.085 A 
ATOM     21  C   UNL     1       6.581   0.651   3.769  0.00  0.00    +0.068 A 
ATOM     22  C   UNL     1       7.530   0.832   4.853  0.00  0.00    -0.023 A 
ATOM     23  C   UNL     1       8.807   0.542   4.524  0.00  0.00    -0.004 A 
ATOM     24  S   UNL     1       8.731   0.040   2.829  0.00  0.00    -0.077 S 
ATOM     25  C   UNL     1      10.008   0.629   5.414  0.00  0.00    +0.043 C 
ATOM     26  C   UNL     1       9.631   1.457   6.652  0.00  0.00    +0.005 C 
ATOM     27  C   UNL     1       8.301   0.941   7.207  0.00  0.00    +0.005 C 
ATOM     28  C   UNL     1       7.162   1.303   6.252  0.00  0.00    +0.037 C 
BRANCH  21  29
ATOM     29  C   UNL     1       5.151   0.921   3.952  0.00  0.00    +0.244 C 
ATOM     30  O   UNL     1       4.407   0.034   4.326  0.00  0.00    -0.270 OA
ATOM     31  N   UNL     1       4.661   2.152   3.705  0.00  0.00    -0.325 N 
ATOM     32  H   UNL     1       5.254   2.860   3.407  0.00  0.00    +0.145 HD
ATOM     33  H   UNL     1       3.715   2.331   3.826  0.00  0.00    +0.145 HD
ENDBRANCH  21  29
ENDBRANCH   3  20
TORSDOF 5
