REMARK  Name = ZINC39370797
REMARK  9 active torsions:
REMARK  status: ('A' for Active; 'I' for Inactive)
REMARK    1  A    between atoms: C_1  and  O_2
REMARK    2  A    between atoms: O_2  and  C_3
REMARK    3  A    between atoms: C_5  and  C_21
REMARK    4  A    between atoms: C_8  and  O_9
REMARK    5  A    between atoms: O_9  and  C_10
REMARK    6  A    between atoms: C_10  and  C_11
REMARK    7  A    between atoms: C_14  and  N_17
REMARK    8  A    between atoms: C_22  and  C_23
REMARK    9  A    between atoms: C_22  and  C_25
REMARK                            x       y       z     vdW  Elec       q    Type
REMARK                         _______ _______ _______ _____ _____    ______ ____
ROOT
ATOM      1  C   UNL     1      -1.322  -0.993   0.400  0.00  0.00    +0.163 A 
ATOM      2  C   UNL     1      -2.400  -0.155   0.192  0.00  0.00    +0.057 A 
ATOM      3  C   UNL     1      -3.701  -0.665   0.258  0.00  0.00    -0.019 A 
ATOM      4  C   UNL     1      -3.904  -2.021   0.535  0.00  0.00    +0.027 A 
ATOM      5  C   UNL     1      -2.822  -2.851   0.742  0.00  0.00    +0.064 A 
ATOM      6  C   UNL     1      -1.531  -2.345   0.670  0.00  0.00    +0.176 A 
ATOM      7 BR   UNL     1      -3.098  -4.684   1.116  0.00  0.00    -0.046 Br
ENDROOT
BRANCH   1   9
ATOM      8  C   UNL     1       0.085   0.893   0.055  0.00  0.00    +0.277 C 
ATOM      9  O   UNL     1      -0.056  -0.501   0.336  0.00  0.00    -0.491 OA
ENDBRANCH   1   9
BRANCH   3  10
ATOM     10  C   UNL     1      -4.853   0.223   0.038  0.00  0.00    +0.026 C 
ATOM     11  C   UNL     1      -5.938  -0.231  -0.625  0.00  0.00    +0.072 C 
BRANCH  11  12
ATOM     12  C   UNL     1      -7.179   0.619  -0.709  0.00  0.00    +0.216 C 
ATOM     13  N   UNL     1      -8.329  -0.114  -0.165  0.00  0.00    -0.359 N 
ATOM     14  C   UNL     1      -9.203  -0.237  -1.122  0.00  0.00    +0.060 A 
ATOM     15  C   UNL     1     -10.530  -0.863  -1.189  0.00  0.00    +0.027 A 
ATOM     16  C   UNL     1     -11.222  -0.834  -2.346  0.00  0.00    +0.002 A 
ATOM     17  C   UNL     1     -10.724  -0.224  -3.511  0.00  0.00    +0.002 A 
ATOM     18  C   UNL     1      -9.519   0.379  -3.559  0.00  0.00    +0.027 A 
ATOM     19  C   UNL     1      -8.677   0.410  -2.355  0.00  0.00    +0.060 A 
ATOM     20  N   UNL     1      -7.498   0.908  -2.112  0.00  0.00    -0.359 N 
ATOM     21  H   UNL     1      -8.421  -0.446   0.742  0.00  0.00    +0.162 HD
ATOM     22  H   UNL     1      -6.935   1.382  -2.743  0.00  0.00    +0.162 HD
ENDBRANCH  11  12
BRANCH  11  23
ATOM     23  C   UNL     1      -5.908  -1.520  -1.248  0.00  0.00    +0.099 C 
ATOM     24  N   UNL     1      -5.885  -2.542  -1.743  0.00  0.00    -0.191 NA
ENDBRANCH  11  23
ENDBRANCH   3  10
BRANCH   6  25
ATOM     25  O   UNL     1      -0.469  -3.168   0.868  0.00  0.00    -0.483 OA
BRANCH  25  26
ATOM     26  C   UNL     1       0.003  -3.307   2.210  0.00  0.00    +0.264 C 
BRANCH  26  27
ATOM     27  C   UNL     1       1.177  -4.251   2.235  0.00  0.00    -0.010 A 
ATOM     28  C   UNL     1       0.969  -5.607   2.408  0.00  0.00    +0.009 A 
ATOM     29  C   UNL     1       2.046  -6.474   2.431  0.00  0.00    +0.033 A 
ATOM     30  C   UNL     1       3.330  -5.985   2.281  0.00  0.00    +0.126 A 
ATOM     31  C   UNL     1       3.537  -4.629   2.107  0.00  0.00    +0.033 A 
ATOM     32  C   UNL     1       2.460  -3.763   2.080  0.00  0.00    +0.009 A 
BRANCH  30  33
ATOM     33  N   UNL     1       4.483  -6.913   2.307  0.00  0.00    +0.056 N 
ATOM     34  O   UNL     1       4.301  -8.098   2.459  0.00  0.00    -0.126 OA
ATOM     35  O   UNL     1       5.606  -6.485   2.175  0.00  0.00    -0.126 OA
ENDBRANCH  30  33
ENDBRANCH  26  27
ENDBRANCH  25  26
ENDBRANCH   6  25
TORSDOF 8
