REMARK  Name = ZINC62356527
REMARK  5 active torsions:
REMARK  status: ('A' for Active; 'I' for Inactive)
REMARK    1  A    between atoms: C_3  and  C_6
REMARK    2  A    between atoms: C_6  and  C_8
REMARK    3  A    between atoms: C_6  and  N_22
REMARK    4  A    between atoms: C_8  and  N_9
REMARK    5  A    between atoms: C_10  and  C_12
REMARK                            x       y       z     vdW  Elec       q    Type
REMARK                         _______ _______ _______ _____ _____    ______ ____
ROOT
ATOM      1  C   UNL     1       3.885   0.266   1.440  0.00  0.00    +0.097 C 
ENDROOT
BRANCH   1   2
ATOM      2  N   UNL     1       3.170  -0.963   1.793  0.00  0.00    -0.311 N 
ATOM      3  C   UNL     1       3.191  -1.414   3.063  0.00  0.00    +0.264 C 
ATOM      4  O   UNL     1       3.803  -0.800   3.915  0.00  0.00    -0.268 OA
ATOM      5  H   UNL     1       2.682  -1.453   1.113  0.00  0.00    +0.149 HD
BRANCH   3   6
ATOM      6  C   UNL     1       2.471  -2.653   3.419  0.00  0.00    +0.150 A 
ATOM      7  C   UNL     1       2.394  -3.243   4.691  0.00  0.00    +0.005 A 
ATOM      8  C   UNL     1       1.635  -4.357   4.541  0.00  0.00    +0.040 A 
ATOM      9  N   UNL     1       1.278  -4.422   3.248  0.00  0.00    -0.281 N 
ATOM     10  H   UNL     1       0.728  -5.120   2.858  0.00  0.00    +0.189 HD
ATOM     11  N   UNL     1       1.767  -3.420   2.603  0.00  0.00    -0.169 NA
ATOM     12  C   UNL     1       1.298  -5.302   5.665  0.00  0.00    +0.055 C 
ATOM     13  C   UNL     1       2.264  -5.034   6.827  0.00  0.00    +0.006 C 
ATOM     14  C   UNL     1       2.294  -3.534   7.135  0.00  0.00    +0.005 C 
ATOM     15  C   UNL     1       2.999  -2.791   5.992  0.00  0.00    +0.039 C 
ENDBRANCH   3   6
ENDBRANCH   1   2
BRANCH   1  16
ATOM     16  C   UNL     1       3.812   0.481  -0.073  0.00  0.00    +0.016 C 
BRANCH  16  17
ATOM     17  N   UNL     1       4.315  -0.715  -0.763  0.00  0.00    +0.387 N 
ATOM     18  C   UNL     1       5.728  -0.917  -0.390  0.00  0.00    -0.078 C 
ATOM     19  C   UNL     1       6.060  -2.378  -0.568  0.00  0.00    -0.019 C 
ATOM     20  C   UNL     1       6.715  -2.644  -1.936  0.00  0.00    -0.002 C 
ATOM     21  C   UNL     1       6.040  -1.834  -3.061  0.00  0.00    -0.002 C 
ATOM     22  C   UNL     1       4.539  -1.810  -2.929  0.00  0.00    -0.019 C 
ATOM     23  C   UNL     1       4.122  -0.554  -2.136  0.00  0.00    -0.078 C 
ATOM     24  H   UNL     1       3.782  -1.514  -0.453  0.00  0.00    -0.081 HD
ENDBRANCH  16  17
BRANCH  16  27
ATOM     25  C   UNL     1       0.480   1.702  -1.069  0.00  0.00    +0.041 A 
ATOM     26  C   UNL     1       1.832   1.932  -0.726  0.00  0.00    +0.043 A 
ATOM     27  C   UNL     1       2.382   0.730  -0.477  0.00  0.00    +0.093 A 
ATOM     28  O   UNL     1       1.440  -0.211  -0.651  0.00  0.00    -0.469 OA
ATOM     29  C   UNL     1       0.284   0.372  -1.010  0.00  0.00    +0.195 A 
ENDBRANCH  16  27
ENDBRANCH   1  16
TORSDOF 5
