REMARK  Name = ZINC13532821
REMARK  5 active torsions:
REMARK  status: ('A' for Active; 'I' for Inactive)
REMARK    1  A    between atoms: C_5  and  C_7
REMARK    2  A    between atoms: N_9  and  N_10
REMARK    3  A    between atoms: C_14  and  C_15
REMARK    4  A    between atoms: C_18  and  O_24
REMARK    5  A    between atoms: C_19  and  N_21
REMARK                            x       y       z     vdW  Elec       q    Type
REMARK                         _______ _______ _______ _____ _____    ______ ____
ROOT
ATOM      1  N   UNL     1      -0.312  -4.317   0.119  0.00  0.00    -0.169 N 
ATOM      2  C   UNL     1      -0.595  -4.962  -1.000  0.00  0.00    +0.275 C 
ATOM      3  O   UNL     1      -1.143  -4.410  -1.935  0.00  0.00    -0.267 OA
ATOM      4  C   UNL     1      -0.212  -6.387  -1.057  0.00  0.00    +0.079 C 
ATOM      5  C   UNL     1      -0.374  -7.287  -2.060  0.00  0.00    +0.028 C 
ATOM      6  S   UNL     1       0.524  -6.601   0.558  0.00  0.00    -0.059 S 
ATOM      7  C   UNL     1       0.301  -4.932   1.151  0.00  0.00    +0.138 C 
ATOM      8  S   UNL     1       0.753  -4.272   2.665  0.00  0.00    -0.026 S 
ENDROOT
BRANCH   5   9
ATOM      9  C   UNL     1      -0.857  -6.844  -3.373  0.00  0.00    -0.021 A 
ATOM     10  C   UNL     1      -0.408  -5.633  -3.916  0.00  0.00    +0.011 A 
ATOM     11  C   UNL     1      -0.865  -5.222  -5.148  0.00  0.00    +0.048 A 
ATOM     12  C   UNL     1      -1.771  -6.006  -5.853  0.00  0.00    +0.147 A 
ATOM     13  C   UNL     1      -2.220  -7.208  -5.319  0.00  0.00    +0.168 A 
ATOM     14  C   UNL     1      -1.765  -7.632  -4.091  0.00  0.00    +0.044 A 
BRANCH  13  15
ATOM     15  N   UNL     1      -3.186  -8.037  -6.076  0.00  0.00    +0.060 N 
ATOM     16  O   UNL     1      -3.578  -9.082  -5.612  0.00  0.00    -0.126 OA
ATOM     17  O   UNL     1      -3.583  -7.668  -7.157  0.00  0.00    -0.126 OA
ENDBRANCH  13  15
BRANCH  12  18
ATOM     18  O   UNL     1      -2.218  -5.596  -7.067  0.00  0.00    -0.504 OA
ATOM     19  H   UNL     1      -1.678  -5.900  -7.809  0.00  0.00    +0.292 HD
ENDBRANCH  12  18
ENDBRANCH   5   9
BRANCH   1  22
ATOM     20  C   UNL     1       0.306  -2.018   0.141  0.00  0.00    +0.262 C 
ATOM     21  O   UNL     1       1.464  -2.342  -0.040  0.00  0.00    -0.269 OA
ATOM     22  N   UNL     1      -0.651  -2.962   0.233  0.00  0.00    -0.222 N 
ATOM     23  H   UNL     1      -1.575  -2.704   0.377  0.00  0.00    +0.174 HD
BRANCH  20  28
ATOM     24  C   UNL     1      -1.707   1.121   0.578  0.00  0.00    +0.001 A 
ATOM     25  C   UNL     1      -0.722   2.089   0.484  0.00  0.00    +0.001 A 
ATOM     26  C   UNL     1       0.596   1.726   0.279  0.00  0.00    +0.021 A 
ATOM     27  C   UNL     1       0.939   0.392   0.167  0.00  0.00    +0.053 A 
ATOM     28  C   UNL     1      -0.051  -0.589   0.261  0.00  0.00    +0.056 A 
ATOM     29  C   UNL     1      -1.380  -0.214   0.468  0.00  0.00    +0.014 A 
ATOM     30 CL   UNL     1       2.594  -0.063  -0.091  0.00  0.00    -0.083 Cl
ENDBRANCH  20  28
ENDBRANCH   1  22
TORSDOF 5
