REMARK  Name = ZINC14667940
REMARK  8 active torsions:
REMARK  status: ('A' for Active; 'I' for Inactive)
REMARK    1  A    between atoms: C_1  and  C_2
REMARK    2  A    between atoms: C_2  and  C_3
REMARK    3  A    between atoms: C_2  and  O_4
REMARK    4  A    between atoms: O_4  and  C_5
REMARK    5  A    between atoms: C_10  and  C_11
REMARK    6  A    between atoms: N_13  and  N_14
REMARK    7  A    between atoms: C_15  and  C_17
REMARK    8  A    between atoms: C_22  and  N_23
REMARK                            x       y       z     vdW  Elec       q    Type
REMARK                         _______ _______ _______ _____ _____    ______ ____
ROOT
ATOM      1  C   UNL     1      -5.934  -0.307   0.593  0.00  0.00    +0.264 C 
ATOM      2  O   UNL     1      -5.983  -1.515   0.719  0.00  0.00    -0.269 OA
ATOM      3  N   UNL     1      -4.746   0.304   0.416  0.00  0.00    -0.230 N 
ATOM      4  H   UNL     1      -4.706   1.268   0.316  0.00  0.00    +0.173 HD
ENDROOT
BRANCH   1  10
ATOM      5  C   UNL     1      -8.412  -0.141   0.816  0.00  0.00    +0.133 A 
ATOM      6  C   UNL     1      -9.573   0.617   0.852  0.00  0.00    +0.047 A 
ATOM      7  C   UNL     1      -9.508   1.989   0.708  0.00  0.00    +0.019 A 
ATOM      8  C   UNL     1      -8.286   2.618   0.527  0.00  0.00    +0.019 A 
ATOM      9  C   UNL     1      -7.122   1.879   0.494  0.00  0.00    +0.032 A 
ATOM     10  C   UNL     1      -7.175   0.490   0.633  0.00  0.00    +0.081 A 
ATOM     11 BR   UNL     1      -8.214   4.497   0.332  0.00  0.00    -0.050 Br
BRANCH   5  12
ATOM     12  O   UNL     1      -8.475  -1.489   0.958  0.00  0.00    -0.489 OA
BRANCH  12  14
ATOM     13  C   UNL     1     -10.328  -2.296  -0.367  0.00  0.00    +0.051 C 
ATOM     14  C   UNL     1      -9.776  -2.073   1.043  0.00  0.00    +0.167 C 
ATOM     15  C   UNL     1      -9.687  -3.414   1.774  0.00  0.00    +0.051 C 
ENDBRANCH  12  14
ENDBRANCH   5  12
ENDBRANCH   1  10
BRANCH   3  16
ATOM     16  N   UNL     1      -3.567  -0.453   0.378  0.00  0.00    -0.230 N 
ATOM     17  C   UNL     1      -2.379   0.159   0.202  0.00  0.00    +0.262 C 
ATOM     18  O   UNL     1      -2.330   1.367   0.076  0.00  0.00    -0.269 OA
ATOM     19  H   UNL     1      -3.607  -1.417   0.479  0.00  0.00    +0.173 HD
BRANCH  17  20
ATOM     20  C   UNL     1      -1.136  -0.640   0.162  0.00  0.00    +0.068 A 
ATOM     21  C   UNL     1      -0.818  -1.496   1.218  0.00  0.00    +0.015 A 
ATOM     22  C   UNL     1       0.344  -2.238   1.175  0.00  0.00    +0.001 A 
ATOM     23  C   UNL     1       1.194  -2.136   0.087  0.00  0.00    +0.002 A 
ATOM     24  C   UNL     1       0.882  -1.294  -0.965  0.00  0.00    +0.033 A 
ATOM     25  C   UNL     1      -0.275  -0.542  -0.932  0.00  0.00    +0.138 A 
BRANCH  25  26
ATOM     26  N   UNL     1      -0.604   0.362  -2.057  0.00  0.00    +0.057 N 
ATOM     27  O   UNL     1       0.202   0.538  -2.953  0.00  0.00    -0.126 OA
ATOM     28  O   UNL     1      -1.683   0.927  -2.088  0.00  0.00    -0.126 OA
ENDBRANCH  25  26
ENDBRANCH  17  20
ENDBRANCH   3  16
TORSDOF 6
