REMARK  Name = ZINC08237834
REMARK  5 active torsions:
REMARK  status: ('A' for Active; 'I' for Inactive)
REMARK    1  A    between atoms: C_1  and  O_2
REMARK    2  A    between atoms: O_2  and  C_3
REMARK    3  A    between atoms: C_8  and  C_9
REMARK    4  A    between atoms: N_15  and  N_16
REMARK    5  A    between atoms: C_17  and  C_18
REMARK                            x       y       z     vdW  Elec       q    Type
REMARK                         _______ _______ _______ _____ _____    ______ ____
ROOT
ATOM      1  N   UNL     1      -2.903   4.221   5.027  0.00  0.00    -0.170 NA
ATOM      2  C   UNL     1      -4.001   4.819   4.666  0.00  0.00    +0.142 C 
ENDROOT
BRANCH   2   3
ATOM      3  C   UNL     1      -4.255   6.201   5.085  0.00  0.00    +0.010 A 
ATOM      4  C   UNL     1      -5.378   6.900   4.596  0.00  0.00    -0.009 A 
ATOM      5  C   UNL     1      -6.283   6.290   3.711  0.00  0.00    +0.009 A 
ATOM      6  C   UNL     1      -7.360   6.990   3.263  0.00  0.00    +0.001 A 
ATOM      7  C   UNL     1      -7.597   8.304   3.665  0.00  0.00    +0.001 A 
ATOM      8  C   UNL     1      -6.763   8.948   4.522  0.00  0.00    +0.008 A 
ATOM      9  C   UNL     1      -5.627   8.278   5.024  0.00  0.00    -0.017 A 
ATOM     10  C   UNL     1      -4.751   8.911   5.907  0.00  0.00    +0.017 A 
ATOM     11  C   UNL     1      -3.634   8.229   6.390  0.00  0.00    -0.017 A 
ATOM     12  C   UNL     1      -3.375   6.848   5.976  0.00  0.00    -0.009 A 
ATOM     13  C   UNL     1      -2.241   6.190   6.483  0.00  0.00    +0.009 A 
ATOM     14  C   UNL     1      -1.413   6.843   7.342  0.00  0.00    +0.001 A 
ATOM     15  C   UNL     1      -1.657   8.157   7.738  0.00  0.00    +0.001 A 
ATOM     16  C   UNL     1      -2.735   8.849   7.284  0.00  0.00    +0.008 A 
ENDBRANCH   2   3
BRANCH   1  23
ATOM     17  C   UNL     1      -2.013   2.511   3.469  0.00  0.00    +0.187 A 
ATOM     18  N   UNL     1      -1.980   1.207   3.432  0.00  0.00    -0.151 NA
ATOM     19  N   UNL     1      -2.608   0.724   4.588  0.00  0.00    -0.253 N 
ATOM     20  H   UNL     1      -2.728  -0.208   4.829  0.00  0.00    +0.191 HD
ATOM     21  C   UNL     1      -3.020   1.791   5.303  0.00  0.00    +0.197 A 
ATOM     22  S   UNL     1      -3.851   1.745   6.799  0.00  0.00    -0.010 S 
ATOM     23  N   UNL     1      -2.661   2.900   4.626  0.00  0.00    -0.188 N 
BRANCH  17  29
ATOM     24  C   UNL     1      -0.821   2.895   1.311  0.00  0.00    +0.131 A 
ATOM     25  C   UNL     1      -0.308   3.754   0.352  0.00  0.00    +0.046 A 
ATOM     26  C   UNL     1      -0.420   5.122   0.516  0.00  0.00    +0.004 A 
ATOM     27  C   UNL     1      -1.043   5.643   1.637  0.00  0.00    +0.001 A 
ATOM     28  C   UNL     1      -1.559   4.801   2.600  0.00  0.00    +0.015 A 
ATOM     29  C   UNL     1      -1.457   3.419   2.443  0.00  0.00    +0.063 A 
BRANCH  24  31
ATOM     30  C   UNL     1      -0.056   1.090  -0.032  0.00  0.00    +0.277 C 
ATOM     31  O   UNL     1      -0.712   1.551   1.150  0.00  0.00    -0.494 OA
ENDBRANCH  24  31
ENDBRANCH  17  29
ENDBRANCH   1  23
TORSDOF 4
