REMARK  Name = ZINC02090099
REMARK  8 active torsions:
REMARK  status: ('A' for Active; 'I' for Inactive)
REMARK    1  A    between atoms: C_1  and  C_2
REMARK    2  A    between atoms: C_2  and  C_7
REMARK    3  A    between atoms: N_9  and  C_10
REMARK    4  A    between atoms: C_11  and  C_24
REMARK    5  A    between atoms: C_16  and  C_20
REMARK    6  A    between atoms: C_20  and  C_21
REMARK    7  A    between atoms: C_20  and  C_22
REMARK    8  A    between atoms: C_20  and  C_23
REMARK                            x       y       z     vdW  Elec       q    Type
REMARK                         _______ _______ _______ _____ _____    ______ ____
ROOT
ATOM      1  C   UNL     1      -0.727  -2.711   2.499  0.00  0.00    +0.084 A 
ATOM      2  C   UNL     1      -0.790  -4.075   2.741  0.00  0.00    +0.068 A 
ATOM      3  C   UNL     1      -1.185  -4.504   4.072  0.00  0.00    -0.023 A 
ATOM      4  C   UNL     1      -1.461  -3.505   4.939  0.00  0.00    -0.004 A 
ATOM      5  S   UNL     1      -1.198  -2.018   4.016  0.00  0.00    -0.077 S 
ATOM      6  C   UNL     1      -1.893  -3.642   6.366  0.00  0.00    +0.046 C 
ATOM      7  C   UNL     1      -1.618  -5.084   6.819  0.00  0.00    -0.000 C 
ATOM      8  C   UNL     1      -2.157  -6.046   5.757  0.00  0.00    +0.009 C 
ATOM      9  C   UNL     1      -1.296  -5.963   4.495  0.00  0.00    +0.037 C 
ENDROOT
BRANCH   2  10
ATOM     10  C   UNL     1      -0.467  -5.049   1.694  0.00  0.00    +0.244 C 
ATOM     11  O   UNL     1       0.676  -5.447   1.564  0.00  0.00    -0.270 OA
ATOM     12  N   UNL     1      -1.435  -5.505   0.875  0.00  0.00    -0.325 N 
ATOM     13  H   UNL     1      -2.346  -5.188   0.978  0.00  0.00    +0.145 HD
ATOM     14  H   UNL     1      -1.221  -6.149   0.182  0.00  0.00    +0.145 HD
ENDBRANCH   2  10
BRANCH   1  17
ATOM     15  C   UNL     1      -0.378  -0.712   1.277  0.00  0.00    +0.226 C 
ATOM     16  O   UNL     1      -0.685  -0.070   2.259  0.00  0.00    -0.275 OA
ATOM     17  N   UNL     1      -0.377  -2.059   1.326  0.00  0.00    -0.279 N 
ATOM     18  H   UNL     1      -0.131  -2.573   0.540  0.00  0.00    +0.155 HD
BRANCH  15  20
ATOM     19  C   UNL     1      -0.409  -0.709  -1.292  0.00  0.00    +0.023 C 
ATOM     20  C   UNL     1       0.002  -0.004   0.002  0.00  0.00    +0.071 C 
ATOM     21  C   UNL     1       1.317   0.779  -0.006  0.00  0.00    +0.048 C 
ATOM     22  C   UNL     1      -0.019   1.526   0.010  0.00  0.00    +0.096 C 
ATOM     23 BR   UNL     1      -0.571   2.435  -1.643  0.00  0.00    -0.071 Br
ATOM     24 BR   UNL     1      -0.539   2.417   1.684  0.00  0.00    -0.071 Br
ENDBRANCH  15  20
ENDBRANCH   1  17
BRANCH   7  25
ATOM     25  C   UNL     1      -2.321  -5.346   8.152  0.00  0.00    -0.035 C 
ATOM     26  C   UNL     1      -3.828  -5.145   7.982  0.00  0.00    +0.011 C 
ATOM     27  C   UNL     1      -2.045  -6.782   8.601  0.00  0.00    +0.011 C 
ATOM     28  C   UNL     1      -1.793  -4.372   9.207  0.00  0.00    +0.011 C 
ENDBRANCH   7  25
TORSDOF 4
