REMARK  Name = ZINC17014720
REMARK  2 active torsions:
REMARK  status: ('A' for Active; 'I' for Inactive)
REMARK    1  A    between atoms: C_11  and  C_16
REMARK    2  A    between atoms: N_20  and  C_23
REMARK                            x       y       z     vdW  Elec       q    Type
REMARK                         _______ _______ _______ _____ _____    ______ ____
ROOT
ATOM      1  C   UNL     1       5.078  -3.984  -1.140  0.00  0.00    +0.073 A 
ATOM      2  C   UNL     1       6.160  -3.373  -0.580  0.00  0.00    +0.260 A 
ATOM      3  N   UNL     1       6.989  -2.614  -1.366  0.00  0.00    -0.274 N 
ATOM      4  C   UNL     1       6.740  -2.473  -2.681  0.00  0.00    +0.337 A 
ATOM      5  N   UNL     1       5.678  -3.068  -3.253  0.00  0.00    -0.229 N 
ATOM      6  C   UNL     1       4.841  -3.826  -2.517  0.00  0.00    +0.267 A 
ATOM      7  O   UNL     1       3.882  -4.367  -3.041  0.00  0.00    -0.267 OA
ATOM      8  O   UNL     1       7.487  -1.797  -3.363  0.00  0.00    -0.246 OA
ATOM      9  O   UNL     1       6.413  -3.512   0.739  0.00  0.00    -0.267 OA
ATOM     10  H   UNL     1       7.761  -2.177  -0.972  0.00  0.00    +0.173 HD
ENDROOT
BRANCH   1  21
ATOM     11  C   UNL     1      -1.640  -2.951  -0.232  0.00  0.00    +0.001 A 
ATOM     12  C   UNL     1      -1.064  -1.698  -0.070  0.00  0.00    +0.002 A 
ATOM     13  C   UNL     1       0.305  -1.557  -0.017  0.00  0.00    +0.026 A 
ATOM     14  C   UNL     1       1.121  -2.678  -0.125  0.00  0.00    +0.047 A 
ATOM     15  C   UNL     1       0.533  -3.948  -0.288  0.00  0.00    +0.003 A 
ATOM     16  C   UNL     1      -0.858  -4.066  -0.340  0.00  0.00    +0.010 A 
ATOM     17  C   UNL     1       1.641  -4.890  -0.367  0.00  0.00    -0.022 A 
ATOM     18  C   UNL     1       2.784  -4.182  -0.255  0.00  0.00    +0.011 A 
ATOM     19  N   UNL     1       2.488  -2.858  -0.109  0.00  0.00    -0.359 N 
ATOM     20  H   UNL     1       3.143  -2.149  -0.008  0.00  0.00    +0.166 HD
ATOM     21  C   UNL     1       4.152  -4.822  -0.297  0.00  0.00    +0.018 C 
ATOM     22  N   UNL     1       4.022  -6.165  -0.885  0.00  0.00    +0.388 N 
ATOM     23  C   UNL     1       2.991  -6.934  -0.174  0.00  0.00    -0.076 C 
ATOM     24  C   UNL     1       1.603  -6.387  -0.536  0.00  0.00    +0.018 C 
ATOM     25  H   UNL     1       3.765  -6.080  -1.857  0.00  0.00    -0.084 HD
ATOM     26  H   UNL     1       4.906  -6.647  -0.815  0.00  0.00    -0.084 HD
ENDBRANCH   1  21
BRANCH   5  27
ATOM     27  C   UNL     1       5.442  -2.902  -4.624  0.00  0.00    +0.054 A 
ATOM     28  C   UNL     1       4.657  -1.849  -5.073  0.00  0.00    +0.028 A 
ATOM     29  C   UNL     1       4.426  -1.688  -6.425  0.00  0.00    +0.022 A 
ATOM     30  C   UNL     1       4.976  -2.575  -7.333  0.00  0.00    +0.041 A 
ATOM     31  C   UNL     1       5.759  -3.626  -6.888  0.00  0.00    +0.022 A 
ATOM     32  C   UNL     1       5.998  -3.788  -5.537  0.00  0.00    +0.028 A 
ATOM     33 CL   UNL     1       4.683  -2.371  -9.031  0.00  0.00    -0.084 Cl
ENDBRANCH   5  27
TORSDOF 2
