REMARK  Name = ZINC13422698
REMARK  9 active torsions:
REMARK  status: ('A' for Active; 'I' for Inactive)
REMARK    1  A    between atoms: C_1  and  C_2
REMARK    2  A    between atoms: C_5  and  N_9
REMARK    3  A    between atoms: C_6  and  C_8
REMARK    4  A    between atoms: C_10  and  C_12
REMARK    5  A    between atoms: C_12  and  C_14
REMARK    6  A    between atoms: C_12  and  O_15
REMARK    7  A    between atoms: O_15  and  C_16
REMARK    8  A    between atoms: C_19  and  C_24
REMARK    9  A    between atoms: C_21  and  C_22
REMARK                            x       y       z     vdW  Elec       q    Type
REMARK                         _______ _______ _______ _____ _____    ______ ____
ROOT
ATOM      1  C   UNL     1       4.997   3.461  -0.011  0.00  0.00    +0.256 C 
ATOM      2  C   UNL     1       5.601   3.777  -1.381  0.00  0.00    +0.062 C 
ENDROOT
BRANCH   1   4
ATOM      3  N   UNL     1       6.039   5.412   1.096  0.00  0.00    -0.282 N 
ATOM      4  C   UNL     1       4.917   4.724   0.806  0.00  0.00    +0.258 C 
ATOM      5  O   UNL     1       3.842   5.122   1.203  0.00  0.00    -0.271 OA
ATOM      6  H   UNL     1       6.890   5.130   0.726  0.00  0.00    +0.155 HD
BRANCH   3  11
ATOM      7  C   UNL     1       5.786   9.956   4.483  0.00  0.00    +0.044 C 
ATOM      8  C   UNL     1       5.854   8.749   3.583  0.00  0.00    -0.050 A 
ATOM      9  C   UNL     1       4.775   8.426   2.781  0.00  0.00    +0.005 A 
ATOM     10  C   UNL     1       4.833   7.320   1.955  0.00  0.00    +0.024 A 
ATOM     11  C   UNL     1       5.977   6.533   1.931  0.00  0.00    +0.036 A 
ATOM     12  C   UNL     1       7.056   6.857   2.743  0.00  0.00    -0.029 A 
ATOM     13  C   UNL     1       6.993   7.967   3.562  0.00  0.00    +0.008 A 
ATOM     14  C   UNL     1       8.297   6.001   2.725  0.00  0.00    +0.045 C 
ENDBRANCH   3  11
ENDBRANCH   1   4
BRANCH   1  15
ATOM     15  O   UNL     1       3.686   2.920  -0.182  0.00  0.00    -0.479 OA
BRANCH  15  16
ATOM     16  C   UNL     1       3.596   1.590  -0.423  0.00  0.00    +0.136 A 
ATOM     17  C   UNL     1       4.750   0.836  -0.603  0.00  0.00    +0.047 A 
ATOM     18  C   UNL     1       4.664  -0.514  -0.854  0.00  0.00    +0.019 A 
ATOM     19  C   UNL     1       3.414  -1.140  -0.926  0.00  0.00    +0.064 A 
ATOM     20  C   UNL     1       2.250  -0.396  -0.743  0.00  0.00    +0.034 A 
ATOM     21  C   UNL     1       2.337   0.971  -0.488  0.00  0.00    +0.105 A 
BRANCH  21  22
ATOM     22  C   UNL     1       1.111   1.767  -0.292  0.00  0.00    +0.390 C 
ATOM     23  O   UNL     1       1.189   2.959  -0.070  0.00  0.00    -0.240 OA
ATOM     24  O   UNL     1      -0.096   1.172  -0.360  0.00  0.00    -0.240 OA
ENDBRANCH  21  22
BRANCH  19  25
ATOM     25  C   UNL     1       3.328  -2.587  -1.197  0.00  0.00    +0.387 C 
ATOM     26  O   UNL     1       2.244  -3.131  -1.260  0.00  0.00    -0.241 OA
ATOM     27  O   UNL     1       4.454  -3.307  -1.375  0.00  0.00    -0.241 OA
ENDBRANCH  19  25
ENDBRANCH  15  16
ENDBRANCH   1  15
TORSDOF 6
