REMARK  Name = ZINC09174356
REMARK  8 active torsions:
REMARK  status: ('A' for Active; 'I' for Inactive)
REMARK    1  A    between atoms: C_1  and  N_51
REMARK    2  A    between atoms: C_2  and  N_51
REMARK    3  A    between atoms: C_3  and  C_4
REMARK    4  A    between atoms: C_3  and  N_51
REMARK    5  A    between atoms: C_4  and  N_5
REMARK    6  A    between atoms: C_6  and  C_24
REMARK    7  A    between atoms: C_9  and  C_10
REMARK    8  A    between atoms: C_9  and  O_19
REMARK                            x       y       z     vdW  Elec       q    Type
REMARK                         _______ _______ _______ _____ _____    ______ ____
ROOT
ATOM      1  N   UNL     1       1.415  -0.401  -0.024  0.00  0.00    -0.285 N 
ATOM      2  C   UNL     1       0.015   0.010  -0.168  0.00  0.00    +0.145 C 
ATOM      3  C   UNL     1      -0.022   1.503   0.062  0.00  0.00    +0.074 C 
ATOM      4  C   UNL     1      -1.137   2.324   0.020  0.00  0.00    +0.168 C 
ATOM      5  C   UNL     1       1.299   1.891   0.321  0.00  0.00    +0.249 C 
ATOM      6  O   UNL     1       1.677   3.026   0.556  0.00  0.00    -0.282 OA
ATOM      7  C   UNL     1       2.160   0.681   0.258  0.00  0.00    +0.288 C 
ATOM      8  O   UNL     1       3.361   0.671   0.437  0.00  0.00    -0.266 OA
ENDROOT
BRANCH   4   9
ATOM      9  C   UNL     1      -0.983   3.773   0.138  0.00  0.00    +0.171 A 
ATOM     10  C   UNL     1      -1.718   4.580   0.955  0.00  0.00    +0.061 A 
ATOM     11  C   UNL     1      -1.245   5.902   0.761  0.00  0.00    +0.021 A 
ATOM     12  C   UNL     1      -1.593   7.144   1.304  0.00  0.00    +0.011 A 
ATOM     13  C   UNL     1      -0.935   8.269   0.897  0.00  0.00    +0.001 A 
ATOM     14  C   UNL     1       0.075   8.191  -0.052  0.00  0.00    +0.004 A 
ATOM     15  C   UNL     1       0.433   6.978  -0.600  0.00  0.00    +0.047 A 
ATOM     16  C   UNL     1      -0.221   5.819  -0.202  0.00  0.00    +0.136 A 
ATOM     17  O   UNL     1      -0.094   4.522  -0.551  0.00  0.00    -0.452 OA
ENDBRANCH   4   9
BRANCH   2  18
ATOM     18  C   UNL     1      -0.838  -0.692   0.857  0.00  0.00    -0.021 A 
ATOM     19  C   UNL     1      -0.354  -0.896   2.136  0.00  0.00    +0.006 A 
ATOM     20  C   UNL     1      -1.139  -1.534   3.078  0.00  0.00    +0.001 A 
ATOM     21  C   UNL     1      -2.403  -1.979   2.739  0.00  0.00    +0.015 A 
ATOM     22  C   UNL     1      -2.885  -1.781   1.458  0.00  0.00    +0.018 A 
ATOM     23  C   UNL     1      -2.101  -1.136   0.517  0.00  0.00    +0.021 A 
ATOM     24 BR   UNL     1      -4.613  -2.390   0.992  0.00  0.00    -0.050 Br
ENDBRANCH   2  18
BRANCH   4  25
ATOM     25  O   UNL     1      -2.368   1.785  -0.129  0.00  0.00    -0.503 OA
ATOM     26  H   UNL     1      -3.052   2.514  -0.139  0.00  0.00    +0.292 HD
ENDBRANCH   4  25
BRANCH   1  27
ATOM     27  C   UNL     1       1.919  -1.769  -0.164  0.00  0.00    +0.090 C 
BRANCH  27  28
ATOM     28  C   UNL     1       2.305  -2.023  -1.623  0.00  0.00    -0.060 C 
BRANCH  28  31
ATOM     29  C   UNL     1       1.749  -4.377  -1.508  0.00  0.00    -0.097 C 
ATOM     30  C   UNL     1       3.411  -3.601  -3.089  0.00  0.00    -0.097 C 
ATOM     31  N   UNL     1       2.832  -3.399  -1.744  0.00  0.00    +0.377 N 
ATOM     32  H   UNL     1       3.567  -3.538  -1.041  0.00  0.00    -0.083 HD
ENDBRANCH  28  31
ENDBRANCH  27  28
ENDBRANCH   1  27
TORSDOF 6
