REMARK  Name = ZINC35339968
REMARK  6 active torsions:
REMARK  status: ('A' for Active; 'I' for Inactive)
REMARK    1  A    between atoms: C_1  and  N_2
REMARK    2  A    between atoms: N_2  and  S_3
REMARK    3  A    between atoms: S_3  and  C_6
REMARK    4  A    between atoms: C_9  and  N_13
REMARK    5  A    between atoms: C_10  and  N_12
REMARK    6  A    between atoms: N_13  and  C_14
REMARK                            x       y       z     vdW  Elec       q    Type
REMARK                         _______ _______ _______ _____ _____    ______ ____
ROOT
ATOM      1  C   UNL     1       2.508  -0.544  -1.697  0.00  0.00    +0.107 A 
ATOM      2  C   UNL     1       2.961   0.720  -2.030  0.00  0.00    +0.030 A 
ATOM      3  C   UNL     1       4.286   1.058  -1.830  0.00  0.00    +0.027 A 
ATOM      4  C   UNL     1       5.166   0.129  -1.295  0.00  0.00    +0.052 A 
ATOM      5  C   UNL     1       4.709  -1.146  -0.960  0.00  0.00    +0.048 A 
ATOM      6  C   UNL     1       3.377  -1.474  -1.158  0.00  0.00    +0.053 A 
ENDROOT
BRANCH   1   7
ATOM      7  S   UNL     1       0.817  -0.966  -1.955  0.00  0.00    +0.058 S 
ATOM      8  O   UNL     1       0.764  -2.382  -2.066  0.00  0.00    -0.153 OA
ATOM      9  O   UNL     1       0.334  -0.104  -2.976  0.00  0.00    -0.153 OA
BRANCH   7  11
ATOM     10  C   UNL     1      -0.109   0.833  -0.161  0.00  0.00    +0.127 C 
ATOM     11  N   UNL     1      -0.004  -0.569  -0.573  0.00  0.00    -0.193 NA
ATOM     12  H   UNL     1      -0.414  -1.264  -0.036  0.00  0.00    +0.148 HD
ENDBRANCH   7  11
ENDBRANCH   1   7
BRANCH   5  13
ATOM     13  N   UNL     1       5.591  -2.088  -0.419  0.00  0.00    -0.356 N 
ATOM     14  H   UNL     1       6.522  -1.855  -0.278  0.00  0.00    +0.142 HD
ATOM     15  H   UNL     1       5.272  -2.974  -0.187  0.00  0.00    +0.142 HD
ENDBRANCH   5  13
BRANCH   4  16
ATOM     16  N   UNL     1       6.509   0.469  -1.093  0.00  0.00    -0.311 N 
ATOM     17  H   UNL     1       7.141  -0.205  -0.798  0.00  0.00    +0.152 HD
BRANCH  16  18
ATOM     18  C   UNL     1       6.940   1.782  -1.317  0.00  0.00    +0.067 A 
ATOM     19  C   UNL     1       6.173   2.850  -0.873  0.00  0.00    +0.029 A 
ATOM     20  C   UNL     1       6.600   4.146  -1.094  0.00  0.00    +0.040 A 
ATOM     21  C   UNL     1       7.792   4.379  -1.758  0.00  0.00    +0.126 A 
ATOM     22  C   UNL     1       8.560   3.316  -2.203  0.00  0.00    +0.078 A 
ATOM     23  C   UNL     1       8.140   2.018  -1.979  0.00  0.00    +0.147 A 
ATOM     24  F   UNL     1       8.891   0.980  -2.408  0.00  0.00    -0.203 F 
ATOM     25  F   UNL     1       8.207   5.647  -1.974  0.00  0.00    -0.205 F 
ENDBRANCH  16  18
ENDBRANCH   4  16
TORSDOF 5
