REMARK  Name = ZINC20029520
REMARK  6 active torsions:
REMARK  status: ('A' for Active; 'I' for Inactive)
REMARK    1  A    between atoms: C_1  and  C_2
REMARK    2  A    between atoms: C_5  and  C_8
REMARK    3  A    between atoms: C_11  and  O_26
REMARK    4  A    between atoms: C_18  and  C_25
REMARK    5  A    between atoms: C_19  and  C_23
REMARK    6  A    between atoms: C_20  and  N_22
REMARK                            x       y       z     vdW  Elec       q    Type
REMARK                         _______ _______ _______ _____ _____    ______ ____
ROOT
ATOM      1  C   UNL     1       0.059  -4.275  -0.021  0.00  0.00    +0.062 C 
ATOM      2  C   UNL     1      -1.167  -4.812   0.717  0.00  0.00    +0.108 C 
ATOM      3  C   UNL     1      -1.030  -4.667   2.205  0.00  0.00    +0.189 C 
ATOM      4  N   UNL     1       0.118  -4.804   2.810  0.00  0.00    -0.210 NA
ATOM      5  C   UNL     1       1.225  -4.991   2.064  0.00  0.00    +0.111 A 
ATOM      6  C   UNL     1       1.306  -4.779   0.702  0.00  0.00    +0.019 A 
ATOM      7  C   UNL     1       2.530  -5.041   0.076  0.00  0.00    +0.086 A 
ATOM      8  C   UNL     1       3.592  -5.468   0.925  0.00  0.00    +0.044 A 
ATOM      9  S   UNL     1       2.855  -5.499   2.533  0.00  0.00    -0.067 S 
ATOM     10  C   UNL     1       4.858  -5.761   0.488  0.00  0.00    -0.014 A 
ATOM     11  C   UNL     1       5.056  -5.613  -0.902  0.00  0.00    +0.095 A 
ATOM     12  C   UNL     1       3.986  -5.192  -1.712  0.00  0.00    +0.135 A 
ATOM     13  N   UNL     1       2.780  -4.918  -1.253  0.00  0.00    -0.230 NA
ATOM     14  C   UNL     1       5.955  -6.207   1.421  0.00  0.00    +0.046 C 
ENDROOT
BRANCH   1  19
ATOM     15  C   UNL     1      -0.018   1.503   0.010  0.00  0.00    +0.044 C 
ATOM     16  C   UNL     1       0.002  -0.004   0.002  0.00  0.00    -0.050 A 
ATOM     17  C   UNL     1       0.006  -0.689  -1.199  0.00  0.00    +0.003 A 
ATOM     18  C   UNL     1       0.025  -2.071  -1.206  0.00  0.00    +0.004 A 
ATOM     19  C   UNL     1       0.040  -2.768  -0.013  0.00  0.00    -0.039 A 
ATOM     20  C   UNL     1       0.037  -2.084   1.188  0.00  0.00    +0.004 A 
ATOM     21  C   UNL     1       0.023  -0.702   1.195  0.00  0.00    +0.003 A 
ENDBRANCH   1  19
BRANCH  12  22
ATOM     22  N   UNL     1       4.212  -5.058  -3.073  0.00  0.00    -0.342 N 
ATOM     23  H   UNL     1       5.088  -5.252  -3.440  0.00  0.00    +0.144 HD
ATOM     24  H   UNL     1       3.494  -4.769  -3.657  0.00  0.00    +0.144 HD
ENDBRANCH  12  22
BRANCH  11  25
ATOM     25  C   UNL     1       6.335  -5.890  -1.482  0.00  0.00    +0.103 C 
ATOM     26  N   UNL     1       7.350  -6.109  -1.943  0.00  0.00    -0.191 NA
ENDBRANCH  11  25
BRANCH   3  27
ATOM     27  O   UNL     1      -2.126  -4.387   2.939  0.00  0.00    -0.495 OA
ATOM     28  H   UNL     1      -1.955  -4.309   3.887  0.00  0.00    +0.293 HD
ENDBRANCH   3  27
TORSDOF 4
