REMARK  Name = ZINC66482026
REMARK  6 active torsions:
REMARK  status: ('A' for Active; 'I' for Inactive)
REMARK    1  A    between atoms: N_9  and  C_11
REMARK    2  A    between atoms: C_11  and  C_12
REMARK    3  A    between atoms: C_12  and  C_14
REMARK    4  A    between atoms: C_12  and  O_29
REMARK    5  A    between atoms: C_14  and  N_15
REMARK    6  A    between atoms: C_21  and  N_26
REMARK                            x       y       z     vdW  Elec       q    Type
REMARK                         _______ _______ _______ _____ _____    ______ ____
ROOT
ATOM      1  C   UNL     1       5.939  -2.100   1.067  0.00  0.00    +0.116 C 
ENDROOT
BRANCH   1   2
ATOM      2  O   UNL     1       6.000  -0.711   0.736  0.00  0.00    -0.392 OA
ATOM      3  H   UNL     1       6.219  -0.536  -0.189  0.00  0.00    +0.210 HD
ENDBRANCH   1   2
BRANCH   1   4
ATOM      4  C   UNL     1       4.866  -2.780   0.214  0.00  0.00    -0.045 C 
BRANCH   4  13
ATOM      5  C   UNL     1      -1.367  -1.283   0.465  0.00  0.00    +0.000 A 
ATOM      6  C   UNL     1      -1.086  -1.829  -0.773  0.00  0.00    +0.000 A 
ATOM      7  C   UNL     1       0.187  -2.284  -1.052  0.00  0.00    +0.002 A 
ATOM      8  C   UNL     1       1.188  -2.196  -0.095  0.00  0.00    -0.061 A 
ATOM      9  C   UNL     1       0.907  -1.649   1.139  0.00  0.00    -0.048 A 
ATOM     10  C   UNL     1      -0.372  -1.194   1.418  0.00  0.00    +0.004 A 
ATOM     11  C   UNL     1       1.966  -1.527   2.204  0.00  0.00    +0.017 C 
ATOM     12  C   UNL     1       3.153  -2.428   1.859  0.00  0.00    -0.074 C 
ATOM     13  N   UNL     1       3.563  -2.153   0.474  0.00  0.00    +0.384 N 
ATOM     14  C   UNL     1       2.561  -2.709  -0.440  0.00  0.00    -0.043 C 
ATOM     15  H   UNL     1       3.632  -1.157   0.333  0.00  0.00    -0.081 HD
ENDBRANCH   4  13
ENDBRANCH   1   4
BRANCH   1  16
ATOM     16  C   UNL     1       7.296  -2.750   0.794  0.00  0.00    +0.146 C 
BRANCH  16  17
ATOM     17  N   UNL     1       8.301  -2.181   1.696  0.00  0.00    -0.232 N 
ATOM     18  C   UNL     1       9.045  -1.095   1.419  0.00  0.00    +0.254 C 
ATOM     19  O   UNL     1       8.991  -0.441   0.397  0.00  0.00    -0.270 OA
ATOM     20  C   UNL     1       9.938  -0.831   2.566  0.00  0.00    +0.050 A 
ATOM     21  C   UNL     1      10.900   0.127   2.843  0.00  0.00    +0.016 A 
ATOM     22  C   UNL     1      11.579   0.091   4.051  0.00  0.00    +0.033 A 
ATOM     23  C   UNL     1      11.302  -0.894   4.981  0.00  0.00    +0.127 A 
ATOM     24  C   UNL     1      10.342  -1.859   4.718  0.00  0.00    +0.046 A 
ATOM     25  C   UNL     1       9.656  -1.835   3.514  0.00  0.00    +0.052 A 
ATOM     26  C   UNL     1       8.597  -2.672   2.913  0.00  0.00    +0.254 C 
ATOM     27  O   UNL     1       8.081  -3.643   3.430  0.00  0.00    -0.270 OA
BRANCH  23  28
ATOM     28  N   UNL     1      12.036  -0.919   6.266  0.00  0.00    +0.056 N 
ATOM     29  O   UNL     1      12.874  -0.080   6.500  0.00  0.00    -0.126 OA
ATOM     30  O   UNL     1      11.797  -1.779   7.082  0.00  0.00    -0.126 OA
ENDBRANCH  23  28
ENDBRANCH  16  17
ENDBRANCH   1  16
TORSDOF 6
