REMARK  Name = ZINC23858592
REMARK  8 active torsions:
REMARK  status: ('A' for Active; 'I' for Inactive)
REMARK    1  A    between atoms: C_1  and  C_2
REMARK    2  A    between atoms: C_4  and  C_11
REMARK    3  A    between atoms: C_7  and  N_8
REMARK    4  A    between atoms: N_13  and  C_14
REMARK    5  A    between atoms: C_14  and  C_15
REMARK    6  A    between atoms: C_15  and  C_17
REMARK    7  A    between atoms: C_15  and  N_28
REMARK    8  A    between atoms: N_26  and  C_27
REMARK                            x       y       z     vdW  Elec       q    Type
REMARK                         _______ _______ _______ _____ _____    ______ ____
ROOT
ATOM      1  C   UNL     1      -7.618   2.555   0.568  0.00  0.00    -0.020 C 
ENDROOT
BRANCH   1   2
ATOM      2  C   UNL     1      -8.248   3.897   0.296  0.00  0.00    -0.059 A 
ATOM      3  C   UNL     1      -8.139   4.472  -0.957  0.00  0.00    +0.004 A 
ATOM      4  C   UNL     1      -8.719   5.698  -1.203  0.00  0.00    +0.023 A 
ATOM      5  C   UNL     1      -9.406   6.371  -0.192  0.00  0.00    +0.033 A 
ATOM      6  C   UNL     1      -9.510   5.792   1.061  0.00  0.00    -0.026 A 
ATOM      7  C   UNL     1      -8.929   4.556   1.300  0.00  0.00    +0.007 A 
ATOM      8  C   UNL     1     -10.248   6.461   2.193  0.00  0.00    +0.038 C 
ATOM      9  C   UNL     1     -10.474   7.938   1.858  0.00  0.00    +0.024 C 
ATOM     10  C   UNL     1     -11.016   8.020   0.426  0.00  0.00    +0.105 C 
ATOM     11  N   UNL     1      -9.957   7.614  -0.500  0.00  0.00    -0.333 N 
ATOM     12  C   UNL     1     -10.431   7.649  -1.890  0.00  0.00    +0.129 C 
ENDBRANCH   1   2
BRANCH   1  13
ATOM     13  N   UNL     1      -7.944   1.631  -0.527  0.00  0.00    +0.385 N 
ATOM     14  C   UNL     1      -7.435   0.265  -0.239  0.00  0.00    -0.078 C 
ATOM     15  C   UNL     1      -8.288  -0.634  -1.170  0.00  0.00    -0.020 C 
ATOM     16  C   UNL     1      -9.678   0.040  -1.122  0.00  0.00    -0.020 C 
ATOM     17  C   UNL     1      -9.407   1.491  -0.685  0.00  0.00    -0.078 C 
ATOM     18  H   UNL     1      -7.480   2.058  -1.428  0.00  0.00    -0.081 HD
ENDBRANCH   1  13
BRANCH   1  19
ATOM     19  C   UNL     1      -6.099   2.715   0.665  0.00  0.00    +0.094 C 
BRANCH  19  22
ATOM     20  C   UNL     1      -4.154   1.292   1.026  0.00  0.00    +0.244 C 
ATOM     21  O   UNL     1      -3.446   2.234   0.728  0.00  0.00    -0.270 OA
ATOM     22  N   UNL     1      -5.495   1.429   1.026  0.00  0.00    -0.313 N 
ATOM     23  H   UNL     1      -6.136   0.577   1.296  0.00  0.00    +0.149 HD
BRANCH  20  27
ATOM     24  C   UNL     1      -0.096  -1.524   1.734  0.00  0.00    +0.046 C 
ATOM     25  C   UNL     1      -1.594  -1.364   1.732  0.00  0.00    -0.020 A 
ATOM     26  C   UNL     1      -2.157  -0.151   1.392  0.00  0.00    +0.018 A 
ATOM     27  C   UNL     1      -3.545  -0.005   1.390  0.00  0.00    +0.037 A 
ATOM     28  C   UNL     1      -4.355  -1.091   1.728  0.00  0.00    +0.015 A 
ATOM     29  C   UNL     1      -3.780  -2.296   2.072  0.00  0.00    +0.034 A 
ATOM     30  C   UNL     1      -2.403  -2.434   2.071  0.00  0.00    +0.129 A 
BRANCH  30  31
ATOM     31  N   UNL     1      -1.792  -3.733   2.435  0.00  0.00    +0.057 N 
ATOM     32  O   UNL     1      -0.799  -4.124   1.849  0.00  0.00    -0.126 OA
ATOM     33  O   UNL     1      -2.284  -4.410   3.321  0.00  0.00    -0.126 OA
ENDBRANCH  30  31
ENDBRANCH  20  27
ENDBRANCH  19  22
ENDBRANCH   1  19
TORSDOF 6
