REMARK  Name = ZINC54038813
REMARK  6 active torsions:
REMARK  status: ('A' for Active; 'I' for Inactive)
REMARK    1  A    between atoms: C_3  and  C_6
REMARK    2  A    between atoms: C_6  and  C_8
REMARK    3  A    between atoms: C_6  and  N_24
REMARK    4  A    between atoms: C_8  and  N_9
REMARK    5  A    between atoms: N_12  and  N_13
REMARK    6  A    between atoms: C_14  and  C_16
REMARK                            x       y       z     vdW  Elec       q    Type
REMARK                         _______ _______ _______ _____ _____    ______ ____
ROOT
ATOM      1  N   UNL     1       5.600  -0.133   1.208  0.00  0.00    -0.299 N 
ATOM      2  C   UNL     1       6.286  -0.611   2.265  0.00  0.00    +0.316 C 
ATOM      3  O   UNL     1       5.732  -0.743   3.339  0.00  0.00    -0.251 OA
ATOM      4  N   UNL     1       7.585  -0.943   2.131  0.00  0.00    -0.218 N 
ATOM      5  H   UNL     1       6.042  -0.028   0.351  0.00  0.00    +0.150 HD
ATOM      6  H   UNL     1       8.079  -1.287   2.892  0.00  0.00    +0.174 HD
ENDROOT
BRANCH   4   7
ATOM      7  N   UNL     1       8.223  -0.791   0.893  0.00  0.00    -0.233 N 
ATOM      8  C   UNL     1       9.523  -1.123   0.759  0.00  0.00    +0.234 C 
ATOM      9  O   UNL     1      10.140  -1.553   1.711  0.00  0.00    -0.274 OA
ATOM     10  H   UNL     1       7.730  -0.447   0.132  0.00  0.00    +0.173 HD
BRANCH   8  11
ATOM     11  C   UNL     1      10.209  -0.959  -0.572  0.00  0.00    +0.099 C 
ATOM     12  C   UNL     1       9.521  -1.845  -1.623  0.00  0.00    +0.037 C 
ATOM     13  C   UNL     1      10.398  -1.934  -2.895  0.00  0.00    +0.166 C 
ATOM     14  S   UNL     1      12.097  -1.698  -2.231  0.00  0.00    -0.030 S 
ATOM     15  O   UNL     1      12.647  -0.508  -2.780  0.00  0.00    -0.174 OA
ATOM     16  O   UNL     1      12.813  -2.919  -2.350  0.00  0.00    -0.174 OA
ATOM     17  C   UNL     1      11.693  -1.409  -0.457  0.00  0.00    +0.178 C 
ENDBRANCH   8  11
ENDBRANCH   4   7
BRANCH   1  18
ATOM     18  C   UNL     1       4.188   0.227   1.353  0.00  0.00    +0.098 C 
BRANCH  18  19
ATOM     19  C   UNL     1       3.623   0.638  -0.008  0.00  0.00    +0.016 C 
BRANCH  19  20
ATOM     20  N   UNL     1       4.453   1.708  -0.580  0.00  0.00    +0.387 N 
ATOM     21  C   UNL     1       4.443   2.867   0.321  0.00  0.00    -0.078 C 
ATOM     22  C   UNL     1       5.370   3.953  -0.229  0.00  0.00    -0.019 C 
ATOM     23  C   UNL     1       4.881   4.379  -1.616  0.00  0.00    -0.004 C 
ATOM     24  C   UNL     1       4.825   3.149  -2.526  0.00  0.00    -0.019 C 
ATOM     25  C   UNL     1       3.918   2.092  -1.891  0.00  0.00    -0.078 C 
ATOM     26  H   UNL     1       5.400   1.376  -0.687  0.00  0.00    -0.081 HD
ENDBRANCH  19  20
BRANCH  19  29
ATOM     27  C   UNL     1       3.022  -2.316  -2.128  0.00  0.00    +0.041 A 
ATOM     28  C   UNL     1       2.570  -1.327  -1.225  0.00  0.00    +0.043 A 
ATOM     29  C   UNL     1       3.629  -0.551  -0.934  0.00  0.00    +0.093 A 
ATOM     30  O   UNL     1       4.693  -1.015  -1.610  0.00  0.00    -0.469 OA
ATOM     31  C   UNL     1       4.331  -2.085  -2.335  0.00  0.00    +0.195 A 
ENDBRANCH  19  29
ENDBRANCH  18  19
ENDBRANCH   1  18
TORSDOF 6
