REMARK  Name = ZINC08757716
REMARK  7 active torsions:
REMARK  status: ('A' for Active; 'I' for Inactive)
REMARK    1  A    between atoms: C_4  and  C_34
REMARK    2  A    between atoms: C_5  and  C_7
REMARK    3  A    between atoms: C_7  and  N_8
REMARK    4  A    between atoms: N_8  and  C_9
REMARK    5  A    between atoms: C_9  and  N_26
REMARK    6  A    between atoms: N_16  and  C_19
REMARK    7  A    between atoms: N_26  and  C_27
REMARK                            x       y       z     vdW  Elec       q    Type
REMARK                         _______ _______ _______ _____ _____    ______ ____
ROOT
ATOM      1  C   UNL     1      -2.759   2.607   1.450  0.00  0.00    +0.106 C 
ATOM      2  C   UNL     1      -3.485   2.808   2.631  0.00  0.00    +0.135 C 
ATOM      3  C   UNL     1      -2.941   2.447   3.894  0.00  0.00    +0.260 C 
ATOM      4  O   UNL     1      -1.830   1.956   3.971  0.00  0.00    -0.269 OA
ATOM      5  N   UNL     1      -3.672   2.662   5.006  0.00  0.00    -0.235 N 
ATOM      6  C   UNL     1      -4.901   3.199   4.931  0.00  0.00    +0.320 C 
ATOM      7  O   UNL     1      -5.532   3.373   5.955  0.00  0.00    -0.251 OA
ATOM      8  N   UNL     1      -5.455   3.549   3.758  0.00  0.00    -0.190 N 
ATOM      9  C   UNL     1      -4.790   3.373   2.598  0.00  0.00    +0.267 C 
ATOM     10  O   UNL     1      -5.298   3.693   1.540  0.00  0.00    -0.269 OA
ATOM     11  H   UNL     1      -3.307   2.422   5.872  0.00  0.00    +0.159 HD
ENDROOT
BRANCH   8  12
ATOM     12  C   UNL     1      -6.741   4.106   3.739  0.00  0.00    +0.046 A 
ATOM     13  C   UNL     1      -6.947   5.361   3.183  0.00  0.00    +0.025 A 
ATOM     14  C   UNL     1      -8.217   5.905   3.162  0.00  0.00    +0.017 A 
ATOM     15  C   UNL     1      -9.280   5.205   3.703  0.00  0.00    +0.018 A 
ATOM     16  C   UNL     1      -9.076   3.956   4.262  0.00  0.00    +0.017 A 
ATOM     17  C   UNL     1      -7.810   3.405   4.282  0.00  0.00    +0.025 A 
ATOM     18 BR   UNL     1     -11.016   5.955   3.677  0.00  0.00    -0.050 Br
ENDBRANCH   8  12
BRANCH   1  19
ATOM     19  N   UNL     1      -1.578   1.928   1.484  0.00  0.00    -0.327 N 
ATOM     20  H   UNL     1      -1.276   1.521   2.312  0.00  0.00    +0.148 HD
BRANCH  19  21
ATOM     21  C   UNL     1      -0.765   1.812   0.272  0.00  0.00    +0.138 C 
BRANCH  21  26
ATOM     22  C   UNL     1       2.878   1.235   1.078  0.00  0.00    +0.000 A 
ATOM     23  C   UNL     1       2.920  -0.142   1.197  0.00  0.00    +0.001 A 
ATOM     24  C   UNL     1       1.769  -0.886   1.018  0.00  0.00    +0.013 A 
ATOM     25  C   UNL     1       0.576  -0.253   0.720  0.00  0.00    +0.059 A 
ATOM     26  C   UNL     1       0.534   1.123   0.602  0.00  0.00    -0.019 A 
ATOM     27  C   UNL     1       1.685   1.867   0.782  0.00  0.00    +0.006 A 
BRANCH  25  28
ATOM     28  C   UNL     1      -0.679  -1.065   0.525  0.00  0.00    +0.418 C 
ATOM     29  F   UNL     1      -0.387  -2.423   0.693  0.00  0.00    -0.166 F 
ATOM     30  F   UNL     1      -1.638  -0.674   1.465  0.00  0.00    -0.166 F 
ATOM     31  F   UNL     1      -1.176  -0.851  -0.765  0.00  0.00    -0.166 F 
ENDBRANCH  25  28
ENDBRANCH  21  26
ENDBRANCH  19  21
ENDBRANCH   1  19
BRANCH   1  32
ATOM     32  N   UNL     1      -3.232   3.090   0.268  0.00  0.00    -0.301 N 
ATOM     33  H   UNL     1      -3.759   2.519  -0.314  0.00  0.00    +0.153 HD
BRANCH  32  34
ATOM     34  C   UNL     1      -2.960   4.410  -0.108  0.00  0.00    +0.051 A 
ATOM     35  C   UNL     1      -2.121   5.196   0.671  0.00  0.00    +0.025 A 
ATOM     36  C   UNL     1      -1.850   6.497   0.295  0.00  0.00    +0.002 A 
ATOM     37  C   UNL     1      -2.421   7.021  -0.851  0.00  0.00    +0.002 A 
ATOM     38  C   UNL     1      -3.261   6.244  -1.626  0.00  0.00    +0.022 A 
ATOM     39  C   UNL     1      -3.532   4.939  -1.259  0.00  0.00    +0.062 A 
ATOM     40 CL   UNL     1      -4.586   3.963  -2.233  0.00  0.00    -0.082 Cl
ENDBRANCH  32  34
ENDBRANCH   1  32
TORSDOF 7
