REMARK  Name = ZINC03113534
REMARK  8 active torsions:
REMARK  status: ('A' for Active; 'I' for Inactive)
REMARK    1  A    between atoms: C_3  and  C_8
REMARK    2  A    between atoms: N_10  and  C_11
REMARK    3  A    between atoms: C_11  and  C_12
REMARK    4  A    between atoms: N_14  and  N_15
REMARK    5  A    between atoms: C_16  and  C_17
REMARK    6  A    between atoms: C_20  and  O_23
REMARK    7  A    between atoms: O_23  and  C_24
REMARK    8  A    between atoms: C_24  and  C_26
REMARK                            x       y       z     vdW  Elec       q    Type
REMARK                         _______ _______ _______ _____ _____    ______ ____
ROOT
ATOM      1  N   UNL     1       2.903   3.858   0.049  0.00  0.00    -0.188 NA
ATOM      2  C   UNL     1       3.138   5.132  -0.029  0.00  0.00    +0.138 C 
ENDROOT
BRANCH   2   3
ATOM      3  C   UNL     1       4.526   5.627  -0.032  0.00  0.00    -0.005 A 
ATOM      4  C   UNL     1       5.591   4.727   0.055  0.00  0.00    +0.013 A 
ATOM      5  C   UNL     1       6.888   5.194   0.046  0.00  0.00    +0.047 A 
ATOM      6  C   UNL     1       7.136   6.558  -0.038  0.00  0.00    +0.132 A 
ATOM      7  C   UNL     1       6.080   7.457  -0.119  0.00  0.00    +0.047 A 
ATOM      8  C   UNL     1       4.781   6.999  -0.116  0.00  0.00    +0.013 A 
BRANCH   6   9
ATOM      9  O   UNL     1       8.416   7.014  -0.041  0.00  0.00    -0.422 OA
BRANCH   9  10
ATOM     10  C   UNL     1       8.825   7.696   1.047  0.00  0.00    +0.344 C 
ATOM     11  O   UNL     1       8.096   7.789   2.015  0.00  0.00    -0.245 OA
BRANCH  10  12
ATOM     12  C   UNL     1      10.158   8.332   1.063  0.00  0.00    +0.060 A 
ATOM     13  C   UNL     1      10.585   9.039   2.189  0.00  0.00    +0.015 A 
ATOM     14  C   UNL     1      11.831   9.630   2.197  0.00  0.00    +0.002 A 
ATOM     15  C   UNL     1      12.658   9.523   1.093  0.00  0.00    +0.015 A 
ATOM     16  C   UNL     1      12.242   8.823  -0.026  0.00  0.00    +0.019 A 
ATOM     17  C   UNL     1      10.999   8.223  -0.046  0.00  0.00    +0.030 A 
ATOM     18 BR   UNL     1      13.382   8.683  -1.529  0.00  0.00    -0.050 Br
ENDBRANCH  10  12
ENDBRANCH   9  10
ENDBRANCH   6   9
ENDBRANCH   2   3
BRANCH   1  21
ATOM     19  C   UNL     1       1.340   2.064   0.134  0.00  0.00    +0.249 C 
ATOM     20  O   UNL     1       2.264   1.281   0.204  0.00  0.00    -0.272 OA
ATOM     21  N   UNL     1       1.583   3.388   0.052  0.00  0.00    -0.206 N 
ATOM     22  H   UNL     1       0.845   4.014  -0.004  0.00  0.00    +0.177 HD
BRANCH  19  23
ATOM     23  C   UNL     1      -0.079   1.558   0.137  0.00  0.00    +0.202 C 
BRANCH  23  26
ATOM     24  C   UNL     1      -1.242  -0.580   0.252  0.00  0.00    +0.245 C 
ATOM     25  O   UNL     1      -2.296   0.023   0.190  0.00  0.00    -0.270 OA
ATOM     26  N   UNL     1      -0.076   0.096   0.232  0.00  0.00    -0.303 N 
ATOM     27  H   UNL     1       0.764  -0.385   0.281  0.00  0.00    +0.150 HD
BRANCH  24  30
ATOM     28  C   UNL     1      -0.033  -4.128   0.507  0.00  0.00    +0.004 A 
ATOM     29  C   UNL     1      -0.030  -2.751   0.413  0.00  0.00    +0.013 A 
ATOM     30  C   UNL     1      -1.239  -2.055   0.348  0.00  0.00    +0.039 A 
ATOM     31  C   UNL     1      -2.444  -2.759   0.369  0.00  0.00    +0.051 A 
ATOM     32  C   UNL     1      -2.434  -4.138   0.458  0.00  0.00    +0.124 A 
ATOM     33  C   UNL     1      -1.230  -4.821   0.528  0.00  0.00    +0.038 A 
ATOM     34  F   UNL     1      -3.599  -4.821   0.478  0.00  0.00    -0.205 F 
ENDBRANCH  24  30
ENDBRANCH  23  26
ENDBRANCH  19  23
ENDBRANCH   1  21
TORSDOF 8
