REMARK  Name = ZINC01103298
REMARK  4 active torsions:
REMARK  status: ('A' for Active; 'I' for Inactive)
REMARK    1  A    between atoms: C_4  and  N_20
REMARK    2  A    between atoms: C_5  and  C_7
REMARK    3  A    between atoms: N_9  and  N_10
REMARK    4  A    between atoms: C_11  and  C_13
REMARK                            x       y       z     vdW  Elec       q    Type
REMARK                         _______ _______ _______ _____ _____    ______ ____
ROOT
ATOM      1  C   UNL     1      -2.388   0.159   0.131  0.00  0.00    +0.262 C 
ATOM      2  O   UNL     1      -2.339   1.369   0.022  0.00  0.00    -0.269 OA
ATOM      3  N   UNL     1      -3.575  -0.453   0.317  0.00  0.00    -0.230 N 
ATOM      4  H   UNL     1      -3.615  -1.418   0.405  0.00  0.00    +0.173 HD
ENDROOT
BRANCH   1   9
ATOM      5  C   UNL     1       0.345  -2.256   1.026  0.00  0.00    +0.001 A 
ATOM      6  C   UNL     1       1.178  -2.139  -0.072  0.00  0.00    +0.002 A 
ATOM      7  C   UNL     1       0.852  -1.281  -1.107  0.00  0.00    +0.033 A 
ATOM      8  C   UNL     1      -0.303  -0.528  -1.045  0.00  0.00    +0.138 A 
ATOM      9  C   UNL     1      -1.147  -0.641   0.060  0.00  0.00    +0.068 A 
ATOM     10  C   UNL     1      -0.815  -1.513   1.099  0.00  0.00    +0.015 A 
BRANCH   8  11
ATOM     11  N   UNL     1      -0.647   0.394  -2.151  0.00  0.00    +0.057 N 
ATOM     12  O   UNL     1       0.143   0.578  -3.059  0.00  0.00    -0.126 OA
ATOM     13  O   UNL     1      -1.724   0.964  -2.155  0.00  0.00    -0.126 OA
ENDBRANCH   8  11
ENDBRANCH   1   9
BRANCH   3  14
ATOM     14  N   UNL     1      -4.751   0.306   0.384  0.00  0.00    -0.230 N 
ATOM     15  C   UNL     1      -5.938  -0.306   0.570  0.00  0.00    +0.261 C 
ATOM     16  O   UNL     1      -5.987  -1.516   0.680  0.00  0.00    -0.269 OA
ATOM     17  H   UNL     1      -4.711   1.271   0.297  0.00  0.00    +0.173 HD
BRANCH  15  18
ATOM     18  C   UNL     1      -7.178   0.494   0.641  0.00  0.00    +0.052 A 
ATOM     19  C   UNL     1      -7.124   1.884   0.522  0.00  0.00    +0.014 A 
ATOM     20  C   UNL     1      -8.286   2.624   0.585  0.00  0.00    +0.001 A 
ATOM     21  C   UNL     1      -9.503   1.993   0.776  0.00  0.00    +0.001 A 
ATOM     22  C   UNL     1      -9.565   0.617   0.900  0.00  0.00    +0.016 A 
ATOM     23  C   UNL     1      -8.409  -0.137   0.834  0.00  0.00    +0.030 A 
ATOM     24 BR   UNL     1      -8.495  -2.018   1.005  0.00  0.00    -0.050 Br
ENDBRANCH  15  18
ENDBRANCH   3  14
TORSDOF 4
