REMARK  Name = ZINC23822884
REMARK  13 active torsions:
REMARK  status: ('A' for Active; 'I' for Inactive)
REMARK    1  A    between atoms: C_1  and  C_2
REMARK    2  A    between atoms: C_2  and  O_3
REMARK    3  A    between atoms: O_3  and  C_4
REMARK    4  A    between atoms: C_4  and  C_6
REMARK    5  A    between atoms: C_7  and  C_32
REMARK    6  A    between atoms: C_13  and  C_17
REMARK    7  A    between atoms: C_17  and  C_19
REMARK    8  A    between atoms: C_17  and  N_20
REMARK    9  A    between atoms: N_20  and  C_21
REMARK   10  A    between atoms: N_20  and  C_22
REMARK   11  A    between atoms: C_22  and  C_23
REMARK   12  A    between atoms: C_23  and  O_24
REMARK   13  A    between atoms: O_24  and  C_25
REMARK                            x       y       z     vdW  Elec       q    Type
REMARK                         _______ _______ _______ _____ _____    ______ ____
ROOT
ATOM      1  C   UNL     1       1.449  -2.344  -2.516  0.00  0.00    +0.102 A 
ATOM      2  C   UNL     1       1.649  -3.651  -2.857  0.00  0.00    -0.015 A 
ATOM      3  C   UNL     1       2.321  -3.966  -4.039  0.00  0.00    +0.076 A 
ATOM      4  C   UNL     1       2.648  -5.295  -4.604  0.00  0.00    +0.260 A 
ATOM      5  O   UNL     1       2.325  -6.317  -4.025  0.00  0.00    -0.267 OA
ATOM      6  N   UNL     1       3.313  -5.345  -5.775  0.00  0.00    -0.309 N 
ATOM      7  H   UNL     1       3.536  -6.207  -6.159  0.00  0.00    +0.170 HD
ATOM      8  C   UNL     1       3.678  -4.214  -6.428  0.00  0.00    +0.128 A 
ATOM      9  N   UNL     1       3.405  -3.027  -5.958  0.00  0.00    -0.225 NA
ATOM     10  C   UNL     1       2.755  -2.865  -4.813  0.00  0.00    +0.116 A 
ATOM     11  S   UNL     1       2.205  -1.464  -3.872  0.00  0.00    -0.062 S 
ATOM     12  C   UNL     1       1.145  -4.751  -1.958  0.00  0.00    +0.046 C 
ENDROOT
BRANCH   1  13
ATOM     13  C   UNL     1       0.776  -1.800  -1.335  0.00  0.00    +0.346 C 
ATOM     14  O   UNL     1       0.312  -2.552  -0.499  0.00  0.00    -0.244 OA
BRANCH  13  15
ATOM     15  O   UNL     1       0.671  -0.465  -1.174  0.00  0.00    -0.461 OA
BRANCH  15  17
ATOM     16  C   UNL     1      -0.019   1.526   0.010  0.00  0.00    +0.048 C 
ATOM     17  C   UNL     1       0.002  -0.004   0.002  0.00  0.00    +0.229 C 
ENDBRANCH  15  17
ENDBRANCH  13  15
ENDBRANCH   1  13
BRANCH   8  18
ATOM     18  C   UNL     1       4.420  -4.331  -7.734  0.00  0.00    +0.120 C 
ATOM     19  C   UNL     1       3.616  -5.201  -8.702  0.00  0.00    +0.032 C 
BRANCH  18  20
ATOM     20  N   UNL     1       4.603  -2.994  -8.314  0.00  0.00    -0.293 NA
ATOM     21  C   UNL     1       3.308  -2.357  -8.588  0.00  0.00    +0.105 C 
BRANCH  20  22
ATOM     22  C   UNL     1       5.427  -3.055  -9.530  0.00  0.00    +0.125 C 
BRANCH  22  23
ATOM     23  C   UNL     1       5.803  -1.637  -9.963  0.00  0.00    +0.244 C 
BRANCH  23  24
ATOM     24  O   UNL     1       6.640  -1.042  -8.970  0.00  0.00    -0.491 OA
BRANCH  24  25
ATOM     25  C   UNL     1       7.066   0.228  -9.202  0.00  0.00    +0.121 A 
ATOM     26  C   UNL     1       6.683   0.888 -10.360  0.00  0.00    +0.047 A 
ATOM     27  C   UNL     1       7.117   2.178 -10.595  0.00  0.00    +0.023 A 
ATOM     28  C   UNL     1       7.936   2.811  -9.676  0.00  0.00    +0.041 A 
ATOM     29  C   UNL     1       8.320   2.154  -8.521  0.00  0.00    +0.023 A 
ATOM     30  C   UNL     1       7.882   0.866  -8.279  0.00  0.00    +0.047 A 
ATOM     31 CL   UNL     1       8.481   4.432  -9.974  0.00  0.00    -0.084 Cl
ENDBRANCH  24  25
ENDBRANCH  23  24
ENDBRANCH  22  23
ENDBRANCH  20  22
ENDBRANCH  18  20
ENDBRANCH   8  18
TORSDOF 9
