REMARK  Name = ZINC63818484
REMARK  10 active torsions:
REMARK  status: ('A' for Active; 'I' for Inactive)
REMARK    1  A    between atoms: C_1  and  C_2
REMARK    2  A    between atoms: C_8  and  O_31
REMARK    3  A    between atoms: N_13  and  C_14
REMARK    4  A    between atoms: C_18  and  C_20
REMARK    5  A    between atoms: N_22  and  C_23
REMARK    6  A    between atoms: C_23  and  C_24
REMARK    7  A    between atoms: C_24  and  C_25
REMARK    8  A    between atoms: O_31  and  C_32
REMARK    9  A    between atoms: C_32  and  C_33
REMARK   10  A    between atoms: C_33  and  C_35
REMARK                            x       y       z     vdW  Elec       q    Type
REMARK                         _______ _______ _______ _____ _____    ______ ____
ROOT
ATOM      1  C   UNL     1       2.096  -0.708   1.109  0.00  0.00    +0.039 A 
ATOM      2  C   UNL     1       2.596  -1.698   0.271  0.00  0.00    +0.023 A 
ATOM      3  C   UNL     1       3.957  -1.921   0.194  0.00  0.00    +0.003 A 
ATOM      4  C   UNL     1       4.830  -1.163   0.947  0.00  0.00    +0.013 A 
ATOM      5  C   UNL     1       4.338  -0.165   1.791  0.00  0.00    +0.038 A 
ATOM      6  C   UNL     1       2.965   0.064   1.865  0.00  0.00    +0.036 A 
ENDROOT
BRANCH   1  18
ATOM      7  C   UNL     1       0.075   1.840   0.806  0.00  0.00    +0.050 C 
ATOM      8  C   UNL     1       0.083   0.423   0.229  0.00  0.00    +0.163 C 
ATOM      9  N   UNL     1      -1.297  -0.002  -0.035  0.00  0.00    -0.325 N 
ATOM     10  C   UNL     1      -2.093  -0.380   1.044  0.00  0.00    +0.041 A 
ATOM     11  C   UNL     1      -3.467  -0.215   1.032  0.00  0.00    +0.027 A 
ATOM     12  C   UNL     1      -4.213  -0.603   2.129  0.00  0.00    +0.047 A 
ATOM     13  C   UNL     1      -3.594  -1.158   3.243  0.00  0.00    +0.122 A 
ATOM     14  C   UNL     1      -2.221  -1.330   3.268  0.00  0.00    +0.060 A 
ATOM     15  C   UNL     1      -1.461  -0.944   2.166  0.00  0.00    +0.062 A 
ATOM     16  C   UNL     1       0.003  -1.113   2.136  0.00  0.00    +0.254 C 
ATOM     17  O   UNL     1       0.558  -1.812   2.962  0.00  0.00    -0.270 OA
ATOM     18  N   UNL     1       0.717  -0.485   1.184  0.00  0.00    -0.249 N 
ATOM     19  H   UNL     1      -1.647  -0.019  -0.939  0.00  0.00    +0.148 HD
BRANCH  13  20
ATOM     20  O   UNL     1      -4.342  -1.532   4.315  0.00  0.00    -0.488 OA
BRANCH  20  21
ATOM     21  C   UNL     1      -5.753  -1.327   4.226  0.00  0.00    +0.259 C 
BRANCH  21  22
ATOM     22  C   UNL     1      -6.411  -1.798   5.497  0.00  0.00    -0.043 C 
ATOM     23  C   UNL     1      -5.684  -2.301   6.463  0.00  0.00    +0.011 C 
ATOM     24  C   UNL     1      -7.906  -1.690   5.656  0.00  0.00    +0.042 C 
ENDBRANCH  21  22
ENDBRANCH  20  21
ENDBRANCH  13  20
ENDBRANCH   1  18
BRANCH   5  25
ATOM     25  C   UNL     1       5.271   0.649   2.599  0.00  0.00    +0.244 C 
ATOM     26  O   UNL     1       4.841   1.517   3.333  0.00  0.00    -0.270 OA
ATOM     27  N   UNL     1       6.599   0.429   2.521  0.00  0.00    -0.311 N 
ATOM     28  H   UNL     1       6.942  -0.263   1.935  0.00  0.00    +0.149 HD
BRANCH  27  29
ATOM     29  C   UNL     1       7.523   1.236   3.322  0.00  0.00    +0.110 C 
BRANCH  29  30
ATOM     30  C   UNL     1       8.960   0.786   3.049  0.00  0.00    +0.073 C 
BRANCH  30  31
ATOM     31  C   UNL     1       9.910   1.617   3.873  0.00  0.00    +0.035 A 
ATOM     32  H   UNL     1      11.572   2.472   6.371  0.00  0.00    +0.166 HD
ATOM     33  C   UNL     1      10.264   1.380   5.151  0.00  0.00    +0.105 A 
ATOM     34  N   UNL     1      11.140   2.369   5.508  0.00  0.00    -0.352 N 
ATOM     35  C   UNL     1      11.292   3.176   4.436  0.00  0.00    +0.171 A 
ATOM     36  N   UNL     1      10.557   2.717   3.460  0.00  0.00    -0.350 N 
ATOM     37  H   UNL     1      10.488   3.110   2.576  0.00  0.00    +0.166 HD
ENDBRANCH  30  31
ENDBRANCH  29  30
ENDBRANCH  27  29
ENDBRANCH   5  25
TORSDOF 8
