REMARK  Name = ZINC29335324
REMARK  4 active torsions:
REMARK  status: ('A' for Active; 'I' for Inactive)
REMARK    1  A    between atoms: C_6  and  C_7
REMARK    2  A    between atoms: C_13  and  C_15
REMARK    3  A    between atoms: C_15  and  S_16
REMARK    4  A    between atoms: S_16  and  C_17
REMARK                            x       y       z     vdW  Elec       q    Type
REMARK                         _______ _______ _______ _____ _____    ______ ____
ROOT
ATOM      1  C   UNL     1       1.225  -2.187  -0.023  0.00  0.00    +0.106 C 
ATOM      2  C   UNL     1       1.518  -2.716   1.397  0.00  0.00    +0.029 C 
ATOM      3  C   UNL     1       2.437  -3.937   1.131  0.00  0.00    +0.021 C 
ATOM      4  C   UNL     1       3.257  -3.448  -0.089  0.00  0.00    +0.108 C 
ATOM      5  N   UNL     1       2.302  -2.671  -0.899  0.00  0.00    -0.294 N 
ATOM      6  C   UNL     1       2.399  -2.441  -2.224  0.00  0.00    +0.226 C 
ATOM      7  O   UNL     1       1.551  -1.785  -2.789  0.00  0.00    -0.275 OA
ENDROOT
BRANCH   1  13
ATOM      8  C   UNL     1       2.397   0.023  -0.025  0.00  0.00    +0.009 A 
ATOM      9  C   UNL     1       2.386   1.406  -0.016  0.00  0.00    +0.050 A 
ATOM     10  C   UNL     1       1.180   2.090   0.002  0.00  0.00    +0.162 A 
ATOM     11  C   UNL     1      -0.017   1.382   0.010  0.00  0.00    +0.162 A 
ATOM     12  C   UNL     1       0.002  -0.004   0.002  0.00  0.00    +0.055 A 
ATOM     13  C   UNL     1       1.208  -0.680  -0.015  0.00  0.00    -0.023 A 
ATOM     14  O   UNL     1      -1.211   2.034   0.019  0.00  0.00    -0.485 OA
ATOM     15  C   UNL     1      -1.188   3.413   0.408  0.00  0.00    +0.270 C 
ATOM     16  C   UNL     1      -0.040   4.103  -0.340  0.00  0.00    +0.270 C 
ATOM     17  O   UNL     1       1.184   3.451   0.018  0.00  0.00    -0.485 OA
ENDBRANCH   1  13
BRANCH   6  18
ATOM     18  C   UNL     1       3.563  -3.000  -3.002  0.00  0.00    +0.173 C 
BRANCH  18  19
ATOM     19  S   UNL     1       3.410  -2.523  -4.741  0.00  0.00    -0.084 S 
BRANCH  19  20
ATOM     20  C   UNL     1       4.857  -3.287  -5.395  0.00  0.00    +0.123 C 
ATOM     21  N   UNL     1       5.652  -3.958  -4.609  0.00  0.00    -0.382 N 
ATOM     22  N   UNL     1       5.147  -3.176  -6.736  0.00  0.00    -0.340 N 
ATOM     23  H   UNL     1       6.556  -4.435  -5.018  0.00  0.00    +0.158 HD
ATOM     24  H   UNL     1       6.050  -3.652  -7.144  0.00  0.00    +0.144 HD
ATOM     25  H   UNL     1       4.476  -2.610  -7.398  0.00  0.00    +0.144 HD
ATOM     26  H   UNL     1       5.420  -4.048  -3.538  0.00  0.00    +0.158 HD
ENDBRANCH  19  20
ENDBRANCH  18  19
ENDBRANCH   6  18
TORSDOF 4
