REMARK  Name = ZINC35374694
REMARK  10 active torsions:
REMARK  status: ('A' for Active; 'I' for Inactive)
REMARK    1  A    between atoms: C_1  and  C_2
REMARK    2  A    between atoms: C_2  and  C_3
REMARK    3  A    between atoms: C_3  and  C_5
REMARK    4  A    between atoms: C_3  and  C_6
REMARK    5  A    between atoms: C_6  and  N_7
REMARK    6  A    between atoms: C_8  and  C_10
REMARK    7  A    between atoms: C_21  and  C_23
REMARK    8  A    between atoms: C_23  and  C_25
REMARK    9  A    between atoms: C_23  and  C_27
REMARK   10  A    between atoms: C_25  and  C_26
REMARK                            x       y       z     vdW  Elec       q    Type
REMARK                         _______ _______ _______ _____ _____    ______ ____
ROOT
ATOM      1  C   UNL     1      -6.096  -4.460  -0.584  0.00  0.00    +0.028 C 
ATOM      2  C   UNL     1      -7.096  -4.101  -1.724  0.00  0.00    +0.061 C 
ATOM      3  S   UNL     1      -8.058  -5.681  -1.751  0.00  0.00    -0.174 S 
ATOM      4  C   UNL     1      -6.690  -6.790  -1.224  0.00  0.00    -0.016 C 
ATOM      5  N   UNL     1      -5.686  -5.865  -0.677  0.00  0.00    +0.397 N 
ATOM      6  C   UNL     1      -6.146  -7.538  -2.433  0.00  0.00    +0.017 C 
ATOM      7  C   UNL     1      -4.993  -8.448  -1.994  0.00  0.00    +0.107 C 
ATOM      8  N   UNL     1      -5.458  -9.299  -0.890  0.00  0.00    -0.301 N 
ATOM      9  C   UNL     1      -6.048  -8.662   0.295  0.00  0.00    +0.107 C 
ATOM     10  C   UNL     1      -7.195  -7.750  -0.156  0.00  0.00    +0.017 C 
ATOM     11  C   UNL     1      -5.346 -10.640  -0.964  0.00  0.00    +0.223 C 
ATOM     12  O   UNL     1      -5.647 -11.326  -0.010  0.00  0.00    -0.275 OA
ATOM     13  H   UNL     1      -4.861  -5.915  -1.257  0.00  0.00    -0.083 HD
ATOM     14  H   UNL     1      -5.437  -6.183   0.248  0.00  0.00    -0.083 HD
ENDROOT
BRANCH   1  16
ATOM     15  N   UNL     1      -5.006  -2.240  -0.612  0.00  0.00    -0.316 N 
ATOM     16  C   UNL     1      -4.879  -3.579  -0.697  0.00  0.00    +0.200 C 
ATOM     17  O   UNL     1      -3.785  -4.075  -0.864  0.00  0.00    -0.278 OA
ATOM     18  H   UNL     1      -5.881  -1.843  -0.478  0.00  0.00    +0.149 HD
BRANCH  15  19
ATOM     19  C   UNL     1      -3.823  -1.383  -0.721  0.00  0.00    +0.107 C 
BRANCH  19  20
ATOM     20  C   UNL     1      -4.241   0.083  -0.592  0.00  0.00    +0.003 C 
ATOM     21  C   UNL     1      -4.794   0.334   0.813  0.00  0.00    +0.009 C 
BRANCH  20  23
ATOM     22  C   UNL     1      -3.467   2.447  -0.824  0.00  0.00    +0.004 C 
ATOM     23  C   UNL     1      -3.026   0.982  -0.830  0.00  0.00    +0.001 C 
ENDBRANCH  20  23
ENDBRANCH  19  20
ENDBRANCH  15  19
ENDBRANCH   1  16
BRANCH  11  24
ATOM     24  C   UNL     1      -4.847 -11.286  -2.230  0.00  0.00    +0.105 C 
BRANCH  24  25
ATOM     25  C   UNL     1      -5.356 -12.702  -2.306  0.00  0.00    -0.036 A 
ATOM     26  C   UNL     1      -5.032 -13.608  -1.313  0.00  0.00    +0.004 A 
ATOM     27  C   UNL     1      -5.500 -14.907  -1.383  0.00  0.00    +0.000 A 
ATOM     28  C   UNL     1      -6.292 -15.300  -2.445  0.00  0.00    +0.000 A 
ATOM     29  C   UNL     1      -6.617 -14.394  -3.438  0.00  0.00    +0.000 A 
ATOM     30  C   UNL     1      -6.153 -13.094  -3.366  0.00  0.00    +0.004 A 
ENDBRANCH  24  25
BRANCH  24  31
ATOM     31  C   UNL     1      -3.317 -11.294  -2.230  0.00  0.00    +0.014 C 
ATOM     32  C   UNL     1      -2.809 -11.836  -3.568  0.00  0.00    +0.005 C 
ENDBRANCH  24  31
ENDBRANCH  11  24
TORSDOF 7
