REMARK  Name = ZINC34981888
REMARK  7 active torsions:
REMARK  status: ('A' for Active; 'I' for Inactive)
REMARK    1  A    between atoms: C_1  and  C_2
REMARK    2  A    between atoms: C_2  and  C_3
REMARK    3  A    between atoms: C_2  and  O_4
REMARK    4  A    between atoms: O_4  and  C_5
REMARK    5  A    between atoms: C_8  and  C_11
REMARK    6  A    between atoms: C_21  and  C_22
REMARK    7  A    between atoms: C_31  and  C_33
REMARK                            x       y       z     vdW  Elec       q    Type
REMARK                         _______ _______ _______ _____ _____    ______ ____
ROOT
ATOM      1  C   UNL     1      -2.431  -5.719  -2.240  0.00  0.00    +0.158 A 
ATOM      2  C   UNL     1      -1.371  -6.400  -3.006  0.00  0.00    +0.300 A 
ATOM      3  O   UNL     1      -0.198  -6.090  -2.866  0.00  0.00    -0.263 OA
ATOM      4  N   UNL     1      -1.729  -7.367  -3.859  0.00  0.00    -0.181 NA
ATOM      5  C   UNL     1      -2.987  -7.697  -4.005  0.00  0.00    +0.201 A 
ATOM      6  N   UNL     1      -4.019  -7.103  -3.324  0.00  0.00    -0.170 N 
ATOM      7  N   UNL     1      -3.675  -6.074  -2.406  0.00  0.00    -0.156 NA
ATOM      8  C   UNL     1      -5.265  -7.536  -3.570  0.00  0.00    +0.287 A 
ATOM      9  O   UNL     1      -6.214  -7.039  -2.989  0.00  0.00    -0.265 OA
ATOM     10  C   UNL     1      -5.470  -8.578  -4.512  0.00  0.00    +0.082 A 
ATOM     11  C   UNL     1      -6.644  -9.173  -4.917  0.00  0.00    +0.028 C 
ATOM     12  S   UNL     1      -3.793  -8.910  -5.030  0.00  0.00    -0.044 S 
ENDROOT
BRANCH  11  13
ATOM     13  C   UNL     1      -7.879  -8.650  -4.494  0.00  0.00    -0.001 C 
ATOM     14  C   UNL     1      -8.203  -7.358  -4.771  0.00  0.00    +0.019 C 
ATOM     15  C   UNL     1      -9.478  -6.840  -4.259  0.00  0.00    +0.017 A 
ATOM     16  C   UNL     1     -10.006  -5.630  -4.713  0.00  0.00    +0.011 A 
ATOM     17  C   UNL     1     -11.219  -5.191  -4.222  0.00  0.00    +0.001 A 
ATOM     18  C   UNL     1     -11.910  -5.945  -3.288  0.00  0.00    +0.004 A 
ATOM     19  C   UNL     1     -11.392  -7.140  -2.824  0.00  0.00    +0.046 A 
ATOM     20  C   UNL     1     -10.173  -7.592  -3.295  0.00  0.00    +0.129 A 
ATOM     21  O   UNL     1      -9.620  -8.738  -2.825  0.00  0.00    -0.479 OA
ATOM     22  C   UNL     1      -8.849  -9.522  -3.739  0.00  0.00    +0.234 C 
BRANCH  22  23
ATOM     23  C   UNL     1      -9.770 -10.203  -4.718  0.00  0.00    -0.003 A 
ATOM     24  C   UNL     1     -10.807  -9.496  -5.298  0.00  0.00    +0.007 A 
ATOM     25  C   UNL     1     -11.652 -10.121  -6.196  0.00  0.00    +0.000 A 
ATOM     26  C   UNL     1     -11.460 -11.452  -6.514  0.00  0.00    +0.000 A 
ATOM     27  C   UNL     1     -10.422 -12.159  -5.936  0.00  0.00    +0.000 A 
ATOM     28  C   UNL     1      -9.575 -11.533  -5.041  0.00  0.00    +0.007 A 
ENDBRANCH  22  23
ENDBRANCH  11  13
BRANCH   1  32
ATOM     29  C   UNL     1      -1.436  -2.628   0.504  0.00  0.00    +0.121 A 
ATOM     30  C   UNL     1      -2.576  -3.394   0.708  0.00  0.00    +0.046 A 
ATOM     31  C   UNL     1      -2.901  -4.397  -0.180  0.00  0.00    +0.014 A 
ATOM     32  C   UNL     1      -2.084  -4.642  -1.284  0.00  0.00    +0.008 A 
ATOM     33  C   UNL     1      -0.940  -3.870  -1.485  0.00  0.00    +0.014 A 
ATOM     34  C   UNL     1      -0.623  -2.865  -0.597  0.00  0.00    +0.046 A 
BRANCH  29  35
ATOM     35  O   UNL     1      -1.118  -1.640   1.381  0.00  0.00    -0.489 OA
BRANCH  35  37
ATOM     36  C   UNL     1      -0.112   0.531   1.725  0.00  0.00    +0.051 C 
ATOM     37  C   UNL     1       0.032  -0.848   1.078  0.00  0.00    +0.167 C 
ATOM     38  C   UNL     1       1.284  -1.538   1.623  0.00  0.00    +0.051 C 
ENDBRANCH  35  37
ENDBRANCH  29  35
ENDBRANCH   1  32
TORSDOF 5
