REMARK  Name = ZINC65132270
REMARK  8 active torsions:
REMARK  status: ('A' for Active; 'I' for Inactive)
REMARK    1  A    between atoms: C_1  and  C_2
REMARK    2  A    between atoms: C_2  and  C_3
REMARK    3  A    between atoms: C_3  and  N_4
REMARK    4  A    between atoms: C_5  and  C_7
REMARK    5  A    between atoms: C_17  and  S_20
REMARK    6  A    between atoms: S_20  and  C_21
REMARK    7  A    between atoms: C_21  and  C_22
REMARK    8  A    between atoms: N_24  and  C_25
REMARK                            x       y       z     vdW  Elec       q    Type
REMARK                         _______ _______ _______ _____ _____    ______ ____
ROOT
ATOM      1  C   UNL     1       1.442  -4.115  -2.255  0.00  0.00    +0.092 C 
ATOM      2  C   UNL     1       2.175  -4.606  -3.505  0.00  0.00    +0.016 C 
ATOM      3  C   UNL     1       2.173  -6.136  -3.532  0.00  0.00    +0.020 C 
ATOM      4  C   UNL     1       2.912  -6.665  -2.299  0.00  0.00    +0.106 C 
ATOM      5  N   UNL     1       2.302  -6.082  -1.096  0.00  0.00    -0.313 N 
ATOM      6  C   UNL     1       2.171  -4.621  -1.007  0.00  0.00    +0.119 C 
ATOM      7  C   UNL     1       1.856  -6.899  -0.059  0.00  0.00    +0.144 A 
ATOM      8  C   UNL     1       1.989  -8.285  -0.153  0.00  0.00    +0.048 A 
ATOM      9  C   UNL     1       1.532  -9.055   0.902  0.00  0.00    +0.040 A 
ATOM     10  C   UNL     1       0.966  -8.396   1.995  0.00  0.00    +0.120 A 
ATOM     11  N   UNL     1       0.882  -7.075   1.997  0.00  0.00    -0.141 NA
ATOM     12  N   UNL     1       1.311  -6.362   1.020  0.00  0.00    -0.133 NA
ENDROOT
BRANCH   1  14
ATOM     13  N   UNL     1       0.819  -1.950  -1.233  0.00  0.00    -0.315 N 
ATOM     14  C   UNL     1       1.416  -2.608  -2.246  0.00  0.00    +0.218 C 
ATOM     15  O   UNL     1       1.933  -1.988  -3.151  0.00  0.00    -0.275 OA
ATOM     16  H   UNL     1       0.406  -2.447  -0.509  0.00  0.00    +0.149 HD
BRANCH  13  17
ATOM     17  C   UNL     1       0.794  -0.485  -1.224  0.00  0.00    +0.104 C 
BRANCH  17  19
ATOM     18  C   UNL     1       0.036   1.535   0.036  0.00  0.00    +0.005 C 
ATOM     19  C   UNL     1       0.062   0.005   0.027  0.00  0.00    +0.015 C 
ENDBRANCH  17  19
ENDBRANCH  13  17
ENDBRANCH   1  14
BRANCH  10  20
ATOM     20  S   UNL     1       0.365  -9.321   3.369  0.00  0.00    -0.095 S 
BRANCH  20  21
ATOM     21  C   UNL     1      -0.261  -8.057   4.510  0.00  0.00    +0.172 C 
BRANCH  21  22
ATOM     22  C   UNL     1      -0.811  -8.722   5.745  0.00  0.00    +0.227 C 
ATOM     23  O   UNL     1      -0.784  -9.931   5.845  0.00  0.00    -0.275 OA
ATOM     24  N   UNL     1      -1.334  -7.975   6.737  0.00  0.00    -0.284 N 
ATOM     25  H   UNL     1      -1.431  -7.017   6.622  0.00  0.00    +0.155 HD
BRANCH  24  26
ATOM     26  C   UNL     1      -1.737  -8.582   7.932  0.00  0.00    +0.047 A 
ATOM     27  C   UNL     1      -1.041  -9.677   8.426  0.00  0.00    +0.024 A 
ATOM     28  C   UNL     1      -1.440 -10.273   9.606  0.00  0.00    +0.002 A 
ATOM     29  C   UNL     1      -2.533  -9.781  10.296  0.00  0.00    +0.001 A 
ATOM     30  C   UNL     1      -3.229  -8.691   9.807  0.00  0.00    +0.017 A 
ATOM     31  C   UNL     1      -2.831  -8.085   8.630  0.00  0.00    +0.039 A 
ATOM     32 BR   UNL     1      -3.779  -6.590   7.967  0.00  0.00    -0.048 Br
ENDBRANCH  24  26
ENDBRANCH  21  22
ENDBRANCH  20  21
ENDBRANCH  10  20
TORSDOF 7
