REMARK  Name = ZINC49705676
REMARK  8 active torsions:
REMARK  status: ('A' for Active; 'I' for Inactive)
REMARK    1  A    between atoms: C_1  and  C_2
REMARK    2  A    between atoms: C_2  and  C_3
REMARK    3  A    between atoms: C_6  and  S_8
REMARK    4  A    between atoms: S_8  and  N_11
REMARK    5  A    between atoms: N_11  and  C_12
REMARK    6  A    between atoms: C_12  and  C_13
REMARK    7  A    between atoms: C_13  and  N_14
REMARK    8  A    between atoms: N_21  and  C_24
REMARK                            x       y       z     vdW  Elec       q    Type
REMARK                         _______ _______ _______ _____ _____    ______ ____
ROOT
ATOM      1  C   UNL     1       4.254  -4.122   2.698  0.00  0.00    +0.127 C 
ENDROOT
BRANCH   1   2
ATOM      2  N   UNL     1       3.866  -3.554   3.992  0.00  0.00    -0.188 NA
ATOM      3  H   UNL     1       3.683  -4.140   4.743  0.00  0.00    +0.148 HD
BRANCH   2   4
ATOM      4  S   UNL     1       3.741  -1.913   4.171  0.00  0.00    +0.065 S 
ATOM      5  O   UNL     1       4.931  -1.353   3.634  0.00  0.00    -0.153 OA
ATOM      6  O   UNL     1       3.327  -1.681   5.511  0.00  0.00    -0.153 OA
BRANCH   4  10
ATOM      7  C   UNL     1       0.731  -0.503   1.223  0.00  0.00    -0.009 A 
ATOM      8  C   UNL     1       0.236  -0.806   2.448  0.00  0.00    +0.013 A 
ATOM      9  C   UNL     1       1.102  -1.254   3.429  0.00  0.00    +0.036 A 
ATOM     10  C   UNL     1       2.420  -1.375   3.136  0.00  0.00    +0.143 A 
ATOM     11  S   UNL     1       2.469  -0.856   1.429  0.00  0.00    -0.074 S 
BRANCH   7  13
ATOM     12  C   UNL     1      -0.019   1.526   0.010  0.00  0.00    +0.009 C 
ATOM     13  C   UNL     1       0.002  -0.004   0.002  0.00  0.00    +0.039 C 
ENDBRANCH   7  13
ENDBRANCH   4  10
ENDBRANCH   2   4
ENDBRANCH   1   2
BRANCH   1  14
ATOM     14  C   UNL     1       4.657  -5.586   2.884  0.00  0.00    +0.144 C 
BRANCH  14  15
ATOM     15  N   UNL     1       5.045  -6.154   1.591  0.00  0.00    -0.291 N 
ATOM     16  C   UNL     1       4.191  -6.783   0.688  0.00  0.00    +0.070 A 
ATOM     17  C   UNL     1       2.832  -7.059   0.697  0.00  0.00    +0.028 A 
ATOM     18  C   UNL     1       2.256  -7.714  -0.374  0.00  0.00    +0.002 A 
ATOM     19  C   UNL     1       3.030  -8.097  -1.456  0.00  0.00    +0.002 A 
ATOM     20  C   UNL     1       4.385  -7.827  -1.474  0.00  0.00    +0.028 A 
ATOM     21  C   UNL     1       4.972  -7.169  -0.404  0.00  0.00    +0.070 A 
ATOM     22  N   UNL     1       6.276  -6.763  -0.130  0.00  0.00    -0.295 N 
ATOM     23  C   UNL     1       6.287  -6.153   1.070  0.00  0.00    +0.330 A 
ATOM     24  O   UNL     1       7.270  -5.675   1.604  0.00  0.00    -0.246 OA
ATOM     25  C   UNL     1       7.436  -6.960  -1.002  0.00  0.00    +0.154 C 
ENDBRANCH  14  15
ENDBRANCH   1  14
TORSDOF 6
