REMARK  Name = ZINC49071081
REMARK  10 active torsions:
REMARK  status: ('A' for Active; 'I' for Inactive)
REMARK    1  A    between atoms: C_1  and  C_2
REMARK    2  A    between atoms: C_7  and  C_17
REMARK    3  A    between atoms: C_9  and  C_10
REMARK    4  A    between atoms: C_9  and  O_16
REMARK    5  A    between atoms: C_18  and  C_20
REMARK    6  A    between atoms: N_23  and  C_35
REMARK    7  A    between atoms: C_25  and  C_27
REMARK    8  A    between atoms: C_35  and  C_36
REMARK    9  A    between atoms: C_35  and  C_37
REMARK   10  A    between atoms: C_35  and  C_38
REMARK                            x       y       z     vdW  Elec       q    Type
REMARK                         _______ _______ _______ _____ _____    ______ ____
ROOT
ATOM      1  C   UNL     1      -1.050   1.815   0.152  0.00  0.00    +0.012 C 
ATOM      2  C   UNL     1      -0.910   0.304  -0.021  0.00  0.00    +0.040 C 
ATOM      3  C   UNL     1      -2.190  -0.406   0.407  0.00  0.00    +0.114 C 
ATOM      4  N   UNL     1      -2.248  -0.481   1.871  0.00  0.00    -0.301 N 
ATOM      5  C   UNL     1      -1.124  -1.114   2.571  0.00  0.00    +0.114 C 
ATOM      6  C   UNL     1       0.180  -0.425   2.184  0.00  0.00    +0.040 C 
ATOM      7  C   UNL     1       0.324  -0.232   0.685  0.00  0.00    +0.100 C 
ATOM      8  C   UNL     1       0.337   0.892   2.942  0.00  0.00    +0.012 C 
ATOM      9  C   UNL     1      -3.304   0.005   2.551  0.00  0.00    +0.217 C 
ATOM     10  O   UNL     1      -4.228   0.515   1.952  0.00  0.00    -0.275 OA
ENDROOT
BRANCH   7  11
ATOM     11  C   UNL     1       1.470   0.713   0.431  0.00  0.00    +0.003 A 
ATOM     12  C   UNL     1       1.416   2.021   0.887  0.00  0.00    +0.009 A 
ATOM     13  C   UNL     1       2.494   2.855   0.630  0.00  0.00    +0.020 A 
ATOM     14  C   UNL     1       3.578   2.357  -0.067  0.00  0.00    +0.111 A 
ATOM     15  N   UNL     1       3.595   1.108  -0.487  0.00  0.00    -0.263 NA
ATOM     16  C   UNL     1       2.590   0.285  -0.256  0.00  0.00    +0.117 A 
ENDBRANCH   7  11
BRANCH   9  17
ATOM     17  C   UNL     1      -3.339  -0.084   4.055  0.00  0.00    +0.064 C 
ATOM     18  C   UNL     1      -3.341  -1.560   4.505  0.00  0.00    -0.065 C 
ATOM     19  N   UNL     1      -4.776  -1.890   4.702  0.00  0.00    +0.384 N 
ATOM     20  C   UNL     1      -5.348  -0.670   5.328  0.00  0.00    -0.069 C 
ATOM     21  C   UNL     1      -4.658   0.505   4.596  0.00  0.00    +0.015 C 
ATOM     22  H   UNL     1      -5.221  -2.073   3.815  0.00  0.00    -0.081 HD
BRANCH  21  23
ATOM     23  C   UNL     1      -4.374   1.628   5.559  0.00  0.00    -0.010 A 
ATOM     24  C   UNL     1      -3.631   1.389   6.700  0.00  0.00    +0.009 A 
ATOM     25  C   UNL     1      -3.369   2.419   7.584  0.00  0.00    +0.039 A 
ATOM     26  C   UNL     1      -3.852   3.692   7.327  0.00  0.00    +0.126 A 
ATOM     27  C   UNL     1      -4.596   3.932   6.186  0.00  0.00    +0.077 A 
ATOM     28  C   UNL     1      -4.852   2.901   5.298  0.00  0.00    +0.129 A 
ATOM     29  F   UNL     1      -5.574   3.136   4.180  0.00  0.00    -0.205 F 
ATOM     30  F   UNL     1      -3.596   4.698   8.192  0.00  0.00    -0.205 F 
ENDBRANCH  21  23
BRANCH  19  31
ATOM     31  C   UNL     1      -4.920  -3.044   5.599  0.00  0.00    -0.074 C 
ATOM     32  C   UNL     1      -4.284  -2.720   6.952  0.00  0.00    -0.010 C 
ATOM     33  C   UNL     1      -6.405  -3.356   5.795  0.00  0.00    -0.010 C 
ATOM     34  C   UNL     1      -4.220  -4.258   4.985  0.00  0.00    -0.010 C 
ENDBRANCH  19  31
ENDBRANCH   9  17
BRANCH   7  35
ATOM     35  O   UNL     1       0.672  -1.498   0.093  0.00  0.00    -0.383 OA
ATOM     36  H   UNL     1       1.453  -1.913   0.485  0.00  0.00    +0.211 HD
ENDBRANCH   7  35
TORSDOF 5
