REMARK  Name = ZINC12774791
REMARK  9 active torsions:
REMARK  status: ('A' for Active; 'I' for Inactive)
REMARK    1  A    between atoms: C_1  and  C_2
REMARK    2  A    between atoms: C_5  and  N_9
REMARK    3  A    between atoms: C_10  and  C_12
REMARK    4  A    between atoms: C_12  and  C_14
REMARK    5  A    between atoms: C_12  and  N_15
REMARK    6  A    between atoms: C_23  and  C_30
REMARK    7  A    between atoms: C_25  and  C_27
REMARK    8  A    between atoms: C_27  and  C_28
REMARK    9  A    between atoms: C_27  and  C_29
REMARK                            x       y       z     vdW  Elec       q    Type
REMARK                         _______ _______ _______ _____ _____    ______ ____
ROOT
ATOM      1  N   UNL     1       0.171  -6.981  -2.523  0.00  0.00    -0.289 NA
ATOM      2  C   UNL     1       1.292  -6.394  -3.270  0.00  0.00    +0.104 C 
ATOM      3  C   UNL     1       1.153  -6.748  -4.755  0.00  0.00    +0.122 C 
ATOM      4  N   UNL     1       1.020  -8.207  -4.877  0.00  0.00    -0.313 N 
ATOM      5  C   UNL     1       0.007  -8.886  -4.054  0.00  0.00    +0.122 C 
ATOM      6  C   UNL     1       0.192  -8.448  -2.597  0.00  0.00    +0.104 C 
ATOM      7  C   UNL     1       1.828  -8.924  -5.745  0.00  0.00    +0.125 A 
ATOM      8  C   UNL     1       2.919  -8.313  -6.367  0.00  0.00    +0.064 A 
ATOM      9  C   UNL     1       3.693  -9.070  -7.224  0.00  0.00    +0.017 A 
ATOM     10  N   UNL     1       3.378 -10.342  -7.427  0.00  0.00    -0.347 N 
ATOM     11  C   UNL     1       2.342 -10.889  -6.825  0.00  0.00    +0.112 A 
ATOM     12  N   UNL     1       1.579 -10.206  -5.996  0.00  0.00    -0.219 NA
ATOM     13  C   UNL     1       4.881  -8.458  -7.920  0.00  0.00    +0.063 C 
ATOM     14  H   UNL     1       3.919 -10.878  -8.028  0.00  0.00    +0.167 HD
ENDROOT
BRANCH  11  15
ATOM     15  C   UNL     1       2.023 -12.339  -7.089  0.00  0.00    +0.049 C 
ATOM     16  C   UNL     1       1.172 -12.452  -8.355  0.00  0.00    +0.015 C 
ATOM     17  C   UNL     1       3.324 -13.121  -7.277  0.00  0.00    +0.015 C 
ENDBRANCH  11  15
BRANCH   1  18
ATOM     18  C   UNL     1       0.172  -6.524  -1.127  0.00  0.00    +0.140 C 
ATOM     19  C   UNL     1       1.288  -7.236  -0.359  0.00  0.00    +0.034 C 
BRANCH  18  21
ATOM     20  N   UNL     1      -1.425  -6.422   0.758  0.00  0.00    -0.283 N 
ATOM     21  C   UNL     1      -1.157  -6.844  -0.493  0.00  0.00    +0.234 C 
ATOM     22  O   UNL     1      -1.985  -7.481  -1.109  0.00  0.00    -0.274 OA
ATOM     23  H   UNL     1      -0.797  -5.845   1.221  0.00  0.00    +0.155 HD
BRANCH  20  28
ATOM     24  C   UNL     1      -6.226  -8.024   3.325  0.00  0.00    +0.044 C 
ATOM     25  C   UNL     1      -4.951  -7.598   2.643  0.00  0.00    -0.049 A 
ATOM     26  C   UNL     1      -4.414  -8.377   1.634  0.00  0.00    +0.005 A 
ATOM     27  C   UNL     1      -3.246  -7.990   1.008  0.00  0.00    +0.024 A 
ATOM     28  C   UNL     1      -2.610  -6.817   1.391  0.00  0.00    +0.048 A 
ATOM     29  C   UNL     1      -3.151  -6.036   2.405  0.00  0.00    +0.039 A 
ATOM     30  C   UNL     1      -4.324  -6.426   3.024  0.00  0.00    +0.020 A 
ATOM     31 BR   UNL     1      -2.289  -4.438   2.932  0.00  0.00    -0.048 Br
ENDBRANCH  20  28
ENDBRANCH  18  21
ENDBRANCH   1  18
TORSDOF 4
