REMARK  Name = ZINC12156165
REMARK  11 active torsions:
REMARK  status: ('A' for Active; 'I' for Inactive)
REMARK    1  A    between atoms: C_1  and  C_2
REMARK    2  A    between atoms: C_4  and  C_36
REMARK    3  A    between atoms: C_5  and  C_9
REMARK    4  A    between atoms: C_7  and  C_8
REMARK    5  A    between atoms: C_9  and  N_73
REMARK    6  A    between atoms: C_13  and  C_23
REMARK    7  A    between atoms: C_14  and  O_21
REMARK    8  A    between atoms: O_21  and  C_22
REMARK    9  A    between atoms: C_30  and  C_32
REMARK   10  A    between atoms: C_32  and  O_34
REMARK   11  A    between atoms: O_34  and  C_35
REMARK                            x       y       z     vdW  Elec       q    Type
REMARK                         _______ _______ _______ _____ _____    ______ ____
ROOT
ATOM      1  C   UNL     1       4.308   4.564  -1.467  0.00  0.00    -0.072 C 
ATOM      2  C   UNL     1       4.267   6.000  -0.947  0.00  0.00    +0.036 C 
ATOM      3  C   UNL     1       4.094   6.988  -2.074  0.00  0.00    +0.036 A 
ATOM      4  C   UNL     1       4.632   8.253  -1.880  0.00  0.00    +0.098 A 
ATOM      5  C   UNL     1       4.456   9.277  -2.910  0.00  0.00    +0.139 A 
ATOM      6  C   UNL     1       3.743   8.935  -4.042  0.00  0.00    +0.116 A 
ATOM      7  C   UNL     1       3.242   7.638  -4.160  0.00  0.00    +0.255 A 
ATOM      8  O   UNL     1       2.602   7.341  -5.156  0.00  0.00    -0.268 OA
ATOM      9  N   UNL     1       3.443   6.698  -3.207  0.00  0.00    -0.313 N 
ATOM     10  C   UNL     1       2.916   5.359  -3.492  0.00  0.00    +0.106 C 
ATOM     11  C   UNL     1       2.069   4.840  -2.329  0.00  0.00    -0.056 C 
ATOM     12  N   UNL     1       2.939   4.009  -1.476  0.00  0.00    +0.384 N 
ATOM     13  H   UNL     1       2.967   3.055  -1.855  0.00  0.00    -0.081 HD
ENDROOT
BRANCH   4  14
ATOM     14  C   UNL     1       5.376   8.561  -0.647  0.00  0.00    +0.253 C 
ATOM     15  O   UNL     1       6.592   8.552  -0.651  0.00  0.00    -0.270 OA
ATOM     16  N   UNL     1       4.709   8.854   0.487  0.00  0.00    -0.284 N 
ATOM     17  C   UNL     1       3.244   8.749   0.542  0.00  0.00    +0.109 C 
ATOM     18  C   UNL     1       2.669  10.073   1.040  0.00  0.00    +0.019 C 
ATOM     19  C   UNL     1       3.323  10.443   2.373  0.00  0.00    +0.004 C 
ATOM     20  C   UNL     1       4.831  10.614   2.173  0.00  0.00    +0.034 C 
ATOM     21  C   UNL     1       5.431   9.290   1.690  0.00  0.00    +0.185 C 
BRANCH  21  22
ATOM     22  C   UNL     1       6.889   9.484   1.361  0.00  0.00    +0.328 C 
ATOM     23  O   UNL     1       7.223  10.344   0.580  0.00  0.00    -0.249 OA
BRANCH  22  24
ATOM     24  O   UNL     1       7.816   8.701   1.934  0.00  0.00    -0.467 OA
ATOM     25  C   UNL     1       9.201   8.944   1.571  0.00  0.00    +0.280 C 
ENDBRANCH  22  24
ENDBRANCH  21  22
ENDBRANCH   4  14
BRANCH   5  26
ATOM     26  O   UNL     1       4.974  10.518  -2.758  0.00  0.00    -0.494 OA
ATOM     27  C   UNL     1       4.845  11.414  -3.863  0.00  0.00    +0.277 C 
ENDBRANCH   5  26
BRANCH  12  28
ATOM     28  C   UNL     1       2.402   3.963  -0.099  0.00  0.00    -0.043 C 
BRANCH  28  33
ATOM     29  C   UNL     1      -2.591   1.054  -0.146  0.00  0.00    +0.044 C 
ATOM     30  C   UNL     1      -1.289   1.813  -0.130  0.00  0.00    -0.047 A 
ATOM     31  C   UNL     1      -0.089   1.126  -0.148  0.00  0.00    +0.007 A 
ATOM     32  C   UNL     1       1.105   1.822  -0.139  0.00  0.00    -0.049 A 
ATOM     33  C   UNL     1       1.100   3.204  -0.108  0.00  0.00    -0.061 A 
ATOM     34  C   UNL     1      -0.100   3.890  -0.085  0.00  0.00    +0.005 A 
ATOM     35  C   UNL     1      -1.294   3.194  -0.093  0.00  0.00    -0.047 A 
ATOM     36  C   UNL     1      -2.602   3.942  -0.068  0.00  0.00    +0.044 C 
ATOM     37  C   UNL     1       2.413   1.074  -0.165  0.00  0.00    +0.044 C 
ENDBRANCH  28  33
ENDBRANCH  12  28
TORSDOF 6
