REMARK  Name = ZINC64023994
REMARK  7 active torsions:
REMARK  status: ('A' for Active; 'I' for Inactive)
REMARK    1  A    between atoms: C_1  and  C_2
REMARK    2  A    between atoms: C_6  and  C_8
REMARK    3  A    between atoms: C_11  and  O_14
REMARK    4  A    between atoms: O_14  and  C_15
REMARK    5  A    between atoms: C_17  and  C_20
REMARK    6  A    between atoms: C_20  and  N_21
REMARK    7  A    between atoms: C_22  and  C_24
REMARK                            x       y       z     vdW  Elec       q    Type
REMARK                         _______ _______ _______ _____ _____    ______ ____
ROOT
ATOM      1  C   UNL     1      -0.258  -5.588  -2.206  0.00  0.00    +0.149 C 
ENDROOT
BRANCH   1  10
ATOM      2  C   UNL     1      -0.018   1.503   0.010  0.00  0.00    +0.044 C 
ATOM      3  C   UNL     1       0.002  -0.004   0.002  0.00  0.00    -0.049 A 
ATOM      4  C   UNL     1       0.006  -0.691  -1.201  0.00  0.00    +0.010 A 
ATOM      5  C   UNL     1       0.024  -2.068  -1.213  0.00  0.00    -0.001 A 
ATOM      6  C   UNL     1       0.032  -2.791  -0.028  0.00  0.00    +0.133 A 
ATOM      7  C   UNL     1       0.033  -2.093   1.189  0.00  0.00    +0.044 A 
ATOM      8  C   UNL     1       0.023  -0.701   1.193  0.00  0.00    +0.017 A 
ATOM      9  O   UNL     1       0.027  -4.130  -0.267  0.00  0.00    -0.486 OA
ATOM     10  C   UNL     1       0.460  -4.373  -1.616  0.00  0.00    +0.195 C 
ATOM     11  C   UNL     1       0.043  -3.075  -2.347  0.00  0.00    +0.085 C 
BRANCH   7  12
ATOM     12  C   UNL     1       0.050  -2.837   2.471  0.00  0.00    +0.097 A 
ATOM     13  C   UNL     1       0.045  -2.144   3.686  0.00  0.00    +0.035 A 
ATOM     14  C   UNL     1       0.062  -2.884   4.855  0.00  0.00    +0.071 A 
ATOM     15  C   UNL     1       0.082  -4.274   4.750  0.00  0.00    +0.234 A 
ATOM     16  N   UNL     1       0.085  -4.846   3.557  0.00  0.00    -0.111 NA
ATOM     17  N   UNL     1       0.065  -4.164   2.470  0.00  0.00    -0.146 NA
BRANCH  15  18
ATOM     18  O   UNL     1       0.100  -5.039   5.870  0.00  0.00    -0.479 OA
ATOM     19  C   UNL     1       0.120  -6.457   5.688  0.00  0.00    +0.279 C 
ENDBRANCH  15  18
ENDBRANCH   7  12
ENDBRANCH   1  10
BRANCH   1  20
ATOM     20  N   UNL     1       0.065  -6.778  -1.415  0.00  0.00    -0.311 N 
ATOM     21  C   UNL     1      -0.459  -7.973  -1.752  0.00  0.00    +0.219 C 
ATOM     22  O   UNL     1      -1.198  -8.064  -2.710  0.00  0.00    -0.275 OA
ATOM     23  H   UNL     1       0.655  -6.706  -0.649  0.00  0.00    +0.149 HD
BRANCH  21  24
ATOM     24  C   UNL     1      -0.128  -9.197  -0.938  0.00  0.00    +0.101 C 
ATOM     25  C   UNL     1      -0.592  -8.996   0.508  0.00  0.00    +0.015 C 
ATOM     26  C   UNL     1      -2.074  -8.632   0.569  0.00  0.00    +0.005 C 
ATOM     27  C   UNL     1      -2.926  -9.791   0.024  0.00  0.00    +0.033 C 
ATOM     28  C   UNL     1      -2.347 -10.158  -1.319  0.00  0.00    -0.038 C 
ATOM     29  C   UNL     1      -2.910 -10.311  -2.511  0.00  0.00    -0.001 A 
ATOM     30  C   UNL     1      -4.318 -10.298  -2.939  0.00  0.00    +0.010 A 
ATOM     31  C   UNL     1      -4.542 -10.468  -4.269  0.00  0.00    +0.001 A 
ATOM     32  C   UNL     1      -3.519 -10.648  -5.204  0.00  0.00    +0.002 A 
ATOM     33  C   UNL     1      -2.197 -10.685  -4.898  0.00  0.00    +0.026 A 
ATOM     34  C   UNL     1      -1.836 -10.526  -3.529  0.00  0.00    +0.043 A 
ATOM     35  N   UNL     1      -0.667 -10.544  -2.960  0.00  0.00    -0.377 N 
ATOM     36  C   UNL     1      -0.853 -10.413  -1.519  0.00  0.00    +0.118 C 
ATOM     37  H   UNL     1       0.185 -10.631  -3.415  0.00  0.00    +0.160 HD
ENDBRANCH  21  24
ENDBRANCH   1  20
TORSDOF 5
