REMARK  Name = ZINC63245260
REMARK  9 active torsions:
REMARK  status: ('A' for Active; 'I' for Inactive)
REMARK    1  A    between atoms: C_1  and  C_2
REMARK    2  A    between atoms: C_2  and  O_3
REMARK    3  A    between atoms: O_3  and  C_4
REMARK    4  A    between atoms: C_9  and  N_10
REMARK    5  A    between atoms: N_13  and  C_16
REMARK    6  A    between atoms: C_16  and  N_17
REMARK    7  A    between atoms: N_20  and  C_33
REMARK    8  A    between atoms: C_21  and  C_24
REMARK    9  A    between atoms: C_33  and  C_34
REMARK                            x       y       z     vdW  Elec       q    Type
REMARK                         _______ _______ _______ _____ _____    ______ ____
ROOT
ATOM      1  N   UNL     1      -8.608   0.136   0.928  0.00  0.00    -0.232 N 
ATOM      2  C   UNL     1      -9.096  -0.054   2.161  0.00  0.00    +0.152 C 
ATOM      3  S   UNL     1      -9.146  -1.572   2.951  0.00  0.00    -0.017 S 
ATOM      4  N   UNL     1      -9.543   1.094   2.701  0.00  0.00    -0.288 N 
ATOM      5  C   UNL     1      -9.318   2.151   1.703  0.00  0.00    +0.189 C 
ATOM      6  N   UNL     1      -8.695   1.449   0.564  0.00  0.00    -0.213 NA
ATOM      7  H   UNL     1      -9.249   1.557  -0.272  0.00  0.00    +0.147 HD
ENDROOT
BRANCH   5   8
ATOM      8  C   UNL     1     -10.627   2.777   1.294  0.00  0.00    -0.006 C 
ATOM      9  C   UNL     1     -10.980   4.077   1.419  0.00  0.00    +0.002 A 
ATOM     10  C   UNL     1     -10.280   5.251   1.953  0.00  0.00    +0.010 A 
ATOM     11  C   UNL     1     -10.908   6.449   1.944  0.00  0.00    +0.001 A 
ATOM     12  C   UNL     1     -12.207   6.597   1.439  0.00  0.00    +0.002 A 
ATOM     13  C   UNL     1     -12.914   5.565   0.932  0.00  0.00    +0.026 A 
ATOM     14  C   UNL     1     -12.351   4.259   0.891  0.00  0.00    +0.043 A 
ATOM     15  N   UNL     1     -12.826   3.117   0.457  0.00  0.00    -0.380 N 
ATOM     16  C   UNL     1     -11.807   2.081   0.655  0.00  0.00    +0.148 C 
ATOM     17  H   UNL     1     -13.704   2.981   0.066  0.00  0.00    +0.160 HD
ENDBRANCH   5   8
BRANCH   1  18
ATOM     18  C   UNL     1      -8.049  -0.923   0.085  0.00  0.00    +0.212 C 
BRANCH  18  22
ATOM     19  N   UNL     1      -3.901  -1.567   0.031  0.00  0.00    -0.325 N 
ATOM     20  C   UNL     1      -4.524  -1.115  -1.222  0.00  0.00    +0.120 C 
ATOM     21  C   UNL     1      -6.026  -1.409  -1.154  0.00  0.00    +0.105 C 
ATOM     22  N   UNL     1      -6.584  -0.812   0.067  0.00  0.00    -0.283 NA
ATOM     23  C   UNL     1      -5.995  -1.414   1.271  0.00  0.00    +0.105 C 
ATOM     24  C   UNL     1      -4.495  -1.124   1.302  0.00  0.00    +0.120 C 
BRANCH  19  30
ATOM     25  C   UNL     1      -1.498  -1.849   0.006  0.00  0.00    +0.141 A 
ATOM     26  C   UNL     1      -0.390  -2.680  -0.003  0.00  0.00    +0.047 A 
ATOM     27  C   UNL     1      -0.554  -4.053  -0.009  0.00  0.00    +0.004 A 
ATOM     28  C   UNL     1      -1.823  -4.601  -0.006  0.00  0.00    +0.002 A 
ATOM     29  C   UNL     1      -2.935  -3.779   0.004  0.00  0.00    +0.027 A 
ATOM     30  C   UNL     1      -2.778  -2.401   0.016  0.00  0.00    +0.072 A 
BRANCH  25  31
ATOM     31  O   UNL     1      -1.339  -0.499   0.012  0.00  0.00    -0.490 OA
BRANCH  31  33
ATOM     32  C   UNL     1      -0.019   1.526   0.010  0.00  0.00    +0.048 C 
ATOM     33  C   UNL     1       0.002  -0.004   0.002  0.00  0.00    +0.226 C 
ENDBRANCH  31  33
ENDBRANCH  25  31
ENDBRANCH  19  30
ENDBRANCH  18  22
ENDBRANCH   1  18
BRANCH   4  34
ATOM     34  C   UNL     1     -10.140   1.259   4.029  0.00  0.00    +0.140 C 
BRANCH  34  35
ATOM     35  C   UNL     1      -9.040   1.564   5.048  0.00  0.00    +0.136 C 
ATOM     36  C   UNL     1      -9.647   1.709   6.467  0.00  0.00    +0.035 C 
ATOM     37  C   UNL     1      -8.418   1.360   7.349  0.00  0.00    +0.031 C 
ATOM     38  C   UNL     1      -7.692   0.297   6.496  0.00  0.00    +0.160 C 
ATOM     39  O   UNL     1      -8.126   0.460   5.139  0.00  0.00    -0.375 OA
ENDBRANCH  34  35
ENDBRANCH   4  34
TORSDOF 8
