REMARK  Name = ZINC09540440
REMARK  9 active torsions:
REMARK  status: ('A' for Active; 'I' for Inactive)
REMARK    1  A    between atoms: C_7  and  C_11
REMARK    2  A    between atoms: C_14  and  S_23
REMARK    3  A    between atoms: N_15  and  C_16
REMARK    4  A    between atoms: C_16  and  C_17
REMARK    5  A    between atoms: S_23  and  C_24
REMARK    6  A    between atoms: C_24  and  C_25
REMARK    7  A    between atoms: N_27  and  C_28
REMARK    8  A    between atoms: C_31  and  O_34
REMARK    9  A    between atoms: O_34  and  C_35
REMARK                            x       y       z     vdW  Elec       q    Type
REMARK                         _______ _______ _______ _____ _____    ______ ____
ROOT
ATOM      1  C   UNL     1       0.689  -3.284  -0.460  0.00  0.00    +0.167 A 
ATOM      2  N   UNL     1      -0.593  -3.234  -0.177  0.00  0.00    -0.128 NA
ATOM      3  N   UNL     1      -1.087  -4.421  -0.170  0.00  0.00    -0.122 NA
ATOM      4  C   UNL     1      -0.153  -5.301  -0.447  0.00  0.00    +0.192 A 
ATOM      5  N   UNL     1       1.010  -4.608  -0.647  0.00  0.00    -0.300 N 
ENDROOT
BRANCH   1  12
ATOM      6  C   UNL     1       1.455   0.444   2.259  0.00  0.00    +0.001 A 
ATOM      7  C   UNL     1       2.440   1.280   1.753  0.00  0.00    +0.002 A 
ATOM      8  C   UNL     1       3.079   0.978   0.570  0.00  0.00    +0.026 A 
ATOM      9  C   UNL     1       2.734  -0.177  -0.126  0.00  0.00    +0.047 A 
ATOM     10  C   UNL     1       1.736  -1.020   0.392  0.00  0.00    +0.010 A 
ATOM     11  C   UNL     1       1.102  -0.695   1.590  0.00  0.00    +0.011 A 
ATOM     12  C   UNL     1       1.610  -2.134  -0.562  0.00  0.00    +0.044 A 
ATOM     13  C   UNL     1       2.506  -1.899  -1.555  0.00  0.00    +0.095 A 
ATOM     14  N   UNL     1       3.179  -0.738  -1.303  0.00  0.00    -0.360 N 
ATOM     15  H   UNL     1       3.869  -0.362  -1.871  0.00  0.00    +0.165 HD
ENDBRANCH   1  12
BRANCH   5  16
ATOM     16  C   UNL     1       2.323  -5.162  -0.987  0.00  0.00    +0.157 C 
BRANCH  16  17
ATOM     17  C   UNL     1       3.039  -5.597   0.293  0.00  0.00    +0.138 C 
ATOM     18  C   UNL     1       4.393  -6.269  -0.050  0.00  0.00    +0.035 C 
ATOM     19  C   UNL     1       5.183  -6.030   1.265  0.00  0.00    +0.031 C 
ATOM     20  C   UNL     1       4.649  -4.655   1.722  0.00  0.00    +0.160 C 
ATOM     21  O   UNL     1       3.379  -4.451   1.089  0.00  0.00    -0.375 OA
ENDBRANCH  16  17
ENDBRANCH   5  16
BRANCH   4  22
ATOM     22  S   UNL     1      -0.360  -7.047  -0.549  0.00  0.00    -0.077 S 
BRANCH  22  23
ATOM     23  C   UNL     1      -2.120  -7.302  -0.190  0.00  0.00    +0.173 C 
BRANCH  23  24
ATOM     24  C   UNL     1      -2.436  -8.775  -0.245  0.00  0.00    +0.227 C 
ATOM     25  O   UNL     1      -1.560  -9.574  -0.502  0.00  0.00    -0.275 OA
ATOM     26  N   UNL     1      -3.692  -9.204  -0.010  0.00  0.00    -0.285 N 
ATOM     27  H   UNL     1      -4.407  -8.562   0.122  0.00  0.00    +0.155 HD
BRANCH  26  28
ATOM     28  C   UNL     1      -3.964 -10.577   0.044  0.00  0.00    +0.034 A 
ATOM     29  C   UNL     1      -5.188 -11.060  -0.398  0.00  0.00    +0.027 A 
ATOM     30  C   UNL     1      -5.456 -12.414  -0.345  0.00  0.00    +0.047 A 
ATOM     31  C   UNL     1      -4.502 -13.291   0.150  0.00  0.00    +0.127 A 
ATOM     32  C   UNL     1      -3.279 -12.809   0.593  0.00  0.00    +0.047 A 
ATOM     33  C   UNL     1      -3.007 -11.456   0.535  0.00  0.00    +0.027 A 
BRANCH  31  34
ATOM     34  O   UNL     1      -4.766 -14.624   0.203  0.00  0.00    -0.434 OA
BRANCH  34  35
ATOM     35  C   UNL     1      -3.739 -15.469   0.725  0.00  0.00    +0.541 C 
ATOM     36  F   UNL     1      -2.588 -15.345  -0.062  0.00  0.00    -0.166 F 
ATOM     37  F   UNL     1      -3.447 -15.092   2.040  0.00  0.00    -0.166 F 
ENDBRANCH  34  35
ENDBRANCH  31  34
ENDBRANCH  26  28
ENDBRANCH  23  24
ENDBRANCH  22  23
ENDBRANCH   4  22
TORSDOF 9
