REMARK  Name = ZINC24793963
REMARK  9 active torsions:
REMARK  status: ('A' for Active; 'I' for Inactive)
REMARK    1  A    between atoms: C_1  and  C_2
REMARK    2  A    between atoms: C_2  and  C_3
REMARK    3  A    between atoms: C_3  and  C_4
REMARK    4  A    between atoms: C_4  and  N_5
REMARK    5  A    between atoms: C_11  and  S_12
REMARK    6  A    between atoms: S_12  and  C_13
REMARK    7  A    between atoms: C_13  and  C_14
REMARK    8  A    between atoms: C_19  and  C_22
REMARK    9  A    between atoms: C_25  and  C_28
REMARK                            x       y       z     vdW  Elec       q    Type
REMARK                         _______ _______ _______ _____ _____    ______ ____
ROOT
ATOM      1  C   UNL     1      -4.186  -3.039  -5.204  0.00  0.00    +0.229 C 
ATOM      2  O   UNL     1      -3.101  -2.636  -5.567  0.00  0.00    -0.275 OA
ATOM      3  N   UNL     1      -5.119  -3.376  -6.117  0.00  0.00    -0.264 N 
ATOM      4  C   UNL     1      -4.838  -3.260  -7.473  0.00  0.00    +0.165 A 
ATOM      5  N   UNL     1      -5.608  -3.529  -8.511  0.00  0.00    -0.225 NA
ATOM      6  C   UNL     1      -5.175  -3.358  -9.751  0.00  0.00    +0.080 A 
ATOM      7  C   UNL     1      -3.906  -2.894  -9.960  0.00  0.00    +0.076 A 
ATOM      8  S   UNL     1      -3.342  -2.700  -8.274  0.00  0.00    -0.060 S 
ATOM      9  H   UNL     1      -5.987  -3.699  -5.827  0.00  0.00    +0.157 HD
ENDROOT
BRANCH   6  10
ATOM     10  C   UNL     1      -6.058  -3.667 -10.902  0.00  0.00    +0.001 A 
ATOM     11  C   UNL     1      -5.596  -3.492 -12.205  0.00  0.00    +0.010 A 
ATOM     12  C   UNL     1      -6.422  -3.781 -13.272  0.00  0.00    +0.004 A 
ATOM     13  C   UNL     1      -7.706  -4.244 -13.050  0.00  0.00    -0.050 A 
ATOM     14  C   UNL     1      -8.170  -4.420 -11.758  0.00  0.00    +0.004 A 
ATOM     15  C   UNL     1      -7.351  -4.140 -10.684  0.00  0.00    +0.010 A 
ATOM     16  C   UNL     1      -8.604  -4.558 -14.219  0.00  0.00    +0.044 C 
ENDBRANCH   6  10
BRANCH   1  17
ATOM     17  C   UNL     1      -4.490  -3.165  -3.734  0.00  0.00    +0.173 C 
BRANCH  17  18
ATOM     18  S   UNL     1      -3.046  -2.641  -2.770  0.00  0.00    -0.077 S 
BRANCH  18  25
ATOM     19  N   UNL     1      -2.787  -2.571   0.015  0.00  0.00    -0.271 N 
ATOM     20  C   UNL     1      -3.519  -2.844   1.113  0.00  0.00    +0.345 A 
ATOM     21  O   UNL     1      -3.158  -2.714   2.269  0.00  0.00    -0.245 OA
ATOM     22  N   UNL     1      -4.724  -3.287   0.700  0.00  0.00    -0.226 N 
ATOM     23  H   UNL     1      -5.461  -3.561   1.268  0.00  0.00    +0.194 HD
ATOM     24  N   UNL     1      -4.715  -3.280  -0.702  0.00  0.00    -0.145 NA
ATOM     25  C   UNL     1      -3.554  -2.844  -1.095  0.00  0.00    +0.192 A 
BRANCH  19  26
ATOM     26  C   UNL     1      -1.413  -2.063   0.004  0.00  0.00    +0.129 C 
BRANCH  26  27
ATOM     27  C   UNL     1      -1.433  -0.534   0.013  0.00  0.00    +0.021 C 
BRANCH  27  29
ATOM     28  C   UNL     1      -0.019   1.526   0.010  0.00  0.00    +0.004 C 
ATOM     29  C   UNL     1       0.002  -0.004   0.002  0.00  0.00    -0.002 C 
ENDBRANCH  27  29
ENDBRANCH  26  27
ENDBRANCH  19  26
ENDBRANCH  18  25
ENDBRANCH  17  18
ENDBRANCH   1  17
TORSDOF 7
