REMARK  Name = ZINC63619705
REMARK  6 active torsions:
REMARK  status: ('A' for Active; 'I' for Inactive)
REMARK    1  A    between atoms: C_6  and  C_10
REMARK    2  A    between atoms: C_10  and  S_11
REMARK    3  A    between atoms: S_11  and  C_12
REMARK    4  A    between atoms: C_15  and  C_24
REMARK    5  A    between atoms: N_17  and  C_18
REMARK    6  A    between atoms: C_18  and  C_19
REMARK                            x       y       z     vdW  Elec       q    Type
REMARK                         _______ _______ _______ _____ _____    ______ ____
ROOT
ATOM      1  C   UNL     1       3.670  -2.722  -4.154  0.00  0.00    +0.176 C 
ATOM      2  N   UNL     1       4.316  -3.830  -4.016  0.00  0.00    -0.162 NA
ATOM      3  N   UNL     1       4.442  -4.507  -5.235  0.00  0.00    -0.242 N 
ATOM      4  C   UNL     1       3.766  -3.669  -6.240  0.00  0.00    +0.210 C 
ATOM      5  N   UNL     1       3.276  -2.515  -5.468  0.00  0.00    -0.278 N 
ATOM      6  H   UNL     1       4.885  -5.356  -5.387  0.00  0.00    +0.170 HD
ENDROOT
BRANCH   4   7
ATOM      7  C   UNL     1       4.741  -3.228  -7.302  0.00  0.00    +0.010 A 
ATOM      8  C   UNL     1       5.864  -3.990  -7.584  0.00  0.00    +0.010 A 
ATOM      9  C   UNL     1       6.733  -3.546  -8.569  0.00  0.00    +0.020 A 
ATOM     10  C   UNL     1       6.452  -2.366  -9.232  0.00  0.00    +0.111 A 
ATOM     11  N   UNL     1       5.374  -1.667  -8.938  0.00  0.00    -0.263 NA
ATOM     12  C   UNL     1       4.523  -2.062  -8.011  0.00  0.00    +0.117 A 
ENDBRANCH   4   7
BRANCH   1  13
ATOM     13  S   UNL     1       3.322  -1.610  -2.832  0.00  0.00    -0.085 S 
BRANCH  13  14
ATOM     14  C   UNL     1       4.073  -2.402  -1.383  0.00  0.00    +0.124 C 
BRANCH  14  20
ATOM     15  C   UNL     1       1.087   2.149  -0.039  0.00  0.00    +0.002 A 
ATOM     16  C   UNL     1       2.311   2.803  -0.272  0.00  0.00    +0.002 A 
ATOM     17  C   UNL     1       3.478   2.140  -0.390  0.00  0.00    +0.027 A 
ATOM     18  C   UNL     1       3.495   0.675  -0.275  0.00  0.00    +0.060 A 
ATOM     19  N   UNL     1       4.449  -0.207  -0.344  0.00  0.00    -0.363 N 
ATOM     20  C   UNL     1       3.842  -1.530  -0.148  0.00  0.00    +0.184 C 
ATOM     21  N   UNL     1       2.405  -1.301   0.045  0.00  0.00    -0.363 N 
ATOM     22  C   UNL     1       2.200  -0.017  -0.028  0.00  0.00    +0.060 A 
ATOM     23  C   UNL     1       0.991   0.810   0.083  0.00  0.00    +0.027 A 
ATOM     24  H   UNL     1       5.390  -0.025  -0.498  0.00  0.00    +0.162 HD
ATOM     25  H   UNL     1       1.730  -1.981   0.199  0.00  0.00    +0.162 HD
ENDBRANCH  14  20
ENDBRANCH  13  14
ENDBRANCH   1  13
BRANCH   5  26
ATOM     26  C   UNL     1       2.522  -1.371  -5.986  0.00  0.00    +0.183 C 
BRANCH  26  27
ATOM     27  C   UNL     1       1.136  -1.372  -5.394  0.00  0.00    +0.122 A 
ATOM     28  C   UNL     1       0.740  -0.673  -4.316  0.00  0.00    +0.046 A 
ATOM     29  C   UNL     1      -0.627  -0.969  -4.114  0.00  0.00    +0.041 A 
ATOM     30  C   UNL     1      -0.986  -1.833  -5.081  0.00  0.00    +0.195 A 
ATOM     31  O   UNL     1       0.085  -2.069  -5.857  0.00  0.00    -0.466 OA
ENDBRANCH  26  27
ENDBRANCH   5  26
TORSDOF 6
