REMARK  Name = ZINC13233557
REMARK  8 active torsions:
REMARK  status: ('A' for Active; 'I' for Inactive)
REMARK    1  A    between atoms: C_1  and  C_2
REMARK    2  A    between atoms: C_7  and  O_8
REMARK    3  A    between atoms: O_8  and  C_9
REMARK    4  A    between atoms: C_9  and  C_10
REMARK    5  A    between atoms: N_12  and  N_13
REMARK    6  A    between atoms: C_14  and  C_15
REMARK    7  A    between atoms: C_18  and  S_20
REMARK    8  A    between atoms: S_20  and  C_21
REMARK                            x       y       z     vdW  Elec       q    Type
REMARK                         _______ _______ _______ _____ _____    ______ ____
ROOT
ATOM      1  C   UNL     1       0.084   0.789   9.500  0.00  0.00    +0.149 A 
ATOM      2  C   UNL     1       0.107   0.391  10.807  0.00  0.00    +0.052 A 
ATOM      3  C   UNL     1       0.097   1.557  11.588  0.00  0.00    +0.057 A 
ATOM      4  C   UNL     1       0.069   2.612  10.730  0.00  0.00    +0.169 A 
ATOM      5  O   UNL     1       0.066   2.140   9.471  0.00  0.00    -0.447 OA
ENDROOT
BRANCH   1   7
ATOM      6  N   UNL     1       0.066   0.412   7.134  0.00  0.00    -0.185 NA
ATOM      7  C   UNL     1       0.084  -0.094   8.334  0.00  0.00    +0.176 C 
BRANCH   6  10
ATOM      8  C   UNL     1       0.047   0.090   4.775  0.00  0.00    +0.270 C 
ATOM      9  O   UNL     1       0.030   1.294   4.624  0.00  0.00    -0.270 OA
ATOM     10  N   UNL     1       0.066  -0.433   6.017  0.00  0.00    -0.204 N 
ATOM     11  H   UNL     1       0.080  -1.396   6.137  0.00  0.00    +0.177 HD
BRANCH   8  12
ATOM     12  C   UNL     1       0.048  -0.820   3.574  0.00  0.00    +0.326 C 
BRANCH  12  13
ATOM     13  O   UNL     1       0.025  -0.033   2.381  0.00  0.00    -0.482 OA
BRANCH  13  20
ATOM     14  C   UNL     1      -0.018   1.503   0.010  0.00  0.00    +0.047 C 
ATOM     15  C   UNL     1       0.002  -0.004   0.002  0.00  0.00    -0.009 A 
ATOM     16  C   UNL     1       0.006  -0.689  -1.198  0.00  0.00    +0.007 A 
ATOM     17  C   UNL     1       0.024  -2.071  -1.206  0.00  0.00    +0.000 A 
ATOM     18  C   UNL     1       0.039  -2.772  -0.014  0.00  0.00    +0.004 A 
ATOM     19  C   UNL     1       0.036  -2.092   1.188  0.00  0.00    +0.046 A 
ATOM     20  C   UNL     1       0.023  -0.705   1.199  0.00  0.00    +0.124 A 
ENDBRANCH  13  20
ENDBRANCH  12  13
ENDBRANCH   8  12
ENDBRANCH   6  10
ENDBRANCH   1   7
BRANCH   4  21
ATOM     21  S   UNL     1       0.045   4.312  11.191  0.00  0.00    -0.014 S 
BRANCH  21  22
ATOM     22  C   UNL     1       0.011   5.170   9.652  0.00  0.00    +0.175 A 
ATOM     23  N   UNL     1      -0.008   6.529   9.511  0.00  0.00    -0.333 N 
ATOM     24  H   UNL     1      -0.005   7.183  10.228  0.00  0.00    +0.168 HD
ATOM     25  C   UNL     1      -0.032   6.801   8.153  0.00  0.00    +0.067 A 
ATOM     26  C   UNL     1      -0.058   7.969   7.407  0.00  0.00    +0.028 A 
ATOM     27  C   UNL     1      -0.078   7.903   6.029  0.00  0.00    +0.002 A 
ATOM     28  C   UNL     1      -0.071   6.675   5.384  0.00  0.00    +0.002 A 
ATOM     29  C   UNL     1      -0.046   5.505   6.109  0.00  0.00    +0.030 A 
ATOM     30  C   UNL     1      -0.025   5.554   7.505  0.00  0.00    +0.090 A 
ATOM     31  N   UNL     1       0.007   4.601   8.472  0.00  0.00    -0.222 NA
ENDBRANCH  21  22
ENDBRANCH   4  21
TORSDOF 7
