REMARK  Name = ZINC64002344
REMARK  8 active torsions:
REMARK  status: ('A' for Active; 'I' for Inactive)
REMARK    1  A    between atoms: C_1  and  C_2
REMARK    2  A    between atoms: C_11  and  C_13
REMARK    3  A    between atoms: N_15  and  C_16
REMARK    4  A    between atoms: C_21  and  C_23
REMARK    5  A    between atoms: C_21  and  C_24
REMARK    6  A    between atoms: N_25  and  C_26
REMARK    7  A    between atoms: C_26  and  C_27
REMARK    8  A    between atoms: C_27  and  C_28
REMARK                            x       y       z     vdW  Elec       q    Type
REMARK                         _______ _______ _______ _____ _____    ______ ____
ROOT
ATOM      1  C   UNL     1       0.414   1.936   0.323  0.00  0.00    +0.014 C 
ATOM      2  C   UNL     1       0.345   0.409   0.250  0.00  0.00    +0.044 C 
ATOM      3  C   UNL     1       0.508  -0.022  -1.184  0.00  0.00    +0.028 A 
ATOM      4  C   UNL     1      -0.022   0.593  -2.330  0.00  0.00    +0.126 A 
ATOM      5  N   UNL     1       0.210   0.066  -3.526  0.00  0.00    -0.221 NA
ATOM      6  C   UNL     1       0.929  -1.029  -3.672  0.00  0.00    +0.224 A 
ATOM      7  N   UNL     1       1.454  -1.640  -2.628  0.00  0.00    -0.229 NA
ATOM      8  C   UNL     1       1.272  -1.166  -1.406  0.00  0.00    +0.106 A 
ATOM      9  S   UNL     1       1.853  -1.700   0.187  0.00  0.00    -0.092 S 
ATOM     10  C   UNL     1       1.448  -0.189   1.154  0.00  0.00    +0.146 C 
ATOM     11  N   UNL     1      -0.784   1.745  -2.214  0.00  0.00    -0.328 N 
ATOM     12  H   UNL     1      -1.024   2.081  -1.336  0.00  0.00    +0.147 HD
ENDROOT
BRANCH  10  13
ATOM     13  C   UNL     1       2.635   0.734   1.255  0.00  0.00    +0.227 C 
ATOM     14  O   UNL     1       2.978   1.389   0.294  0.00  0.00    -0.275 OA
ATOM     15  N   UNL     1       3.316   0.831   2.415  0.00  0.00    -0.311 N 
ATOM     16  H   UNL     1       3.041   0.307   3.183  0.00  0.00    +0.149 HD
BRANCH  15  17
ATOM     17  C   UNL     1       4.470   1.728   2.514  0.00  0.00    +0.078 C 
ATOM     18  C   UNL     1       5.724   1.005   2.013  0.00  0.00    +0.050 C 
ATOM     19  C   UNL     1       6.938   1.921   2.194  0.00  0.00    +0.162 C 
ATOM     20  O   UNL     1       7.055   2.288   3.570  0.00  0.00    -0.374 OA
ATOM     21  C   UNL     1       5.931   3.008   4.080  0.00  0.00    +0.066 C 
ATOM     22  C   UNL     1       4.676   2.138   3.975  0.00  0.00    +0.056 C 
ATOM     23  C   UNL     1       5.732   4.287   3.265  0.00  0.00    +0.041 C 
ATOM     24  C   UNL     1       6.180   3.371   5.545  0.00  0.00    +0.041 C 
ENDBRANCH  15  17
ENDBRANCH  10  13
BRANCH  11  25
ATOM     25  C   UNL     1      -1.228   2.455  -3.416  0.00  0.00    +0.107 C 
BRANCH  25  26
ATOM     26  C   UNL     1      -2.046   3.683  -3.010  0.00  0.00    +0.052 C 
BRANCH  26  27
ATOM     27  C   UNL     1      -2.502   4.413  -4.247  0.00  0.00    -0.040 C 
ATOM     28  C   UNL     1      -3.692   4.283  -4.876  0.00  0.00    -0.001 A 
ATOM     29  C   UNL     1      -4.873   3.453  -4.608  0.00  0.00    +0.010 A 
ATOM     30  C   UNL     1      -5.939   3.542  -5.435  0.00  0.00    +0.001 A 
ATOM     31  C   UNL     1      -5.944   4.405  -6.540  0.00  0.00    +0.002 A 
ATOM     32  C   UNL     1      -4.898   5.198  -6.851  0.00  0.00    +0.026 A 
ATOM     33  C   UNL     1      -3.724   5.186  -6.048  0.00  0.00    +0.043 A 
ATOM     34  N   UNL     1      -2.596   5.849  -6.141  0.00  0.00    -0.380 N 
ATOM     35  C   UNL     1      -1.724   5.446  -5.032  0.00  0.00    +0.144 C 
ATOM     36  H   UNL     1      -2.377   6.501  -6.825  0.00  0.00    +0.160 HD
ENDBRANCH  26  27
ENDBRANCH  25  26
ENDBRANCH  11  25
TORSDOF 5
