REMARK  Name = ZINC66704909
REMARK  10 active torsions:
REMARK  status: ('A' for Active; 'I' for Inactive)
REMARK    1  A    between atoms: C_1  and  C_2
REMARK    2  A    between atoms: C_2  and  C_7
REMARK    3  A    between atoms: C_7  and  N_8
REMARK    4  A    between atoms: N_11  and  C_12
REMARK    5  A    between atoms: C_12  and  C_14
REMARK    6  A    between atoms: C_12  and  C_16
REMARK    7  A    between atoms: C_14  and  O_15
REMARK    8  A    between atoms: C_16  and  C_18
REMARK    9  A    between atoms: C_16  and  O_27
REMARK   10  A    between atoms: C_21  and  N_24
REMARK                            x       y       z     vdW  Elec       q    Type
REMARK                         _______ _______ _______ _____ _____    ______ ____
ROOT
ATOM      1  C   UNK A   1      -5.423  -0.335  -2.802  0.00  0.00    +0.133 C 
ENDROOT
BRANCH   1   5
ATOM      2  N   UNK A   0      -2.117  -0.054  -1.217  0.00  0.00    -0.299 N 
ATOM      3  C   UNK A   0      -3.397  -0.406  -1.450  0.00  0.00    +0.300 C 
ATOM      4  O   UNK A   0      -3.980  -1.132  -0.668  0.00  0.00    -0.253 OA
ATOM      5  N   UNK A   1      -4.032   0.047  -2.549  0.00  0.00    -0.292 N 
ATOM      6  H   UNK A   0      -1.653   0.525  -1.841  0.00  0.00    +0.150 HD
ATOM      7  H   UNK A   1      -3.567   0.627  -3.173  0.00  0.00    +0.151 HD
BRANCH   2   8
ATOM      8  C   UNK A   0      -1.428  -0.547  -0.022  0.00  0.00    +0.112 C 
BRANCH   8  10
ATOM      9  C   UNK A   0      -0.019   1.526   0.010  0.00  0.00    +0.013 C 
ATOM     10  C   UNK A   0       0.002  -0.004   0.002  0.00  0.00    -0.016 C 
ATOM     11  C   UNK A   0       0.783  -0.515  -1.226  0.00  0.00    +0.008 C 
ATOM     12  C   UNK A   0       2.213  -0.768  -0.688  0.00  0.00    +0.001 C 
ATOM     13  C   UNK A   0       1.950  -1.339   0.728  0.00  0.00    +0.001 C 
ATOM     14  C   UNK A   0       0.744  -0.528   1.244  0.00  0.00    +0.008 C 
ENDBRANCH   8  10
ENDBRANCH   2   8
ENDBRANCH   1   5
BRANCH   1  15
ATOM     15  C   UNK A   1      -5.459  -1.687  -3.518  0.00  0.00    +0.181 C 
BRANCH  15  16
ATOM     16  O   UNK A   1      -4.862  -1.557  -4.810  0.00  0.00    -0.393 OA
ATOM     17  H   UNK A   1      -4.849  -2.378  -5.322  0.00  0.00    +0.209 HD
ENDBRANCH  15  16
ENDBRANCH   1  15
BRANCH   1  18
ATOM     18  C   UNK A   1      -6.092   0.725  -3.680  0.00  0.00    +0.167 C 
BRANCH  18  19
ATOM     19  C   UNK A   1      -5.948   2.078  -3.032  0.00  0.00    -0.017 A 
ATOM     20  C   UNK A   1      -4.804   2.826  -3.239  0.00  0.00    +0.008 A 
ATOM     21  C   UNK A   1      -4.673   4.067  -2.644  0.00  0.00    +0.033 A 
ATOM     22  C   UNK A   1      -5.686   4.560  -1.843  0.00  0.00    +0.126 A 
ATOM     23  C   UNK A   1      -6.830   3.812  -1.636  0.00  0.00    +0.033 A 
ATOM     24  C   UNK A   1      -6.963   2.573  -2.234  0.00  0.00    +0.008 A 
BRANCH  22  25
ATOM     25  N   UNK A   1      -5.544   5.888  -1.205  0.00  0.00    +0.056 N 
ATOM     26  O   UNK A   1      -4.544   6.542  -1.385  0.00  0.00    -0.126 OA
ATOM     27  O   UNK A   1      -6.430   6.319  -0.504  0.00  0.00    -0.126 OA
ENDBRANCH  22  25
ENDBRANCH  18  19
BRANCH  18  28
ATOM     28  O   UNK A   1      -5.465   0.744  -4.965  0.00  0.00    -0.385 OA
ATOM     29  H   UNK A   1      -4.521   0.949  -4.939  0.00  0.00    +0.210 HD
ENDBRANCH  18  28
ENDBRANCH   1  18
TORSDOF 9
