REMARK  Name = ZINC59811637
REMARK  10 active torsions:
REMARK  status: ('A' for Active; 'I' for Inactive)
REMARK    1  A    between atoms: C_1  and  C_2
REMARK    2  A    between atoms: C_2  and  C_4
REMARK    3  A    between atoms: C_2  and  S_10
REMARK    4  A    between atoms: N_6  and  C_7
REMARK    5  A    between atoms: C_7  and  C_8
REMARK    6  A    between atoms: S_10  and  C_11
REMARK    7  A    between atoms: C_14  and  C_22
REMARK    8  A    between atoms: N_15  and  C_16
REMARK    9  A    between atoms: C_22  and  N_23
REMARK   10  A    between atoms: N_23  and  C_24
REMARK                            x       y       z     vdW  Elec       q    Type
REMARK                         _______ _______ _______ _____ _____    ______ ____
ROOT
ATOM      1  C   UNL     1      -2.335  -0.110   1.573  0.00  0.00    +0.197 A 
ATOM      2  N   UNL     1      -1.693   0.581   2.487  0.00  0.00    -0.122 NA
ATOM      3  N   UNL     1      -2.458   0.786   3.499  0.00  0.00    -0.132 NA
ATOM      4  C   UNL     1      -3.625   0.244   3.296  0.00  0.00    +0.156 A 
ATOM      5  N   UNL     1      -3.593  -0.342   2.059  0.00  0.00    -0.273 N 
ENDROOT
BRANCH   5   6
ATOM      6  C   UNL     1      -4.631  -1.038   1.423  0.00  0.00    +0.050 A 
ATOM      7  C   UNL     1      -5.790  -0.371   1.051  0.00  0.00    +0.026 A 
ATOM      8  C   UNL     1      -6.811  -1.059   0.425  0.00  0.00    +0.002 A 
ATOM      9  C   UNL     1      -6.679  -2.411   0.168  0.00  0.00    +0.000 A 
ATOM     10  C   UNL     1      -5.526  -3.079   0.538  0.00  0.00    +0.002 A 
ATOM     11  C   UNL     1      -4.500  -2.395   1.159  0.00  0.00    +0.026 A 
ENDBRANCH   5   6
BRANCH   1  12
ATOM     12  S   UNL     1      -1.700  -0.632   0.015  0.00  0.00    -0.073 S 
BRANCH  12  14
ATOM     13  C   UNL     1      -0.019   1.526   0.010  0.00  0.00    +0.029 C 
ATOM     14  C   UNL     1       0.002  -0.004   0.002  0.00  0.00    +0.137 C 
BRANCH  14  15
ATOM     15  C   UNL     1       0.707  -0.490  -1.238  0.00  0.00    +0.226 C 
ATOM     16  O   UNL     1       0.066  -0.782  -2.225  0.00  0.00    -0.275 OA
ATOM     17  N   UNL     1       2.051  -0.601  -1.250  0.00  0.00    -0.311 N 
ATOM     18  H   UNL     1       2.563  -0.367  -0.460  0.00  0.00    +0.149 HD
BRANCH  17  19
ATOM     19  C   UNL     1       2.736  -1.073  -2.455  0.00  0.00    +0.131 C 
BRANCH  19  20
ATOM     20  C   UNL     1       4.223  -1.105  -2.207  0.00  0.00    -0.016 C 
ATOM     21  C   UNL     1       4.895  -2.212  -2.402  0.00  0.00    +0.005 C 
ENDBRANCH  19  20
ENDBRANCH  17  19
ENDBRANCH  14  15
ENDBRANCH  12  14
ENDBRANCH   1  12
BRANCH   4  22
ATOM     22  C   UNL     1      -4.796   0.264   4.245  0.00  0.00    +0.178 C 
BRANCH  22  23
ATOM     23  N   UNL     1      -5.621   1.444   3.977  0.00  0.00    -0.337 N 
ATOM     24  H   UNL     1      -5.370   2.063   3.274  0.00  0.00    +0.147 HD
BRANCH  23  25
ATOM     25  C   UNL     1      -6.771   1.679   4.736  0.00  0.00    +0.028 A 
ATOM     26  C   UNL     1      -7.130   0.798   5.747  0.00  0.00    +0.024 A 
ATOM     27  C   UNL     1      -8.267   1.033   6.495  0.00  0.00    +0.016 A 
ATOM     28  C   UNL     1      -9.048   2.145   6.237  0.00  0.00    +0.013 A 
ATOM     29  C   UNL     1      -8.694   3.025   5.231  0.00  0.00    +0.016 A 
ATOM     30  C   UNL     1      -7.554   2.798   4.483  0.00  0.00    +0.024 A 
ATOM     31  I   UNL     1     -10.773   2.496   7.374  0.00  0.00    -0.044 I 
ENDBRANCH  23  25
ENDBRANCH  22  23
ENDBRANCH   4  22
TORSDOF 9
