REMARK  Name = ZINC62140218
REMARK  5 active torsions:
REMARK  status: ('A' for Active; 'I' for Inactive)
REMARK    1  A    between atoms: C_8  and  C_10
REMARK    2  A    between atoms: C_10  and  C_12
REMARK    3  A    between atoms: C_10  and  O_22
REMARK    4  A    between atoms: C_12  and  C_13
REMARK    5  A    between atoms: C_16  and  N_19
REMARK                            x       y       z     vdW  Elec       q    Type
REMARK                         _______ _______ _______ _____ _____    ______ ____
ROOT
ATOM      1  C   UNL     1       3.165  -4.055  -0.049  0.00  0.00    +0.155 C 
ENDROOT
BRANCH   1   9
ATOM      2  C   UNL     1      -0.016   1.355   0.009  0.00  0.00    +0.001 A 
ATOM      3  C   UNL     1       1.157   2.097   0.002  0.00  0.00    +0.001 A 
ATOM      4  C   UNL     1       2.374   1.445  -0.013  0.00  0.00    +0.015 A 
ATOM      5  C   UNL     1       2.406   0.067  -0.020  0.00  0.00    +0.020 A 
ATOM      6  C   UNL     1       1.228  -0.711  -0.013  0.00  0.00    -0.010 A 
ATOM      7  C   UNL     1       0.002  -0.004   0.002  0.00  0.00    +0.009 A 
ATOM      8  C   UNL     1       1.451  -2.149  -0.023  0.00  0.00    +0.022 A 
ATOM      9  C   UNL     1       2.706  -2.619  -0.038  0.00  0.00    +0.020 A 
ATOM     10  S   UNL     1       3.704  -1.142  -0.039  0.00  0.00    -0.091 S 
ENDBRANCH   1   9
BRANCH   1  11
ATOM     11  O   UNL     1       4.301  -4.199   0.805  0.00  0.00    -0.386 OA
ATOM     12  H   UNL     1       5.058  -3.655   0.547  0.00  0.00    +0.210 HD
ENDBRANCH   1  11
BRANCH   1  13
ATOM     13  C   UNL     1       3.545  -4.457  -1.475  0.00  0.00    +0.071 C 
BRANCH  13  14
ATOM     14  C   UNL     1       3.885  -5.925  -1.509  0.00  0.00    -0.044 A 
ATOM     15  C   UNL     1       5.186  -6.338  -1.287  0.00  0.00    +0.006 A 
ATOM     16  C   UNL     1       5.498  -7.684  -1.318  0.00  0.00    +0.033 A 
ATOM     17  C   UNL     1       4.511  -8.617  -1.570  0.00  0.00    +0.126 A 
ATOM     18  C   UNL     1       3.210  -8.205  -1.791  0.00  0.00    +0.033 A 
ATOM     19  C   UNL     1       2.896  -6.859  -1.756  0.00  0.00    +0.006 A 
BRANCH  17  20
ATOM     20  N   UNL     1       4.846 -10.059  -1.604  0.00  0.00    +0.056 N 
ATOM     21  O   UNL     1       5.983 -10.420  -1.411  0.00  0.00    -0.126 OA
ATOM     22  O   UNL     1       3.981 -10.875  -1.824  0.00  0.00    -0.126 OA
ENDBRANCH  17  20
ENDBRANCH  13  14
ENDBRANCH   1  13
TORSDOF 5
