REMARK  Name = ZINC47138793
REMARK  10 active torsions:
REMARK  status: ('A' for Active; 'I' for Inactive)
REMARK    1  A    between atoms: C_1  and  C_2
REMARK    2  A    between atoms: C_2  and  C_10
REMARK    3  A    between atoms: C_3  and  C_4
REMARK    4  A    between atoms: N_11  and  N_12
REMARK    5  A    between atoms: N_14  and  C_29
REMARK    6  A    between atoms: C_18  and  C_19
REMARK    7  A    between atoms: C_22  and  O_27
REMARK    8  A    between atoms: C_23  and  O_25
REMARK    9  A    between atoms: O_25  and  C_26
REMARK   10  A    between atoms: C_29  and  C_30
REMARK                            x       y       z     vdW  Elec       q    Type
REMARK                         _______ _______ _______ _____ _____    ______ ____
ROOT
ATOM      1  N   UNL     1       2.190  -1.780  -1.917  0.00  0.00    -0.126 NA
ATOM      2  C   UNL     1       2.162  -0.956  -2.948  0.00  0.00    +0.190 C 
ATOM      3  N   UNL     1       1.817  -1.228  -4.252  0.00  0.00    -0.237 N 
ATOM      4  C   UNL     1       1.843  -0.277  -5.170  0.00  0.00    +0.259 C 
ATOM      5  O   UNL     1       1.542  -0.501  -6.328  0.00  0.00    -0.269 OA
ATOM      6  C   UNL     1       2.255   1.069  -4.727  0.00  0.00    +0.078 C 
ATOM      7  C   UNL     1       2.369   2.216  -5.446  0.00  0.00    +0.028 C 
ATOM      8  S   UNL     1       2.555   0.786  -2.988  0.00  0.00    -0.047 S 
ENDROOT
BRANCH   7   9
ATOM      9  C   UNL     1       2.952   3.414  -4.830  0.00  0.00    -0.020 A 
ATOM     10  C   UNL     1       3.719   3.301  -3.663  0.00  0.00    +0.012 A 
ATOM     11  C   UNL     1       4.265   4.427  -3.087  0.00  0.00    +0.050 A 
ATOM     12  C   UNL     1       4.058   5.675  -3.660  0.00  0.00    +0.158 A 
ATOM     13  C   UNL     1       3.295   5.796  -4.821  0.00  0.00    +0.162 A 
ATOM     14  C   UNL     1       2.748   4.672  -5.409  0.00  0.00    +0.057 A 
BRANCH  13  15
ATOM     15  O   UNL     1       3.094   7.020  -5.378  0.00  0.00    -0.491 OA
ATOM     16  C   UNL     1       2.303   7.070  -6.566  0.00  0.00    +0.277 C 
ENDBRANCH  13  15
BRANCH  12  17
ATOM     17  O   UNL     1       4.599   6.781  -3.087  0.00  0.00    -0.503 OA
ATOM     18  H   UNL     1       5.484   6.998  -3.410  0.00  0.00    +0.292 HD
ENDBRANCH  12  17
ENDBRANCH   7   9
BRANCH   1  20
ATOM     19  C   UNL     1       1.899  -3.839  -1.048  0.00  0.00    +0.138 C 
ATOM     20  N   UNL     1       1.871  -3.020  -2.073  0.00  0.00    -0.155 NA
BRANCH  19  22
ATOM     21  C   UNL     1       3.059  -2.042   0.299  0.00  0.00    +0.045 C 
ATOM     22  C   UNL     1       2.427  -3.406   0.186  0.00  0.00    -0.030 C 
ATOM     23  C   UNL     1       2.367  -4.215   1.269  0.00  0.00    +0.012 C 
BRANCH  23  24
ATOM     24  C   UNL     1       2.775  -3.710   2.588  0.00  0.00    -0.025 A 
ATOM     25  C   UNL     1       3.478  -4.537   3.471  0.00  0.00    +0.008 A 
ATOM     26  C   UNL     1       3.858  -4.055   4.706  0.00  0.00    +0.001 A 
ATOM     27  C   UNL     1       3.544  -2.758   5.074  0.00  0.00    +0.000 A 
ATOM     28  C   UNL     1       2.848  -1.934   4.206  0.00  0.00    +0.001 A 
ATOM     29  C   UNL     1       2.467  -2.398   2.965  0.00  0.00    +0.008 A 
ENDBRANCH  23  24
ENDBRANCH  19  22
ENDBRANCH   1  20
BRANCH   3  30
ATOM     30  C   UNL     1       1.418  -2.587  -4.628  0.00  0.00    +0.190 C 
BRANCH  30  31
ATOM     31  C   UNL     1      -0.073  -2.735  -4.465  0.00  0.00    +0.123 A 
ATOM     32  C   UNL     1      -0.996  -2.490  -5.413  0.00  0.00    +0.046 A 
ATOM     33  C   UNL     1      -2.258  -2.756  -4.835  0.00  0.00    +0.041 A 
ATOM     34  C   UNL     1      -2.031  -3.148  -3.568  0.00  0.00    +0.195 A 
ATOM     35  O   UNL     1      -0.706  -3.139  -3.352  0.00  0.00    -0.466 OA
ENDBRANCH  30  31
ENDBRANCH   3  30
TORSDOF 8
