REMARK  Name = ZINC15578852
REMARK  5 active torsions:
REMARK  status: ('A' for Active; 'I' for Inactive)
REMARK    1  A    between atoms: C_6  and  N_7
REMARK    2  A    between atoms: C_8  and  C_10
REMARK    3  A    between atoms: C_10  and  N_11
REMARK    4  A    between atoms: C_12  and  C_14
REMARK    5  A    between atoms: C_14  and  C_15
REMARK                            x       y       z     vdW  Elec       q    Type
REMARK                         _______ _______ _______ _____ _____    ______ ____
ROOT
ATOM      1  N   UNL     1      -9.253   1.428   3.749  0.00  0.00    -0.284 N 
ATOM      2  C   UNL     1      -8.429   1.121   2.728  0.00  0.00    +0.234 C 
ATOM      3  O   UNL     1      -8.827   0.431   1.813  0.00  0.00    -0.274 OA
ATOM      4  H   UNL     1      -8.916   1.924   4.512  0.00  0.00    +0.155 HD
ENDROOT
BRANCH   1  10
ATOM      5  C   UNL     1     -11.576   1.849   4.260  0.00  0.00    +0.025 A 
ATOM      6  C   UNL     1     -12.903   1.466   4.218  0.00  0.00    +0.029 A 
ATOM      7  C   UNL     1     -13.257   0.259   3.636  0.00  0.00    +0.067 A 
ATOM      8  C   UNL     1     -12.273  -0.566   3.086  0.00  0.00    +0.069 A 
ATOM      9  C   UNL     1     -10.944  -0.177   3.124  0.00  0.00    +0.051 A 
ATOM     10  C   UNL     1     -10.596   1.032   3.709  0.00  0.00    +0.036 A 
ATOM     11  N   UNL     1     -12.925  -1.690   2.583  0.00  0.00    -0.306 N 
ATOM     12  H   UNL     1     -12.500  -2.441   2.141  0.00  0.00    +0.170 HD
ATOM     13  C   UNL     1     -14.244  -1.555   2.815  0.00  0.00    +0.325 A 
ATOM     14  O   UNL     1     -15.097  -2.364   2.500  0.00  0.00    -0.247 OA
ATOM     15  N   UNL     1     -14.477  -0.390   3.449  0.00  0.00    -0.306 N 
ATOM     16  H   UNL     1     -15.345  -0.059   3.727  0.00  0.00    +0.170 HD
ENDBRANCH   1  10
BRANCH   2  17
ATOM     17  C   UNL     1      -7.012   1.636   2.721  0.00  0.00    +0.200 C 
BRANCH  17  18
ATOM     18  N   UNL     1      -6.328   1.167   1.514  0.00  0.00    -0.307 N 
ATOM     19  C   UNL     1      -5.042   1.506   1.294  0.00  0.00    +0.214 C 
ATOM     20  O   UNL     1      -4.452   2.199   2.095  0.00  0.00    -0.276 OA
ATOM     21  H   UNL     1      -6.800   0.612   0.873  0.00  0.00    +0.149 HD
BRANCH  19  22
ATOM     22  C   UNL     1      -4.338   1.024   0.052  0.00  0.00    +0.102 C 
BRANCH  22  23
ATOM     23  C   UNL     1      -2.900   1.546   0.045  0.00  0.00    -0.020 C 
ATOM     24  C   UNL     1      -2.185   1.056  -1.216  0.00  0.00    +0.011 C 
ATOM     25  C   UNL     1      -0.747   1.579  -1.222  0.00  0.00    -0.010 C 
ATOM     26  C   UNL     1      -0.011   1.061   0.015  0.00  0.00    +0.007 C 
ATOM     27  C   UNL     1      -0.726   1.551   1.276  0.00  0.00    -0.010 C 
ATOM     28  C   UNL     1      -2.164   1.028   1.283  0.00  0.00    +0.011 C 
ATOM     29  C   UNL     1      -0.739   3.080   1.294  0.00  0.00    +0.007 C 
ATOM     30  C   UNL     1      -1.475   3.598   0.057  0.00  0.00    -0.010 C 
ATOM     31  C   UNL     1      -0.760   3.109  -1.204  0.00  0.00    +0.007 C 
ATOM     32  C   UNL     1      -2.913   3.076   0.063  0.00  0.00    +0.011 C 
ENDBRANCH  22  23
ENDBRANCH  19  22
ENDBRANCH  17  18
ENDBRANCH   2  17
TORSDOF 5
