REMARK  Name = ZINC09594808
REMARK  7 active torsions:
REMARK  status: ('A' for Active; 'I' for Inactive)
REMARK    1  A    between atoms: C_3  and  C_9
REMARK    2  A    between atoms: C_4  and  O_8
REMARK    3  A    between atoms: C_6  and  O_7
REMARK    4  A    between atoms: C_9  and  C_11
REMARK    5  A    between atoms: C_11  and  O_12
REMARK    6  A    between atoms: O_12  and  C_13
REMARK    7  A    between atoms: C_13  and  C_15
REMARK                            x       y       z     vdW  Elec       q    Type
REMARK                         _______ _______ _______ _____ _____    ______ ____
ROOT
ATOM      1  C   UNL     1       3.641   6.283   0.000  0.00  0.00    +0.204 C 
ATOM      2  O   UNL     1       4.609   5.551  -0.013  0.00  0.00    -0.288 OA
ENDROOT
BRANCH   1   5
ATOM      3  C   UNL     1       2.880   9.939   0.026  0.00  0.00    +0.046 A 
ATOM      4  C   UNL     1       2.708   8.586   0.021  0.00  0.00    +0.018 A 
ATOM      5  C   UNL     1       3.823   7.737   0.006  0.00  0.00    +0.062 A 
ATOM      6  C   UNL     1       5.118   8.287   0.002  0.00  0.00    +0.131 A 
ATOM      7  C   UNL     1       5.276   9.662   0.002  0.00  0.00    +0.091 A 
ATOM      8  C   UNL     1       4.160  10.487   0.016  0.00  0.00    +0.120 A 
BRANCH   8   9
ATOM      9  O   UNL     1       4.317  11.835   0.022  0.00  0.00    -0.507 OA
ATOM     10  H   UNL     1       4.371  12.221   0.907  0.00  0.00    +0.292 HD
ENDBRANCH   8   9
BRANCH   6  11
ATOM     11  O   UNL     1       6.204   7.476  -0.006  0.00  0.00    -0.506 OA
ATOM     12  H   UNL     1       6.515   7.244  -0.892  0.00  0.00    +0.292 HD
ENDBRANCH   6  11
ENDBRANCH   1   5
BRANCH   1  13
ATOM     13  C   UNL     1       2.253   5.697   0.010  0.00  0.00    +0.312 C 
BRANCH  13  14
ATOM     14  O   UNL     1       2.339   4.248   0.002  0.00  0.00    -0.453 OA
BRANCH  14  15
ATOM     15  C   UNL     1       1.177   3.566   0.009  0.00  0.00    +0.342 C 
ATOM     16  O   UNL     1       0.121   4.166   0.022  0.00  0.00    -0.245 OA
BRANCH  15  17
ATOM     17  C   UNL     1       1.188   2.090   0.002  0.00  0.00    +0.095 A 
ATOM     18  C   UNL     1       2.400   1.397  -0.014  0.00  0.00    +0.033 A 
ATOM     19  C   UNL     1       2.403   0.018  -0.022  0.00  0.00    +0.019 A 
ATOM     20  C   UNL     1       1.206  -0.681  -0.014  0.00  0.00    +0.018 A 
ATOM     21  C   UNL     1       0.002  -0.004   0.002  0.00  0.00    +0.040 A 
ATOM     22  C   UNL     1      -0.017   1.379   0.010  0.00  0.00    +0.137 A 
ATOM     23  F   UNL     1      -1.194   2.041   0.019  0.00  0.00    -0.205 F 
ATOM     24 BR   UNL     1       4.043  -0.922  -0.043  0.00  0.00    -0.050 Br
ENDBRANCH  15  17
ENDBRANCH  14  15
ENDBRANCH  13  14
ENDBRANCH   1  13
TORSDOF 7
