REMARK  Name = ZINC15040150
REMARK  9 active torsions:
REMARK  status: ('A' for Active; 'I' for Inactive)
REMARK    1  A    between atoms: C_3  and  S_29
REMARK    2  A    between atoms: C_6  and  N_7
REMARK    3  A    between atoms: C_8  and  C_10
REMARK    4  A    between atoms: C_10  and  C_11
REMARK    5  A    between atoms: C_11  and  C_12
REMARK    6  A    between atoms: C_12  and  N_13
REMARK    7  A    between atoms: C_17  and  C_18
REMARK    8  A    between atoms: C_23  and  O_24
REMARK    9  A    between atoms: S_29  and  N_32
REMARK                            x       y       z     vdW  Elec       q    Type
REMARK                         _______ _______ _______ _____ _____    ______ ____
ROOT
ATOM      1  C   UNL     1       5.128  -3.337   1.861  0.00  0.00    +0.029 C 
ENDROOT
BRANCH   1   2
ATOM      2  C   UNL     1       6.106  -4.509   1.964  0.00  0.00    +0.097 C 
BRANCH   2   4
ATOM      3  N   UNL     1       7.297  -5.744   3.746  0.00  0.00    -0.285 N 
ATOM      4  C   UNL     1       6.447  -4.753   3.412  0.00  0.00    +0.217 C 
ATOM      5  O   UNL     1       5.956  -4.057   4.276  0.00  0.00    -0.275 OA
ATOM      6  H   UNL     1       7.745  -6.253   3.053  0.00  0.00    +0.155 HD
BRANCH   3  12
ATOM      7  C   UNL     1       8.791  -6.459   5.504  0.00  0.00    +0.025 A 
ATOM      8  C   UNL     1       9.022  -6.744   6.836  0.00  0.00    +0.030 A 
ATOM      9  C   UNL     1       8.000  -6.620   7.758  0.00  0.00    +0.105 A 
ATOM     10  C   UNL     1       6.744  -6.206   7.352  0.00  0.00    +0.030 A 
ATOM     11  C   UNL     1       6.508  -5.914   6.023  0.00  0.00    +0.025 A 
ATOM     12  C   UNL     1       7.533  -6.038   5.094  0.00  0.00    +0.033 A 
BRANCH   9  13
ATOM     13  S   UNL     1       8.297  -6.990   9.455  0.00  0.00    +0.056 S 
ATOM     14  O   UNL     1       9.693  -6.831   9.667  0.00  0.00    -0.153 OA
ATOM     15  O   UNL     1       7.326  -6.272  10.204  0.00  0.00    -0.153 OA
BRANCH  13  16
ATOM     16  N   UNL     1       7.966  -8.598   9.671  0.00  0.00    -0.204 NA
ATOM     17  H   UNL     1       8.441  -9.105  10.348  0.00  0.00    +0.144 HD
ATOM     18  H   UNL     1       7.296  -9.034   9.120  0.00  0.00    +0.144 HD
ENDBRANCH  13  16
ENDBRANCH   9  13
ENDBRANCH   3  12
ENDBRANCH   2   4
ENDBRANCH   1   2
BRANCH   1  19
ATOM     19  C   UNL     1       4.781  -3.090   0.392  0.00  0.00    +0.115 C 
BRANCH  19  20
ATOM     20  N   UNL     1       3.845  -1.967   0.293  0.00  0.00    -0.255 N 
ATOM     21  C   UNL     1       4.320  -0.740   0.163  0.00  0.00    +0.258 C 
ATOM     22  O   UNL     1       5.516  -0.517   0.123  0.00  0.00    -0.269 OA
ATOM     23  C   UNL     1       3.325   0.348   0.069  0.00  0.00    +0.077 C 
ATOM     24  C   UNL     1       3.515   1.685  -0.068  0.00  0.00    +0.032 C 
ATOM     25  S   UNL     1       1.802  -0.580   0.192  0.00  0.00    -0.061 S 
ATOM     26  C   UNL     1       2.519  -2.209   0.336  0.00  0.00    +0.121 C 
ATOM     27  S   UNL     1       1.718  -3.713   0.498  0.00  0.00    -0.027 S 
BRANCH  24  28
ATOM     28  C   UNL     1       2.369   2.567  -0.317  0.00  0.00    +0.019 A 
ATOM     29  C   UNL     1       1.204   2.060  -0.903  0.00  0.00    +0.031 A 
ATOM     30  C   UNL     1       0.134   2.897  -1.140  0.00  0.00    +0.042 A 
ATOM     31  C   UNL     1       0.203   4.236  -0.788  0.00  0.00    +0.023 A 
ATOM     32  C   UNL     1       1.347   4.750  -0.208  0.00  0.00    +0.047 A 
ATOM     33  C   UNL     1       2.435   3.926   0.032  0.00  0.00    +0.124 A 
ATOM     34 CL   UNL     1      -1.308   2.269  -1.874  0.00  0.00    -0.084 Cl
BRANCH  33  35
ATOM     35  O   UNL     1       3.559   4.431   0.601  0.00  0.00    -0.506 OA
ATOM     36  H   UNL     1       4.205   4.767  -0.035  0.00  0.00    +0.292 HD
ENDBRANCH  33  35
ENDBRANCH  24  28
ENDBRANCH  19  20
ENDBRANCH   1  19
TORSDOF 9
