REMARK  Name = ZINC02150536
REMARK  7 active torsions:
REMARK  status: ('A' for Active; 'I' for Inactive)
REMARK    1  A    between atoms: C_1  and  O_2
REMARK    2  A    between atoms: O_2  and  C_3
REMARK    3  A    between atoms: C_6  and  C_9
REMARK    4  A    between atoms: C_9  and  C_10
REMARK    5  A    between atoms: C_10  and  N_11
REMARK    6  A    between atoms: C_31  and  C_33
REMARK    7  A    between atoms: C_37  and  N_39
REMARK                            x       y       z     vdW  Elec       q    Type
REMARK                         _______ _______ _______ _____ _____    ______ ____
ROOT
ATOM      1  N   UNL     1       1.142  -2.463   7.835  0.00  0.00    -0.291 N 
ATOM      2  C   UNL     1       2.357  -3.260   7.885  0.00  0.00    +0.203 C 
ATOM      3  C   UNL     1       2.911  -3.353   9.270  0.00  0.00    +0.234 C 
ATOM      4  O   UNL     1       3.918  -4.009   9.433  0.00  0.00    -0.274 OA
ATOM      5  N   UNL     1       2.371  -2.765  10.339  0.00  0.00    -0.276 N 
ATOM      6  C   UNL     1       1.206  -1.884  10.264  0.00  0.00    +0.167 C 
ATOM      7  C   UNL     1       0.617  -1.847   8.891  0.00  0.00    +0.237 C 
ATOM      8  O   UNL     1      -0.406  -1.215   8.729  0.00  0.00    -0.274 OA
ATOM      9  C   UNL     1       1.619  -0.467  10.688  0.00  0.00    +0.069 C 
ATOM     10  C   UNL     1       2.451  -0.559  11.941  0.00  0.00    -0.015 A 
ATOM     11  C   UNL     1       2.767   0.491  12.888  0.00  0.00    +0.003 A 
ATOM     12  C   UNL     1       2.425   1.845  12.951  0.00  0.00    +0.010 A 
ATOM     13  C   UNL     1       2.911   2.559  14.018  0.00  0.00    +0.001 A 
ATOM     14  C   UNL     1       3.704   1.977  14.993  0.00  0.00    +0.002 A 
ATOM     15  C   UNL     1       4.059   0.639  14.955  0.00  0.00    +0.026 A 
ATOM     16  C   UNL     1       3.580  -0.111  13.883  0.00  0.00    +0.047 A 
ATOM     17  N   UNL     1       3.733  -1.424  13.543  0.00  0.00    -0.356 N 
ATOM     18  H   UNL     1       4.245  -2.075  14.048  0.00  0.00    +0.166 HD
ATOM     19  C   UNL     1       3.053  -1.684  12.383  0.00  0.00    +0.046 A 
ATOM     20  C   UNL     1       2.963  -3.015  11.671  0.00  0.00    +0.154 C 
ENDROOT
BRANCH  20  21
ATOM     21  C   UNL     1       4.339  -3.608  11.516  0.00  0.00    -0.019 A 
ATOM     22  C   UNL     1       5.363  -2.850  10.979  0.00  0.00    +0.006 A 
ATOM     23  C   UNL     1       6.625  -3.395  10.836  0.00  0.00    +0.003 A 
ATOM     24  C   UNL     1       6.864  -4.698  11.232  0.00  0.00    +0.033 A 
ATOM     25  C   UNL     1       5.841  -5.456  11.770  0.00  0.00    +0.127 A 
ATOM     26  C   UNL     1       4.580  -4.909  11.916  0.00  0.00    +0.038 A 
BRANCH  25  27
ATOM     27  N   UNL     1       6.097  -6.851  12.193  0.00  0.00    +0.056 N 
ATOM     28  O   UNL     1       7.209  -7.331  12.067  0.00  0.00    -0.126 OA
ATOM     29  O   UNL     1       5.196  -7.519  12.666  0.00  0.00    -0.126 OA
ENDBRANCH  25  27
ENDBRANCH  20  21
BRANCH   1  30
ATOM     30  C   UNL     1       0.454  -2.336   6.548  0.00  0.00    +0.113 C 
BRANCH  30  31
ATOM     31  C   UNL     1       0.992  -1.114   5.800  0.00  0.00    +0.054 C 
BRANCH  31  35
ATOM     32  C   UNL     1      -1.016  -0.742   2.047  0.00  0.00    +0.120 A 
ATOM     33  C   UNL     1       0.146  -1.493   2.141  0.00  0.00    +0.046 A 
ATOM     34  C   UNL     1       0.796  -1.608   3.355  0.00  0.00    +0.007 A 
ATOM     35  C   UNL     1       0.284  -0.983   4.477  0.00  0.00    -0.046 A 
ATOM     36  C   UNL     1      -0.878  -0.238   4.386  0.00  0.00    +0.007 A 
ATOM     37  C   UNL     1      -1.529  -0.116   3.174  0.00  0.00    +0.046 A 
BRANCH  32  39
ATOM     38  C   UNL     1      -1.071  -1.294  -0.265  0.00  0.00    +0.277 C 
ATOM     39  O   UNL     1      -1.655  -0.623   0.853  0.00  0.00    -0.495 OA
ENDBRANCH  32  39
ENDBRANCH  31  35
ENDBRANCH  30  31
ENDBRANCH   1  30
TORSDOF 6
