REMARK  Name = ZINC63362466
REMARK  11 active torsions:
REMARK  status: ('A' for Active; 'I' for Inactive)
REMARK    1  A    between atoms: C_1  and  C_2
REMARK    2  A    between atoms: C_2  and  C_4
REMARK    3  A    between atoms: C_2  and  N_10
REMARK    4  A    between atoms: C_4  and  C_5
REMARK    5  A    between atoms: C_5  and  C_6
REMARK    6  A    between atoms: C_6  and  C_7
REMARK    7  A    between atoms: C_7  and  C_8
REMARK    8  A    between atoms: C_7  and  C_9
REMARK    9  A    between atoms: C_11  and  C_13
REMARK   10  A    between atoms: C_18  and  N_19
REMARK   11  A    between atoms: C_22  and  C_38
REMARK                            x       y       z     vdW  Elec       q    Type
REMARK                         _______ _______ _______ _____ _____    ______ ____
ROOT
ATOM      1  N   UNL     1      -3.477  -0.985   3.609  0.00  0.00    -0.192 N 
ATOM      2  C   UNL     1      -3.529   0.237   4.177  0.00  0.00    +0.253 C 
ATOM      3  O   UNL     1      -4.081   1.224   3.740  0.00  0.00    -0.272 OA
ATOM      4  C   UNL     1      -2.757   0.121   5.474  0.00  0.00    +0.137 C 
ATOM      5  C   UNL     1      -1.548   1.063   5.452  0.00  0.00    +0.139 C 
ATOM      6  C   UNL     1      -0.558   0.518   6.476  0.00  0.00    -0.034 C 
ATOM      7  C   UNL     1      -0.337   1.502   7.342  0.00  0.00    -0.001 A 
ATOM      8  C   UNL     1       0.561   1.596   8.504  0.00  0.00    +0.010 A 
ATOM      9  C   UNL     1       0.530   2.769   9.191  0.00  0.00    +0.001 A 
ATOM     10  C   UNL     1      -0.293   3.844   8.841  0.00  0.00    +0.002 A 
ATOM     11  C   UNL     1      -1.145   3.846   7.785  0.00  0.00    +0.026 A 
ATOM     12  C   UNL     1      -1.200   2.668   6.984  0.00  0.00    +0.043 A 
ATOM     13  N   UNL     1      -1.909   2.407   5.911  0.00  0.00    -0.375 N 
ATOM     14  C   UNL     1      -0.046  -0.902   6.458  0.00  0.00    +0.052 C 
ATOM     15  C   UNL     1      -1.277  -1.828   6.390  0.00  0.00    +0.115 C 
ATOM     16  N   UNL     1      -2.227  -1.260   5.428  0.00  0.00    -0.268 N 
ATOM     17  C   UNL     1      -2.758  -1.843   4.346  0.00  0.00    +0.317 C 
ATOM     18  O   UNL     1      -2.603  -3.014   4.063  0.00  0.00    -0.252 OA
ATOM     19  C   UNL     1      -3.651   0.353   6.694  0.00  0.00    +0.044 C 
ATOM     20  H   UNL     1      -2.559   2.993   5.493  0.00  0.00    +0.160 HD
ENDROOT
BRANCH   1  26
ATOM     21  C   UNL     1      -3.413  -1.166   1.191  0.00  0.00    +0.059 A 
ATOM     22  C   UNL     1      -4.045  -1.507  -0.007  0.00  0.00    +0.015 A 
ATOM     23  C   UNL     1      -5.338  -1.984   0.010  0.00  0.00    +0.001 A 
ATOM     24  C   UNL     1      -6.015  -2.127   1.210  0.00  0.00    +0.002 A 
ATOM     25  C   UNL     1      -5.403  -1.794   2.401  0.00  0.00    +0.025 A 
ATOM     26  C   UNL     1      -4.100  -1.317   2.404  0.00  0.00    +0.058 A 
BRANCH  21  28
ATOM     27  N   UNL     1      -1.372  -0.511   0.012  0.00  0.00    -0.309 N 
ATOM     28  C   UNL     1      -2.029  -0.655   1.181  0.00  0.00    +0.246 C 
ATOM     29  O   UNL     1      -1.480  -0.364   2.226  0.00  0.00    -0.270 OA
ATOM     30  H   UNL     1      -1.810  -0.743  -0.822  0.00  0.00    +0.149 HD
BRANCH  27  32
ATOM     31  C   UNL     1      -0.019   1.526   0.010  0.00  0.00    +0.028 C 
ATOM     32  C   UNL     1       0.002  -0.004   0.002  0.00  0.00    +0.070 C 
BRANCH  32  33
ATOM     33  C   UNL     1       0.718  -0.497  -1.257  0.00  0.00    +0.022 C 
BRANCH  33  34
ATOM     34  C   UNL     1       0.849  -2.021  -1.205  0.00  0.00    +0.002 C 
BRANCH  34  35
ATOM     35  C   UNL     1       1.565  -2.514  -2.464  0.00  0.00    +0.003 C 
BRANCH  35  36
ATOM     36  C   UNL     1       1.696  -4.038  -2.412  0.00  0.00    -0.017 C 
ATOM     37  C   UNL     1       0.305  -4.671  -2.463  0.00  0.00    +0.007 C 
ATOM     38  C   UNL     1       2.521  -4.520  -3.607  0.00  0.00    +0.007 C 
ENDBRANCH  35  36
ENDBRANCH  34  35
ENDBRANCH  33  34
ENDBRANCH  32  33
ENDBRANCH  27  32
ENDBRANCH  21  28
ENDBRANCH   1  26
TORSDOF 7
