REMARK  Name = ZINC35676093
REMARK  8 active torsions:
REMARK  status: ('A' for Active; 'I' for Inactive)
REMARK    1  A    between atoms: C_1  and  C_2
REMARK    2  A    between atoms: C_2  and  C_3
REMARK    3  A    between atoms: C_3  and  C_5
REMARK    4  A    between atoms: C_3  and  N_8
REMARK    5  A    between atoms: C_5  and  C_6
REMARK    6  A    between atoms: C_6  and  N_7
REMARK    7  A    between atoms: C_16  and  C_21
REMARK    8  A    between atoms: C_18  and  C_20
REMARK                            x       y       z     vdW  Elec       q    Type
REMARK                         _______ _______ _______ _____ _____    ______ ____
ROOT
ATOM      1  N   UNL     1      -0.110  -0.221  -2.538  0.00  0.00    +0.384 N 
ATOM      2  C   UNL     1       0.671  -0.708  -3.682  0.00  0.00    -0.059 C 
ATOM      3  C   UNL     1      -0.172  -0.606  -4.957  0.00  0.00    +0.089 C 
ATOM      4  N   UNL     1      -0.647   0.780  -5.092  0.00  0.00    -0.303 N 
ATOM      5  C   UNL     1      -1.300   1.405  -3.932  0.00  0.00    +0.089 C 
ATOM      6  C   UNL     1      -0.403   1.208  -2.705  0.00  0.00    -0.059 C 
ATOM      7  C   UNL     1      -0.484   1.476  -6.277  0.00  0.00    +0.218 A 
ATOM      8  N   UNL     1       0.104   0.877  -7.303  0.00  0.00    -0.220 NA
ATOM      9  C   UNL     1       0.275   1.514  -8.450  0.00  0.00    +0.044 A 
ATOM     10  C   UNL     1      -0.169   2.821  -8.570  0.00  0.00    +0.046 A 
ATOM     11  C   UNL     1      -0.780   3.417  -7.478  0.00  0.00    +0.044 A 
ATOM     12  N   UNL     1      -0.925   2.722  -6.362  0.00  0.00    -0.220 NA
ATOM     13  C   UNL     1      -1.279   4.836  -7.564  0.00  0.00    +0.066 C 
ATOM     14  C   UNL     1       0.946   0.826  -9.611  0.00  0.00    +0.066 C 
ATOM     15  H   UNL     1      -0.976  -0.736  -2.482  0.00  0.00    -0.081 HD
ENDROOT
BRANCH   1  16
ATOM     16  C   UNL     1       0.657  -0.420  -1.302  0.00  0.00    -0.070 C 
BRANCH  16  18
ATOM     17  C   UNL     1       3.046  -0.588  -2.015  0.00  0.00    +0.002 C 
ATOM     18  C   UNL     1       1.987   0.330  -1.400  0.00  0.00    -0.019 C 
ENDBRANCH  16  18
BRANCH  16  19
ATOM     19  C   UNL     1      -0.143   0.114  -0.113  0.00  0.00    -0.035 C 
BRANCH  19  20
ATOM     20  C   UNL     1      -1.435  -0.692   0.036  0.00  0.00    -0.088 C 
BRANCH  20  21
ATOM     21  N   UNL     1      -2.252  -0.114   1.112  0.00  0.00    +0.378 N 
ATOM     22  H   UNL     1      -2.476   0.844   0.886  0.00  0.00    -0.090 HD
ATOM     23  H   UNL     1      -3.104  -0.645   1.210  0.00  0.00    -0.090 HD
ATOM     24  H   UNL     1      -1.736  -0.143   1.978  0.00  0.00    -0.090 HD
ENDBRANCH  20  21
ENDBRANCH  19  20
ENDBRANCH  16  19
ENDBRANCH   1  16
TORSDOF 5
