REMARK  Name = ZINC39425760
REMARK  11 active torsions:
REMARK  status: ('A' for Active; 'I' for Inactive)
REMARK    1  A    between atoms: C_1  and  C_2
REMARK    2  A    between atoms: C_2  and  C_3
REMARK    3  A    between atoms: C_3  and  C_5
REMARK    4  A    between atoms: C_3  and  S_19
REMARK    5  A    between atoms: N_7  and  C_8
REMARK    6  A    between atoms: C_9  and  C_17
REMARK    7  A    between atoms: S_19  and  C_20
REMARK    8  A    between atoms: C_21  and  C_29
REMARK    9  A    between atoms: C_22  and  C_28
REMARK   10  A    between atoms: C_23  and  C_27
REMARK   11  A    between atoms: C_24  and  C_26
REMARK                            x       y       z     vdW  Elec       q    Type
REMARK                         _______ _______ _______ _____ _____    ______ ____
ROOT
ATOM      1  C   UNL     1      -1.416  -0.606   0.114  0.00  0.00    +0.139 C 
ENDROOT
BRANCH   1   2
ATOM      2  C   UNL     1      -1.433  -2.099   0.316  0.00  0.00    +0.231 C 
ATOM      3  O   UNL     1      -1.592  -2.838  -0.632  0.00  0.00    -0.274 OA
ATOM      4  N   UNL     1      -1.272  -2.614   1.552  0.00  0.00    -0.278 N 
ATOM      5  H   UNL     1      -1.145  -2.023   2.310  0.00  0.00    +0.155 HD
BRANCH   4   6
ATOM      6  C   UNL     1      -1.288  -3.989   1.738  0.00  0.00    +0.090 A 
ATOM      7  C   UNL     1      -1.146  -4.689   2.925  0.00  0.00    +0.084 A 
ATOM      8  C   UNL     1      -1.200  -6.138   2.853  0.00  0.00    -0.018 A 
ATOM      9  C   UNL     1      -1.387  -6.622   1.605  0.00  0.00    -0.004 A 
ATOM     10  S   UNL     1      -1.492  -5.186   0.578  0.00  0.00    -0.077 S 
ATOM     11  C   UNL     1      -1.485  -8.062   1.204  0.00  0.00    +0.043 C 
ATOM     12  C   UNL     1      -0.966  -8.922   2.365  0.00  0.00    +0.005 C 
ATOM     13  C   UNL     1      -1.616  -8.444   3.666  0.00  0.00    +0.005 C 
ATOM     14  C   UNL     1      -1.065  -7.068   4.049  0.00  0.00    +0.037 C 
BRANCH   7  15
ATOM     15  C   UNL     1      -0.952  -4.012   4.172  0.00  0.00    +0.102 C 
ATOM     16  N   UNL     1      -0.799  -3.474   5.161  0.00  0.00    -0.191 NA
ENDBRANCH   7  15
ENDBRANCH   4   6
ENDBRANCH   1   2
BRANCH   1  18
ATOM     17  C   UNL     1       0.058   1.400  -0.100  0.00  0.00    +0.005 C 
ATOM     18  C   UNL     1       0.030  -0.129  -0.035  0.00  0.00    +0.020 C 
ENDBRANCH   1  18
BRANCH   1  19
ATOM     19  S   UNL     1      -2.348  -0.188  -1.385  0.00  0.00    -0.092 S 
BRANCH  19  20
ATOM     20  C   UNL     1      -4.016  -0.578  -0.972  0.00  0.00    +0.116 A 
ATOM     21  C   UNL     1      -5.043  -0.332  -1.902  0.00  0.00    +0.087 A 
ATOM     22  C   UNL     1      -6.359  -0.651  -1.551  0.00  0.00    -0.026 A 
ATOM     23  C   UNL     1      -6.593  -1.196  -0.300  0.00  0.00    -0.025 A 
ATOM     24  C   UNL     1      -5.531  -1.408   0.560  0.00  0.00    +0.043 A 
ATOM     25  N   UNL     1      -4.296  -1.106   0.209  0.00  0.00    -0.244 NA
ATOM     26  C   UNL     1      -5.790  -2.002   1.921  0.00  0.00    +0.066 C 
ATOM     27  C   UNL     1      -7.995  -1.554   0.121  0.00  0.00    +0.046 C 
ATOM     28  C   UNL     1      -7.495  -0.406  -2.511  0.00  0.00    +0.045 C 
BRANCH  21  29
ATOM     29  C   UNL     1      -4.746   0.234  -3.183  0.00  0.00    +0.102 C 
ATOM     30  N   UNL     1      -4.511   0.683  -4.200  0.00  0.00    -0.191 NA
ENDBRANCH  21  29
ENDBRANCH  19  20
ENDBRANCH   1  19
TORSDOF 7
