REMARK  Name = ZINC47791918
REMARK  11 active torsions:
REMARK  status: ('A' for Active; 'I' for Inactive)
REMARK    1  A    between atoms: C_1  and  C_2
REMARK    2  A    between atoms: N_5  and  C_8
REMARK    3  A    between atoms: C_8  and  C_9
REMARK    4  A    between atoms: C_14  and  C_15
REMARK    5  A    between atoms: C_15  and  N_16
REMARK    6  A    between atoms: N_19  and  C_20
REMARK    7  A    between atoms: C_20  and  C_21
REMARK    8  A    between atoms: C_21  and  C_22
REMARK    9  A    between atoms: C_21  and  N_27
REMARK   10  A    between atoms: N_27  and  C_28
REMARK   11  A    between atoms: N_27  and  C_29
REMARK                            x       y       z     vdW  Elec       q    Type
REMARK                         _______ _______ _______ _____ _____    ______ ____
ROOT
ATOM      1  N   UNL     1      -3.867  -4.931   4.244  0.00  0.00    -0.295 N 
ATOM      2  C   UNL     1      -5.128  -4.723   3.817  0.00  0.00    +0.300 C 
ATOM      3  O   UNL     1      -5.656  -3.641   3.984  0.00  0.00    -0.253 OA
ATOM      4  N   UNL     1      -5.804  -5.715   3.205  0.00  0.00    -0.301 N 
ATOM      5  H   UNL     1      -3.446  -5.795   4.111  0.00  0.00    +0.151 HD
ATOM      6  H   UNL     1      -5.383  -6.579   3.072  0.00  0.00    +0.150 HD
ENDROOT
BRANCH   1   7
ATOM      7  C   UNL     1      -3.132  -3.853   4.909  0.00  0.00    +0.141 C 
BRANCH   7  13
ATOM      8  C   UNL     1      -0.756  -4.387   4.332  0.00  0.00    -0.059 A 
ATOM      9  C   UNL     1       0.508  -4.828   4.678  0.00  0.00    +0.002 A 
ATOM     10  C   UNL     1       0.769  -5.228   5.976  0.00  0.00    +0.000 A 
ATOM     11  C   UNL     1      -0.233  -5.185   6.927  0.00  0.00    +0.000 A 
ATOM     12  C   UNL     1      -1.496  -4.743   6.582  0.00  0.00    +0.005 A 
ATOM     13  C   UNL     1      -1.756  -4.340   5.285  0.00  0.00    -0.029 A 
BRANCH   8  14
ATOM     14  C   UNL     1      -1.041  -3.951   2.918  0.00  0.00    -0.043 C 
BRANCH  14  19
ATOM     15  C   UNL     1      -0.078   1.550   1.767  0.00  0.00    +0.007 C 
ATOM     16  C   UNL     1      -0.033   0.021   1.752  0.00  0.00    -0.018 C 
ATOM     17  C   UNL     1      -1.425  -0.529   1.427  0.00  0.00    -0.016 C 
ATOM     18  C   UNL     1      -1.391  -2.058   1.491  0.00  0.00    -0.078 C 
ATOM     19  N   UNL     1      -0.997  -2.485   2.839  0.00  0.00    +0.382 N 
ATOM     20  C   UNL     1       0.366  -2.022   3.130  0.00  0.00    -0.078 C 
ATOM     21  C   UNL     1       0.399  -0.492   3.128  0.00  0.00    -0.016 C 
ATOM     22  H   UNL     1      -1.635  -2.095   3.515  0.00  0.00    -0.081 HD
ENDBRANCH  14  19
ENDBRANCH   8  14
ENDBRANCH   7  13
ENDBRANCH   1   7
BRANCH   4  23
ATOM     23  C   UNL     1      -7.175  -5.489   2.740  0.00  0.00    +0.098 C 
BRANCH  23  24
ATOM     24  C   UNL     1      -7.663  -6.720   1.974  0.00  0.00    +0.016 C 
BRANCH  24  25
ATOM     25  C   UNL     1      -7.760  -7.893   2.915  0.00  0.00    +0.093 A 
ATOM     26  C   UNL     1      -8.889  -8.354   3.484  0.00  0.00    +0.043 A 
ATOM     27  C   UNL     1      -8.521  -9.458   4.287  0.00  0.00    +0.041 A 
ATOM     28  C   UNL     1      -7.190  -9.605   4.161  0.00  0.00    +0.195 A 
ATOM     29  O   UNL     1      -6.735  -8.658   3.324  0.00  0.00    -0.469 OA
ENDBRANCH  24  25
BRANCH  24  30
ATOM     30  N   UNL     1      -6.715  -7.034   0.897  0.00  0.00    +0.384 N 
ATOM     31  C   UNL     1      -7.179  -8.222   0.166  0.00  0.00    -0.096 C 
ATOM     32  C   UNL     1      -6.628  -5.895  -0.026  0.00  0.00    -0.096 C 
ATOM     33  H   UNL     1      -5.805  -7.217   1.292  0.00  0.00    -0.082 HD
ENDBRANCH  24  30
ENDBRANCH  23  24
ENDBRANCH   4  23
TORSDOF 8
