REMARK  Name = ZINC67128972
REMARK  5 active torsions:
REMARK  status: ('A' for Active; 'I' for Inactive)
REMARK    1  A    between atoms: C_3  and  C_6
REMARK    2  A    between atoms: C_12  and  C_14
REMARK    3  A    between atoms: C_14  and  N_15
REMARK    4  A    between atoms: C_17  and  O_25
REMARK    5  A    between atoms: C_20  and  C_22
REMARK                            x       y       z     vdW  Elec       q    Type
REMARK                         _______ _______ _______ _____ _____    ______ ____
ROOT
ATOM      1  C   UNL     1       5.314  -0.019  -3.043  0.00  0.00    +0.020 C 
ENDROOT
BRANCH   1   7
ATOM      2  C   UNL     1       3.761   1.845  -0.024  0.00  0.00    +0.113 C 
ATOM      3  C   UNL     1       4.368   1.738   1.390  0.00  0.00    +0.029 C 
ATOM      4  C   UNL     1       5.831   1.306   1.108  0.00  0.00    +0.021 C 
ATOM      5  C   UNL     1       5.651   0.382  -0.122  0.00  0.00    +0.108 C 
ATOM      6  N   UNL     1       4.582   1.018  -0.919  0.00  0.00    -0.295 N 
ATOM      7  C   UNL     1       4.390   0.865  -2.245  0.00  0.00    +0.200 C 
ATOM      8  O   UNL     1       3.474   1.438  -2.795  0.00  0.00    -0.278 OA
BRANCH   2  11
ATOM      9  C   UNL     1      -0.016   1.351   0.009  0.00  0.00    +0.008 A 
ATOM     10  C   UNL     1       1.183   2.038   0.002  0.00  0.00    +0.013 A 
ATOM     11  C   UNL     1       2.343   1.336  -0.013  0.00  0.00    +0.010 A 
ATOM     12  S   UNL     1       1.754  -0.349  -0.017  0.00  0.00    -0.100 S 
ATOM     13  C   UNL     1       0.002  -0.004   0.002  0.00  0.00    +0.045 A 
ENDBRANCH   2  11
ENDBRANCH   1   7
BRANCH   1  14
ATOM     14  N   UNL     1       4.896  -0.018  -4.451  0.00  0.00    +0.395 N 
ATOM     15  C   UNL     1       5.142   1.309  -5.056  0.00  0.00    -0.045 C 
ATOM     16  C   UNL     1       5.566   1.069  -6.516  0.00  0.00    +0.097 C 
ATOM     17  C   UNL     1       5.575  -0.468  -6.687  0.00  0.00    +0.023 C 
ATOM     18  C   UNL     1       5.721  -0.977  -5.231  0.00  0.00    +0.022 C 
ATOM     19  H   UNL     1       3.919  -0.260  -4.525  0.00  0.00    -0.080 HD
BRANCH  18  20
ATOM     20  C   UNL     1       5.176  -2.376  -5.099  0.00  0.00    +0.197 C 
ATOM     21  O   UNL     1       4.190  -2.582  -4.423  0.00  0.00    -0.278 OA
ATOM     22  N   UNL     1       5.784  -3.398  -5.733  0.00  0.00    -0.331 N 
ATOM     23  H   UNL     1       6.572  -3.233  -6.274  0.00  0.00    +0.145 HD
ATOM     24  H   UNL     1       5.433  -4.299  -5.649  0.00  0.00    +0.145 HD
ENDBRANCH  18  20
BRANCH  16  25
ATOM     25  O   UNL     1       4.624   1.663  -7.411  0.00  0.00    -0.394 OA
ATOM     26  H   UNL     1       4.840   1.544  -8.346  0.00  0.00    +0.210 HD
ENDBRANCH  16  25
ENDBRANCH   1  14
TORSDOF 5
