REMARK  Name = ZINC14992266
REMARK  11 active torsions:
REMARK  status: ('A' for Active; 'I' for Inactive)
REMARK    1  A    between atoms: C_1  and  C_2
REMARK    2  A    between atoms: C_2  and  C_3
REMARK    3  A    between atoms: C_3  and  C_4
REMARK    4  A    between atoms: C_4  and  C_19
REMARK    5  A    between atoms: N_7  and  C_11
REMARK    6  A    between atoms: C_11  and  C_12
REMARK    7  A    between atoms: C_12  and  C_13
REMARK    8  A    between atoms: C_24  and  C_25
REMARK    9  A    between atoms: C_24  and  N_74
REMARK   10  A    between atoms: C_33  and  C_34
REMARK   11  A    between atoms: C_33  and  C_35
REMARK                            x       y       z     vdW  Elec       q    Type
REMARK                         _______ _______ _______ _____ _____    ______ ____
ROOT
ATOM      1  C   UNL     1       0.601  -0.110  -4.242  0.00  0.00    +0.115 C 
ATOM      2  C   UNL     1      -0.344  -0.043  -3.059  0.00  0.00    +0.247 C 
ATOM      3  O   UNL     1      -1.176  -0.865  -2.738  0.00  0.00    -0.273 OA
ATOM      4  N   UNL     1      -0.067   1.120  -2.437  0.00  0.00    -0.224 N 
ATOM      5  C   UNL     1       0.908   1.793  -3.060  0.00  0.00    +0.309 C 
ATOM      6  O   UNL     1       1.328   2.871  -2.688  0.00  0.00    -0.252 OA
ATOM      7  N   UNL     1       1.372   1.141  -4.141  0.00  0.00    -0.285 N 
ATOM      8  H   UNL     1       2.076   1.438  -4.739  0.00  0.00    +0.151 HD
ENDROOT
BRANCH   1   9
ATOM      9  C   UNL     1      -0.184  -0.157  -5.555  0.00  0.00    +0.018 C 
ATOM     10  C   UNL     1       0.792  -0.198  -6.734  0.00  0.00    -0.013 C 
ATOM     11  C   UNL     1       0.003  -0.183  -8.045  0.00  0.00    -0.078 C 
ATOM     12  C   UNL     1      -1.796   1.071  -7.014  0.00  0.00    -0.078 C 
ATOM     13  C   UNL     1      -1.060   1.093  -5.672  0.00  0.00    -0.013 C 
ATOM     14  N   UNL     1      -0.801   1.056  -8.107  0.00  0.00    +0.382 N 
ATOM     15  H   UNL     1      -0.176   1.864  -7.999  0.00  0.00    -0.081 HD
BRANCH  14  16
ATOM     16  C   UNL     1      -1.484   1.149  -9.413  0.00  0.00    -0.047 C 
BRANCH  16  17
ATOM     17  C   UNL     1      -0.449   1.352 -10.489  0.00  0.00    -0.086 C 
ATOM     18  C   UNL     1       0.028   0.340 -11.177  0.00  0.00    -0.029 C 
ATOM     19  C   UNL     1       1.055   0.588 -12.255  0.00  0.00    +0.031 C 
ATOM     20  C   UNL     1       1.429   2.076 -12.280  0.00  0.00    -0.000 C 
ATOM     21  C   UNL     1       0.165   2.959 -12.338  0.00  0.00    +0.012 C 
ATOM     22  C   UNL     1       0.089   2.735 -10.816  0.00  0.00    +0.019 C 
ATOM     23  C   UNL     1       1.634   2.664 -10.874  0.00  0.00    -0.025 C 
ATOM     24  C   UNL     1       2.318   4.032 -10.867  0.00  0.00    +0.012 C 
ATOM     25  C   UNL     1       2.248   1.680  -9.875  0.00  0.00    +0.012 C 
ENDBRANCH  16  17
ENDBRANCH  14  16
ENDBRANCH   1   9
BRANCH   1  26
ATOM     26  C   UNL     1       1.525  -1.324  -4.126  0.00  0.00    +0.035 C 
BRANCH  26  28
ATOM     27  C   UNL     1       3.259  -2.439  -2.715  0.00  0.00    +0.004 C 
ATOM     28  C   UNL     1       2.335  -1.225  -2.832  0.00  0.00    -0.001 C 
ENDBRANCH  26  28
ENDBRANCH   1  26
BRANCH   4  29
ATOM     29  C   UNL     1      -0.753   1.593  -1.232  0.00  0.00    +0.124 C 
BRANCH  29  30
ATOM     30  C   UNL     1      -0.013   1.086   0.008  0.00  0.00    +0.075 C 
BRANCH  30  31
ATOM     31  C   UNL     1      -0.718   1.572   1.248  0.00  0.00    +0.043 A 
ATOM     32  C   UNL     1      -1.127   0.660   2.203  0.00  0.00    +0.023 A 
ATOM     33  C   UNL     1      -1.775   1.117   3.340  0.00  0.00    +0.003 A 
ATOM     34  C   UNL     1      -1.988   2.481   3.475  0.00  0.00    +0.020 A 
ATOM     35  C   UNL     1      -1.550   3.333   2.478  0.00  0.00    +0.111 A 
ATOM     36  N   UNL     1      -0.933   2.862   1.412  0.00  0.00    -0.260 NA
ENDBRANCH  30  31
ENDBRANCH  29  30
ENDBRANCH   4  29
TORSDOF 8
