REMARK  Name = ZINC39687495
REMARK  5 active torsions:
REMARK  status: ('A' for Active; 'I' for Inactive)
REMARK    1  A    between atoms: C_1  and  C_2
REMARK    2  A    between atoms: C_5  and  C_9
REMARK    3  A    between atoms: C_6  and  C_8
REMARK    4  A    between atoms: C_13  and  C_22
REMARK    5  A    between atoms: N_24  and  C_25
REMARK                            x       y       z     vdW  Elec       q    Type
REMARK                         _______ _______ _______ _____ _____    ______ ____
ROOT
ATOM      1  C   UNL     1       0.153  -4.200  -0.068  0.00  0.00    +0.247 C 
ATOM      2  O   UNL     1       0.264  -4.762   1.004  0.00  0.00    -0.270 OA
ATOM      3  N   UNL     1       0.130  -4.920  -1.208  0.00  0.00    -0.296 N 
ATOM      4  C   UNL     1       0.106  -4.416  -2.601  0.00  0.00    +0.121 C 
ATOM      5  C   UNL     1       1.037  -5.372  -3.379  0.00  0.00    +0.100 C 
ATOM      6  C   UNL     1       1.044  -6.670  -2.554  0.00  0.00    -0.004 C 
ATOM      7  C   UNL     1       0.131  -6.396  -1.350  0.00  0.00    +0.115 C 
ATOM      8  C   UNL     1       2.458  -6.985  -2.076  0.00  0.00    -0.010 C 
ATOM      9  C   UNL     1       2.448  -8.309  -1.307  0.00  0.00    -0.082 C 
ATOM     10  N   UNL     1       1.956  -9.381  -2.180  0.00  0.00    +0.379 N 
ATOM     11  C   UNL     1       0.563  -9.117  -2.561  0.00  0.00    -0.082 C 
ATOM     12  C   UNL     1       0.492  -7.827  -3.383  0.00  0.00    -0.010 C 
ATOM     13  H   UNL     1       2.527  -9.426  -3.011  0.00  0.00    -0.086 HD
ATOM     14  H   UNL     1       2.008 -10.262  -1.691  0.00  0.00    -0.086 HD
ENDROOT
BRANCH   1  19
ATOM     15  C   UNL     1      -0.275   1.535  -0.280  0.00  0.00    +0.044 C 
ATOM     16  C   UNL     1      -0.163   0.033  -0.225  0.00  0.00    -0.050 A 
ATOM     17  C   UNL     1      -1.070  -0.751  -0.915  0.00  0.00    +0.004 A 
ATOM     18  C   UNL     1      -0.973  -2.127  -0.869  0.00  0.00    +0.013 A 
ATOM     19  C   UNL     1       0.043  -2.727  -0.123  0.00  0.00    +0.040 A 
ATOM     20  C   UNL     1       0.955  -1.930   0.571  0.00  0.00    -0.038 A 
ATOM     21  C   UNL     1       0.850  -0.555   0.512  0.00  0.00    +0.007 A 
ATOM     22  C   UNL     1       2.055  -2.569   1.378  0.00  0.00    +0.044 C 
ENDBRANCH   1  19
BRANCH   5  23
ATOM     23  C   UNL     1       2.426  -4.796  -3.466  0.00  0.00    +0.218 C 
ATOM     24  O   UNL     1       2.813  -4.015  -2.623  0.00  0.00    -0.275 OA
ATOM     25  N   UNL     1       3.240  -5.149  -4.482  0.00  0.00    -0.312 N 
ATOM     26  H   UNL     1       2.930  -5.774  -5.156  0.00  0.00    +0.149 HD
BRANCH  25  27
ATOM     27  C   UNL     1       4.591  -4.590  -4.567  0.00  0.00    +0.076 C 
ATOM     28  C   UNL     1       4.537  -3.233  -5.274  0.00  0.00    +0.041 C 
ATOM     29  C   UNL     1       5.946  -2.635  -5.330  0.00  0.00    +0.108 C 
ATOM     30  N   UNL     1       6.848  -3.608  -5.960  0.00  0.00    -0.317 N 
ATOM     31  C   UNL     1       6.909  -4.971  -5.415  0.00  0.00    +0.108 C 
ATOM     32  C   UNL     1       5.489  -5.543  -5.358  0.00  0.00    +0.041 C 
ATOM     33  C   UNL     1       7.628  -3.247  -7.052  0.00  0.00    +0.099 A 
ATOM     34  C   UNL     1       8.362  -4.218  -7.728  0.00  0.00    +0.042 A 
ATOM     35  C   UNL     1       9.134  -3.844  -8.812  0.00  0.00    +0.005 A 
ATOM     36  C   UNL     1       9.148  -2.507  -9.187  0.00  0.00    +0.018 A 
ATOM     37  C   UNL     1       8.396  -1.597  -8.472  0.00  0.00    +0.084 A 
ATOM     38  N   UNL     1       7.664  -1.983  -7.444  0.00  0.00    -0.350 N 
ATOM     39  H   UNL     1       7.141  -1.323  -6.961  0.00  0.00    +0.166 HD
ENDBRANCH  25  27
ENDBRANCH   5  23
TORSDOF 3
