REMARK  Name = ZINC05675366
REMARK  6 active torsions:
REMARK  status: ('A' for Active; 'I' for Inactive)
REMARK    1  A    between atoms: C_1  and  O_2
REMARK    2  A    between atoms: O_2  and  C_3
REMARK    3  A    between atoms: C_6  and  N_7
REMARK    4  A    between atoms: N_7  and  N_8
REMARK    5  A    between atoms: N_8  and  C_9
REMARK    6  A    between atoms: C_12  and  N_15
REMARK                            x       y       z     vdW  Elec       q    Type
REMARK                         _______ _______ _______ _____ _____    ______ ____
ROOT
ATOM      1  N   UNL     1       3.035  -0.365   5.157  0.00  0.00    -0.273 N 
ATOM      2  H   UNL     1       3.076  -1.334   5.191  0.00  0.00    +0.169 HD
ENDROOT
BRANCH   1   6
ATOM      3  C   UNL     1       0.626  -0.619   1.043  0.00  0.00    +0.169 C 
ATOM      4  C   UNL     1       1.191   0.124   2.032  0.00  0.00    +0.059 C 
ATOM      5  C   UNL     1       1.839  -0.517   3.112  0.00  0.00    -0.005 C 
ATOM      6  C   UNL     1       2.420   0.244   4.132  0.00  0.00    +0.095 C 
ATOM      7  C   UNL     1       1.898  -1.927   3.162  0.00  0.00    +0.033 C 
ATOM      8  C   UNL     1       1.333  -2.666   2.171  0.00  0.00    +0.092 C 
ATOM      9  C   UNL     1       0.683  -2.028   1.099  0.00  0.00    +0.238 C 
ATOM     10  O   UNL     1       0.170  -2.697   0.210  0.00  0.00    -0.282 OA
ATOM     11 CL   UNL     1       1.408  -4.399   2.233  0.00  0.00    -0.079 Cl
BRANCH   3  13
ATOM     12  C   UNL     1      -0.017   1.425   0.010  0.00  0.00    +0.277 C 
ATOM     13  O   UNL     1       0.002  -0.004   0.002  0.00  0.00    -0.491 OA
ENDBRANCH   3  13
ENDBRANCH   1   6
BRANCH   1  14
ATOM     14  N   UNL     1       3.618   0.397   6.178  0.00  0.00    -0.267 N 
ATOM     15  H   UNL     1       3.576   1.365   6.144  0.00  0.00    +0.170 HD
BRANCH  14  16
ATOM     16  C   UNL     1       4.258  -0.237   7.245  0.00  0.00    +0.044 A 
ATOM     17  C   UNL     1       4.322  -1.624   7.293  0.00  0.00    +0.026 A 
ATOM     18  C   UNL     1       4.956  -2.248   8.350  0.00  0.00    +0.034 A 
ATOM     19  C   UNL     1       5.525  -1.494   9.360  0.00  0.00    +0.126 A 
ATOM     20  C   UNL     1       5.462  -0.114   9.315  0.00  0.00    +0.034 A 
ATOM     21  C   UNL     1       4.835   0.517   8.258  0.00  0.00    +0.026 A 
BRANCH  19  22
ATOM     22  N   UNL     1       6.202  -2.167  10.491  0.00  0.00    +0.056 N 
ATOM     23  O   UNL     1       6.257  -3.374  10.532  0.00  0.00    -0.126 OA
ATOM     24  O   UNL     1       6.700  -1.509  11.375  0.00  0.00    -0.126 OA
ENDBRANCH  19  22
ENDBRANCH  14  16
ENDBRANCH   1  14
TORSDOF 5
