REMARK  Name = ZINC04252751
REMARK  9 active torsions:
REMARK  status: ('A' for Active; 'I' for Inactive)
REMARK    1  A    between atoms: C_1  and  N_2
REMARK    2  A    between atoms: N_2  and  C_3
REMARK    3  A    between atoms: N_2  and  C_4
REMARK    4  A    between atoms: C_7  and  C_10
REMARK    5  A    between atoms: C_10  and  N_12
REMARK    6  A    between atoms: N_14  and  C_23
REMARK    7  A    between atoms: C_23  and  C_24
REMARK    8  A    between atoms: C_24  and  O_26
REMARK    9  A    between atoms: O_26  and  C_27
REMARK                            x       y       z     vdW  Elec       q    Type
REMARK                         _______ _______ _______ _____ _____    ______ ____
ROOT
ATOM      1  N   UNL     1      -1.861   4.546   0.043  0.00  0.00    -0.152 NA
ATOM      2  C   UNL     1      -0.936   3.594   0.029  0.00  0.00    +0.167 A 
ATOM      3  N   UNL     1      -1.114   2.245   0.019  0.00  0.00    -0.308 N 
ATOM      4  C   UNL     1      -0.017   1.401   0.010  0.00  0.00    +0.094 A 
ATOM      5  C   UNL     1       0.002  -0.004   0.002  0.00  0.00    +0.148 A 
ATOM      6  C   UNL     1       1.195  -0.691  -0.013  0.00  0.00    +0.040 A 
ATOM      7  C   UNL     1       2.408  -0.022  -0.021  0.00  0.00    +0.004 A 
ATOM      8  C   UNL     1       2.417   1.361  -0.013  0.00  0.00    +0.017 A 
ATOM      9  C   UNL     1       1.226   2.049   0.001  0.00  0.00    +0.042 A 
ATOM     10  S   UNL     1       0.789   3.770   0.014  0.00  0.00    -0.052 S 
ATOM     11  F   UNL     1      -1.163  -0.688   0.009  0.00  0.00    -0.203 F 
ENDROOT
BRANCH   1  12
ATOM     12  C   UNL     1      -1.496   5.833   0.045  0.00  0.00    +0.269 C 
ATOM     13  O   UNL     1      -0.314   6.132   0.035  0.00  0.00    -0.268 OA
BRANCH  12  17
ATOM     14  C   UNL     1      -4.456   8.882   0.088  0.00  0.00    +0.029 A 
ATOM     15  C   UNL     1      -3.107   9.224   0.077  0.00  0.00    +0.024 A 
ATOM     16  C   UNL     1      -2.146   8.238   0.063  0.00  0.00    +0.015 A 
ATOM     17  C   UNL     1      -2.526   6.894   0.060  0.00  0.00    +0.039 A 
ATOM     18  C   UNL     1      -3.881   6.554   0.066  0.00  0.00    +0.015 A 
ATOM     19  C   UNL     1      -4.838   7.543   0.085  0.00  0.00    +0.024 A 
BRANCH  14  21
ATOM     20  C   UNL     1      -5.026  11.290   0.104  0.00  0.00    +0.129 C 
ATOM     21  N   UNL     1      -5.426   9.880   0.101  0.00  0.00    -0.336 N 
ATOM     22  C   UNL     1      -6.846   9.522   0.113  0.00  0.00    +0.129 C 
ENDBRANCH  14  21
ENDBRANCH  12  17
ENDBRANCH   1  12
BRANCH   3  23
ATOM     23  C   UNL     1      -2.468   1.685   0.023  0.00  0.00    +0.244 C 
BRANCH  23  24
ATOM     24  C   UNL     1      -2.925   1.486   1.445  0.00  0.00    +0.327 C 
ATOM     25  O   UNL     1      -2.195   1.781   2.361  0.00  0.00    -0.249 OA
BRANCH  24  26
ATOM     26  O   UNL     1      -4.144   0.981   1.693  0.00  0.00    -0.467 OA
ATOM     27  C   UNL     1      -4.518   0.816   3.087  0.00  0.00    +0.280 C 
ENDBRANCH  24  26
ENDBRANCH  23  24
ENDBRANCH   3  23
TORSDOF 6
