REMARK  Name = ZINC58019244
REMARK  3 active torsions:
REMARK  status: ('A' for Active; 'I' for Inactive)
REMARK    1  A    between atoms: C_1  and  C_2
REMARK    2  A    between atoms: C_3  and  N_9
REMARK    3  A    between atoms: C_14  and  N_19
REMARK                            x       y       z     vdW  Elec       q    Type
REMARK                         _______ _______ _______ _____ _____    ______ ____
ROOT
ATOM      1  N   UNL     1      -0.010   0.011  -2.413  0.00  0.00    -0.263 N 
ATOM      2  C   UNL     1       1.173   0.452  -3.160  0.00  0.00    +0.149 C 
ATOM      3  C   UNL     1       0.657   1.163  -4.386  0.00  0.00    -0.017 A 
ATOM      4  C   UNL     1       1.279   1.784  -5.446  0.00  0.00    +0.008 A 
ATOM      5  C   UNL     1       0.524   2.365  -6.449  0.00  0.00    +0.023 A 
ATOM      6  C   UNL     1      -0.865   2.323  -6.390  0.00  0.00    +0.025 A 
ATOM      7  C   UNL     1      -1.498   1.700  -5.326  0.00  0.00    +0.036 A 
ATOM      8  C   UNL     1      -0.737   1.113  -4.314  0.00  0.00    +0.044 A 
ATOM      9  C   UNL     1      -1.111   0.389  -3.084  0.00  0.00    +0.252 C 
ATOM     10  O   UNL     1      -2.252   0.168  -2.728  0.00  0.00    -0.270 OA
ENDROOT
BRANCH   1  13
ATOM     11  C   UNL     1      -0.018   1.503   0.010  0.00  0.00    +0.047 C 
ATOM     12  C   UNL     1       0.002  -0.004   0.002  0.00  0.00    -0.011 A 
ATOM     13  C   UNL     1       0.006  -0.693  -1.204  0.00  0.00    +0.041 A 
ATOM     14  C   UNL     1       0.025  -2.082  -1.208  0.00  0.00    +0.024 A 
ATOM     15  C   UNL     1       0.040  -2.774  -0.012  0.00  0.00    +0.003 A 
ATOM     16  C   UNL     1       0.035  -2.087   1.187  0.00  0.00    +0.020 A 
ATOM     17  C   UNL     1       0.023  -0.702   1.194  0.00  0.00    +0.046 A 
ATOM     18 CL   UNL     1       0.026   0.157   2.703  0.00  0.00    -0.083 Cl
ENDBRANCH   1  13
BRANCH   6  19
ATOM     19  N   UNL     1      -1.623   2.912  -7.404  0.00  0.00    -0.358 N 
ATOM     20  H   UNL     1      -1.181   3.349  -8.149  0.00  0.00    +0.142 HD
ATOM     21  H   UNL     1      -2.592   2.884  -7.365  0.00  0.00    +0.142 HD
ENDBRANCH   6  19
TORSDOF 2
