REMARK  Name = ZINC39573629
REMARK  7 active torsions:
REMARK  status: ('A' for Active; 'I' for Inactive)
REMARK    1  A    between atoms: C_1  and  C_2
REMARK    2  A    between atoms: C_2  and  N_3
REMARK    3  A    between atoms: C_4  and  C_21
REMARK    4  A    between atoms: C_7  and  S_8
REMARK    5  A    between atoms: S_8  and  C_9
REMARK    6  A    between atoms: C_9  and  C_10
REMARK    7  A    between atoms: C_10  and  C_12
REMARK                            x       y       z     vdW  Elec       q    Type
REMARK                         _______ _______ _______ _____ _____    ______ ____
ROOT
ATOM      1  N   UNL     1      -1.377  -0.499   0.014  0.00  0.00    -0.302 N 
ATOM      2  C   UNL     1      -2.111  -0.889   1.110  0.00  0.00    +0.165 A 
ATOM      3  N   UNL     1      -3.280  -1.290   0.668  0.00  0.00    -0.128 NA
ATOM      4  N   UNL     1      -3.327  -1.179  -0.611  0.00  0.00    -0.122 NA
ATOM      5  C   UNL     1      -2.193  -0.695  -1.064  0.00  0.00    +0.192 A 
ENDROOT
BRANCH   2   6
ATOM      6  C   UNL     1      -1.666  -0.862   2.520  0.00  0.00    +0.019 A 
ATOM      7  C   UNL     1      -0.592  -0.056   2.900  0.00  0.00    +0.013 A 
ATOM      8  C   UNL     1      -0.181  -0.036   4.217  0.00  0.00    +0.021 A 
ATOM      9  C   UNL     1      -0.833  -0.812   5.161  0.00  0.00    +0.041 A 
ATOM     10  C   UNL     1      -1.899  -1.613   4.789  0.00  0.00    +0.021 A 
ATOM     11  C   UNL     1      -2.322  -1.638   3.476  0.00  0.00    +0.013 A 
ATOM     12 CL   UNL     1      -0.310  -0.781   6.816  0.00  0.00    -0.084 Cl
ENDBRANCH   2   6
BRANCH   1  14
ATOM     13  C   UNL     1      -0.047   1.554   0.024  0.00  0.00    +0.027 C 
ATOM     14  C   UNL     1      -0.009   0.025   0.005  0.00  0.00    +0.122 C 
ENDBRANCH   1  14
BRANCH   5  15
ATOM     15  S   UNL     1      -1.796  -0.364  -2.749  0.00  0.00    -0.078 S 
BRANCH  15  16
ATOM     16  C   UNL     1      -3.295  -0.838  -3.654  0.00  0.00    +0.156 C 
BRANCH  16  17
ATOM     17  C   UNL     1      -3.087  -0.602  -5.128  0.00  0.00    +0.172 C 
ATOM     18  O   UNL     1      -2.031  -0.157  -5.529  0.00  0.00    -0.291 OA
BRANCH  17  19
ATOM     19  C   UNL     1      -4.120  -0.899  -6.042  0.00  0.00    +0.024 C 
ATOM     20  C   UNL     1      -4.090  -0.747  -7.417  0.00  0.00    +0.006 A 
ATOM     21  C   UNL     1      -3.099  -0.280  -8.312  0.00  0.00    +0.010 A 
ATOM     22  C   UNL     1      -3.346  -0.237  -9.640  0.00  0.00    +0.001 A 
ATOM     23  C   UNL     1      -4.571  -0.643 -10.192  0.00  0.00    +0.002 A 
ATOM     24  C   UNL     1      -5.583  -1.104  -9.425  0.00  0.00    +0.026 A 
ATOM     25  C   UNL     1      -5.397  -1.184  -7.967  0.00  0.00    +0.043 A 
ATOM     26  N   UNL     1      -6.186  -1.580  -7.010  0.00  0.00    -0.380 N 
ATOM     27  C   UNL     1      -5.491  -1.456  -5.725  0.00  0.00    +0.152 C 
ATOM     28  H   UNL     1      -7.091  -1.910  -7.129  0.00  0.00    +0.160 HD
ENDBRANCH  17  19
ENDBRANCH  16  17
ENDBRANCH  15  16
ENDBRANCH   5  15
TORSDOF 6
