REMARK  Name = ZINC20069648
REMARK  7 active torsions:
REMARK  status: ('A' for Active; 'I' for Inactive)
REMARK    1  A    between atoms: C_1  and  C_2
REMARK    2  A    between atoms: C_2  and  C_34
REMARK    3  A    between atoms: C_9  and  C_20
REMARK    4  A    between atoms: C_9  and  N_24
REMARK    5  A    between atoms: N_12  and  C_13
REMARK    6  A    between atoms: N_24  and  S_25
REMARK    7  A    between atoms: S_25  and  C_28
REMARK                            x       y       z     vdW  Elec       q    Type
REMARK                         _______ _______ _______ _____ _____    ______ ____
ROOT
ATOM      1  C   UNL     1      -3.520   2.169  -6.491  0.00  0.00    +0.011 C 
ATOM      2  C   UNL     1      -4.207   3.534  -6.413  0.00  0.00    -0.023 C 
ATOM      3  C   UNL     1      -5.381   3.455  -5.431  0.00  0.00    +0.058 C 
ATOM      4  C   UNL     1      -4.822   3.175  -4.050  0.00  0.00    +0.028 C 
ATOM      5  C   UNL     1      -3.558   3.552  -3.704  0.00  0.00    +0.052 C 
ATOM      6  C   UNL     1      -2.688   4.228  -4.568  0.00  0.00    +0.164 C 
ATOM      7  O   UNL     1      -1.561   4.519  -4.220  0.00  0.00    -0.292 OA
ATOM      8  C   UNL     1      -3.195   4.583  -5.949  0.00  0.00    +0.086 C 
ATOM      9  C   UNL     1      -3.351   3.106  -2.283  0.00  0.00    +0.240 C 
ATOM     10  C   UNL     1      -4.672   2.447  -1.925  0.00  0.00    +0.259 C 
ATOM     11  O   UNL     1      -4.967   1.936  -0.866  0.00  0.00    -0.272 OA
ATOM     12  N   UNL     1      -5.449   2.545  -3.022  0.00  0.00    -0.241 N 
ATOM     13  C   UNL     1      -4.730   3.918  -7.798  0.00  0.00    +0.011 C 
ENDROOT
BRANCH  12  14
ATOM     14  C   UNL     1      -6.759   2.051  -3.094  0.00  0.00    +0.041 A 
ATOM     15  C   UNL     1      -7.019   0.722  -2.786  0.00  0.00    +0.025 A 
ATOM     16  C   UNL     1      -8.311   0.239  -2.853  0.00  0.00    +0.022 A 
ATOM     17  C   UNL     1      -9.345   1.076  -3.236  0.00  0.00    +0.041 A 
ATOM     18  C   UNL     1      -9.087   2.399  -3.549  0.00  0.00    +0.022 A 
ATOM     19  C   UNL     1      -7.798   2.888  -3.478  0.00  0.00    +0.025 A 
ATOM     20 CL   UNL     1     -10.967   0.464  -3.326  0.00  0.00    -0.084 Cl
ENDBRANCH  12  14
BRANCH   9  21
ATOM     21  C   UNL     1      -2.204   2.098  -2.195  0.00  0.00    +0.422 C 
ATOM     22  F   UNL     1      -2.020   1.716  -0.862  0.00  0.00    -0.168 F 
ATOM     23  F   UNL     1      -2.513   0.971  -2.965  0.00  0.00    -0.168 F 
ATOM     24  F   UNL     1      -1.029   2.685  -2.678  0.00  0.00    -0.168 F 
ENDBRANCH   9  21
BRANCH   9  25
ATOM     25  N   UNL     1      -3.095   4.256  -1.412  0.00  0.00    -0.162 NA
ATOM     26  H   UNL     1      -2.208   4.266  -0.761  0.00  0.00    +0.150 HD
BRANCH  25  27
ATOM     27  S   UNL     1      -4.254   5.423  -1.218  0.00  0.00    +0.060 S 
ATOM     28  O   UNL     1      -4.764   5.707  -2.514  0.00  0.00    -0.153 OA
ATOM     29  O   UNL     1      -3.686   6.425  -0.386  0.00  0.00    -0.153 OA
BRANCH  27  30
ATOM     30  C   UNL     1      -5.575   4.698  -0.305  0.00  0.00    +0.105 A 
ATOM     31  C   UNL     1      -6.692   4.221  -0.966  0.00  0.00    +0.028 A 
ATOM     32  C   UNL     1      -7.731   3.657  -0.249  0.00  0.00    +0.002 A 
ATOM     33  C   UNL     1      -7.648   3.561   1.128  0.00  0.00    +0.000 A 
ATOM     34  C   UNL     1      -6.530   4.035   1.788  0.00  0.00    +0.002 A 
ATOM     35  C   UNL     1      -5.493   4.603   1.071  0.00  0.00    +0.028 A 
ENDBRANCH  27  30
ENDBRANCH  25  27
ENDBRANCH   9  25
TORSDOF 5
