REMARK  Name = ZINC55617564
REMARK  9 active torsions:
REMARK  status: ('A' for Active; 'I' for Inactive)
REMARK    1  A    between atoms: C_1  and  C_2
REMARK    2  A    between atoms: C_2  and  C_3
REMARK    3  A    between atoms: C_3  and  C_5
REMARK    4  A    between atoms: C_3  and  C_6
REMARK    5  A    between atoms: N_8  and  N_9
REMARK    6  A    between atoms: N_9  and  S_10
REMARK    7  A    between atoms: S_10  and  C_13
REMARK    8  A    between atoms: C_15  and  N_21
REMARK    9  A    between atoms: C_16  and  C_20
REMARK                            x       y       z     vdW  Elec       q    Type
REMARK                         _______ _______ _______ _____ _____    ______ ____
ROOT
ATOM      1  S   UNL     1       3.123  -4.613   2.161  0.00  0.00    +0.074 S 
ATOM      2  O   UNL     1       3.135  -6.027   2.026  0.00  0.00    -0.152 OA
ATOM      3  O   UNL     1       3.788  -3.755   1.244  0.00  0.00    -0.152 OA
ENDROOT
BRANCH   1   4
ATOM      4  C   UNL     1       3.784  -4.254   3.755  0.00  0.00    +0.110 A 
ATOM      5  C   UNL     1       4.351  -3.019   4.006  0.00  0.00    +0.061 A 
ATOM      6  C   UNL     1       4.869  -2.737   5.256  0.00  0.00    +0.132 A 
ATOM      7  C   UNL     1       4.819  -3.690   6.256  0.00  0.00    -0.002 A 
ATOM      8  C   UNL     1       4.251  -4.926   6.006  0.00  0.00    +0.048 A 
ATOM      9  C   UNL     1       3.728  -5.206   4.756  0.00  0.00    +0.049 A 
ATOM     10 CL   UNL     1       4.190  -6.123   7.261  0.00  0.00    -0.083 Cl
ATOM     11  C   UNL     1       5.385  -3.382   7.619  0.00  0.00    +0.047 C 
BRANCH   6  12
ATOM     12  N   UNL     1       5.476  -1.414   5.524  0.00  0.00    +0.057 N 
ATOM     13  O   UNL     1       5.330  -0.889   6.604  0.00  0.00    -0.126 OA
ATOM     14  O   UNL     1       6.119  -0.858   4.664  0.00  0.00    -0.126 OA
ENDBRANCH   6  12
ENDBRANCH   1   4
BRANCH   1  15
ATOM     15  N   UNL     1       1.533  -4.151   2.175  0.00  0.00    -0.108 NA
ATOM     16  H   UNL     1       0.837  -4.806   2.008  0.00  0.00    +0.172 HD
BRANCH  15  19
ATOM     17  C   UNL     1       0.428  -2.138   1.548  0.00  0.00    +0.231 C 
ATOM     18  O   UNL     1       0.034  -2.684   0.540  0.00  0.00    -0.274 OA
ATOM     19  N   UNL     1       1.194  -2.816   2.426  0.00  0.00    -0.232 N 
ATOM     20  H   UNL     1       1.509  -2.379   3.233  0.00  0.00    +0.171 HD
BRANCH  17  21
ATOM     21  C   UNL     1       0.063  -0.701   1.819  0.00  0.00    +0.073 C 
ATOM     22  C   UNL     1      -0.715  -0.612   3.133  0.00  0.00    +0.017 C 
BRANCH  21  24
ATOM     23  C   UNL     1      -1.072   1.321   0.887  0.00  0.00    +0.004 C 
ATOM     24  C   UNL     1      -0.804  -0.171   0.675  0.00  0.00    +0.009 C 
ENDBRANCH  21  24
ENDBRANCH  17  21
ENDBRANCH  15  19
ENDBRANCH   1  15
TORSDOF 6
