REMARK  Name = ZINC39502248
REMARK  8 active torsions:
REMARK  status: ('A' for Active; 'I' for Inactive)
REMARK    1  A    between atoms: C_1  and  C_2
REMARK    2  A    between atoms: C_2  and  N_3
REMARK    3  A    between atoms: C_4  and  C_23
REMARK    4  A    between atoms: C_7  and  S_8
REMARK    5  A    between atoms: S_8  and  C_9
REMARK    6  A    between atoms: C_9  and  C_10
REMARK    7  A    between atoms: C_10  and  C_12
REMARK    8  A    between atoms: C_20  and  C_22
REMARK                            x       y       z     vdW  Elec       q    Type
REMARK                         _______ _______ _______ _____ _____    ______ ____
ROOT
ATOM      1  S   UNL     1      -1.472  -0.391   2.936  0.00  0.00    -0.078 S 
ENDROOT
BRANCH   1   6
ATOM      2  N   UNL     1       0.714  -0.476   1.192  0.00  0.00    -0.302 N 
ATOM      3  C   UNL     1       2.039  -0.834   1.281  0.00  0.00    +0.165 A 
ATOM      4  N   UNL     1       2.252  -1.225   2.516  0.00  0.00    -0.128 NA
ATOM      5  N   UNL     1       1.165  -1.139   3.196  0.00  0.00    -0.122 NA
ATOM      6  C   UNL     1       0.193  -0.681   2.438  0.00  0.00    +0.192 A 
BRANCH   3   7
ATOM      7  C   UNL     1       3.037  -0.786   0.191  0.00  0.00    +0.019 A 
ATOM      8  C   UNL     1       2.810   0.010  -0.933  0.00  0.00    +0.011 A 
ATOM      9  C   UNL     1       3.745   0.050  -1.947  0.00  0.00    +0.001 A 
ATOM     10  C   UNL     1       4.905  -0.697  -1.851  0.00  0.00    +0.000 A 
ATOM     11  C   UNL     1       5.137  -1.488  -0.740  0.00  0.00    +0.001 A 
ATOM     12  C   UNL     1       4.213  -1.532   0.283  0.00  0.00    +0.011 A 
ENDBRANCH   3   7
BRANCH   2  14
ATOM     13  C   UNL     1       0.007   1.555   0.028  0.00  0.00    +0.027 C 
ATOM     14  C   UNL     1       0.009   0.025   0.010  0.00  0.00    +0.122 C 
ENDBRANCH   2  14
ENDBRANCH   1   6
BRANCH   1  15
ATOM     15  C   UNL     1      -1.495  -0.860   4.688  0.00  0.00    +0.156 C 
BRANCH  15  16
ATOM     16  C   UNL     1      -2.881  -0.657   5.244  0.00  0.00    +0.172 C 
ATOM     17  O   UNL     1      -3.767  -0.236   4.528  0.00  0.00    -0.291 OA
BRANCH  16  18
ATOM     18  C   UNL     1      -3.148  -0.955   6.597  0.00  0.00    +0.027 C 
ATOM     19  C   UNL     1      -2.257  -1.433   7.541  0.00  0.00    +0.006 A 
ATOM     20  C   UNL     1      -0.882  -1.762   7.486  0.00  0.00    +0.010 A 
ATOM     21  C   UNL     1      -0.246  -2.219   8.588  0.00  0.00    +0.001 A 
ATOM     22  C   UNL     1      -0.899  -2.388   9.819  0.00  0.00    +0.002 A 
ATOM     23  C   UNL     1      -2.210  -2.103   9.978  0.00  0.00    +0.026 A 
ATOM     24  C   UNL     1      -2.978  -1.599   8.827  0.00  0.00    +0.043 A 
ATOM     25  N   UNL     1      -4.226  -1.253   8.699  0.00  0.00    -0.377 N 
ATOM     26  C   UNL     1      -4.470  -0.814   7.321  0.00  0.00    +0.111 C 
ATOM     27  C   UNL     1      -4.926   0.646   7.303  0.00  0.00    +0.035 C 
ATOM     28  H   UNL     1      -4.891  -1.277   9.405  0.00  0.00    +0.160 HD
ENDBRANCH  16  18
ENDBRANCH  15  16
ENDBRANCH   1  15
TORSDOF 6
