REMARK  Name = ZINC43227033
REMARK  11 active torsions:
REMARK  status: ('A' for Active; 'I' for Inactive)
REMARK    1  A    between atoms: C_1  and  C_2
REMARK    2  A    between atoms: C_2  and  C_3
REMARK    3  A    between atoms: C_3  and  C_4
REMARK    4  A    between atoms: C_4  and  O_5
REMARK    5  A    between atoms: O_5  and  C_6
REMARK    6  A    between atoms: C_6  and  C_8
REMARK    7  A    between atoms: C_8  and  C_10
REMARK    8  A    between atoms: C_8  and  N_21
REMARK    9  A    between atoms: C_10  and  C_11
REMARK   10  A    between atoms: C_22  and  C_24
REMARK   11  A    between atoms: C_27  and  C_29
REMARK                            x       y       z     vdW  Elec       q    Type
REMARK                         _______ _______ _______ _____ _____    ______ ____
ROOT
ATOM      1  C   UNL     1      -4.296  -4.486   0.019  0.00  0.00    +0.186 C 
ENDROOT
BRANCH   1   2
ATOM      2  N   UNL     1      -4.199  -5.948   0.010  0.00  0.00    -0.297 N 
ATOM      3  C   UNL     1      -5.215  -6.687  -0.477  0.00  0.00    +0.264 C 
ATOM      4  O   UNL     1      -6.212  -6.141  -0.910  0.00  0.00    -0.268 OA
ATOM      5  H   UNL     1      -3.404  -6.383   0.355  0.00  0.00    +0.150 HD
BRANCH   3   6
ATOM      6  C   UNL     1      -5.118  -8.157  -0.486  0.00  0.00    +0.133 A 
ATOM      7  C   UNL     1      -6.123  -8.947  -0.977  0.00  0.00    +0.080 A 
ATOM      8  S   UNL     1      -5.510 -10.494  -0.751  0.00  0.00    -0.079 S 
ATOM      9  C   UNL     1      -4.032 -10.102  -0.058  0.00  0.00    +0.082 A 
ATOM     10  N   UNL     1      -4.041  -8.798  -0.021  0.00  0.00    -0.239 NA
BRANCH   9  11
ATOM     11  C   UNL     1      -2.946 -11.038   0.408  0.00  0.00    +0.041 C 
ATOM     12  C   UNL     1      -2.461 -11.886  -0.771  0.00  0.00    -0.009 C 
ATOM     13  C   UNL     1      -1.416 -12.888  -0.276  0.00  0.00    -0.082 C 
ATOM     14  N   UNL     1      -2.013 -13.760   0.743  0.00  0.00    +0.379 N 
ATOM     15  C   UNL     1      -2.415 -12.962   1.908  0.00  0.00    -0.082 C 
ATOM     16  C   UNL     1      -3.499 -11.963   1.496  0.00  0.00    -0.009 C 
ATOM     17  H   UNL     1      -2.823 -14.221   0.357  0.00  0.00    -0.086 HD
ATOM     18  H   UNL     1      -1.338 -14.453   1.029  0.00  0.00    -0.086 HD
ENDBRANCH   9  11
ENDBRANCH   3   6
ENDBRANCH   1   2
BRANCH   1  19
ATOM     19  C   UNL     1      -2.911  -3.891   0.009  0.00  0.00    +0.328 C 
ATOM     20  O   UNL     1      -1.943  -4.614  -0.004  0.00  0.00    -0.249 OA
BRANCH  19  21
ATOM     21  O   UNL     1      -2.753  -2.558   0.015  0.00  0.00    -0.463 OA
BRANCH  21  22
ATOM     22  C   UNL     1      -1.413  -2.063   0.004  0.00  0.00    +0.232 C 
BRANCH  22  23
ATOM     23  C   UNL     1      -1.433  -0.534   0.013  0.00  0.00    +0.041 C 
BRANCH  23  25
ATOM     24  C   UNL     1      -0.019   1.526   0.010  0.00  0.00    +0.004 C 
ATOM     25  C   UNL     1       0.002  -0.004   0.002  0.00  0.00    -0.000 C 
ENDBRANCH  23  25
ENDBRANCH  22  23
ENDBRANCH  21  22
ENDBRANCH  19  21
ENDBRANCH   1  19
BRANCH   1  26
ATOM     26  C   UNL     1      -5.037  -4.031   1.278  0.00  0.00    +0.071 C 
BRANCH  26  27
ATOM     27  C   UNL     1      -6.460  -4.525   1.228  0.00  0.00    -0.020 A 
ATOM     28  C   UNL     1      -7.526  -3.843   0.779  0.00  0.00    +0.087 A 
ATOM     29  N   UNL     1      -8.652  -4.613   0.889  0.00  0.00    -0.360 N 
ATOM     30  H   UNL     1      -9.544  -4.336   0.628  0.00  0.00    +0.165 HD
ATOM     31  C   UNL     1      -8.330  -5.840   1.425  0.00  0.00    +0.047 A 
ATOM     32  C   UNL     1      -6.941  -5.840   1.655  0.00  0.00    +0.003 A 
ATOM     33  C   UNL     1      -6.326  -6.971   2.196  0.00  0.00    +0.010 A 
ATOM     34  C   UNL     1      -7.075  -8.073   2.496  0.00  0.00    +0.001 A 
ATOM     35  C   UNL     1      -8.444  -8.079   2.267  0.00  0.00    +0.002 A 
ATOM     36  C   UNL     1      -9.073  -6.971   1.743  0.00  0.00    +0.026 A 
ENDBRANCH  26  27
ENDBRANCH   1  26
TORSDOF 10
