REMARK  Name = ZINC05275539
REMARK  7 active torsions:
REMARK  status: ('A' for Active; 'I' for Inactive)
REMARK    1  A    between atoms: C_1  and  C_2
REMARK    2  A    between atoms: C_15  and  O_31
REMARK    3  A    between atoms: C_18  and  C_30
REMARK    4  A    between atoms: C_23  and  C_25
REMARK    5  A    between atoms: C_25  and  C_27
REMARK    6  A    between atoms: C_25  and  O_29
REMARK    7  A    between atoms: C_27  and  O_28
REMARK                            x       y       z     vdW  Elec       q    Type
REMARK                         _______ _______ _______ _____ _____    ______ ____
ROOT
ATOM      1  C   UNL     1      -0.006   1.092   0.007  0.00  0.00    +0.016 C 
ATOM      2  C   UNL     1      -0.730   1.590   1.278  0.00  0.00    -0.005 C 
ATOM      3  C   UNL     1      -0.695   3.104   1.170  0.00  0.00    +0.019 C 
ATOM      4  C   UNL     1      -1.563   3.611   0.014  0.00  0.00    +0.080 C 
ATOM      5  C   UNL     1      -2.982   3.153   0.289  0.00  0.00    +0.156 C 
ATOM      6  O   UNL     1      -3.927   3.902   0.153  0.00  0.00    -0.293 OA
ATOM      7  C   UNL     1      -3.157   1.765   0.723  0.00  0.00    +0.046 C 
ATOM      8  C   UNL     1      -2.116   1.048   1.153  0.00  0.00    -0.060 C 
ATOM      9  C   UNL     1      -2.376  -0.404   1.508  0.00  0.00    +0.032 C 
ATOM     10  C   UNL     1      -1.762  -0.662   2.877  0.00  0.00    +0.008 C 
ATOM     11  C   UNL     1      -0.267  -0.372   2.873  0.00  0.00    -0.001 C 
ATOM     12  C   UNL     1       0.087   1.028   2.403  0.00  0.00    +0.031 C 
ATOM     13  C   UNL     1       0.404   1.927   3.583  0.00  0.00    +0.119 C 
ATOM     14  C   UNL     1       1.721   1.457   4.248  0.00  0.00    +0.039 C 
ATOM     15  C   UNL     1       1.682  -0.037   4.433  0.00  0.00    -0.021 C 
ATOM     16  C   UNL     1       0.232  -0.551   4.302  0.00  0.00    -0.001 C 
ATOM     17  C   UNL     1       0.367  -2.022   4.732  0.00  0.00    +0.005 C 
ATOM     18  C   UNL     1       1.464  -2.005   5.827  0.00  0.00    +0.007 C 
ATOM     19  C   UNL     1       2.077  -0.579   5.812  0.00  0.00    +0.026 C 
ATOM     20  C   UNL     1       2.592  -0.710   3.393  0.00  0.00    +0.012 C 
ENDROOT
BRANCH  13  21
ATOM     21  O   UNL     1       0.609   3.291   3.210  0.00  0.00    -0.391 OA
ATOM     22  H   UNL     1       0.812   3.875   3.953  0.00  0.00    +0.210 HD
ENDBRANCH  13  21
BRANCH  19  23
ATOM     23  C   UNL     1       1.477   0.246   6.947  0.00  0.00    +0.143 C 
BRANCH  23  24
ATOM     24  O   UNL     1       2.123   1.519   7.004  0.00  0.00    -0.389 OA
ATOM     25  H   UNL     1       3.076   1.469   7.160  0.00  0.00    +0.210 HD
ENDBRANCH  23  24
BRANCH  23  26
ATOM     26  C   UNL     1       1.678  -0.488   8.274  0.00  0.00    +0.187 C 
BRANCH  26  27
ATOM     27  O   UNL     1       1.016   0.227   9.319  0.00  0.00    -0.392 OA
ATOM     28  H   UNL     1       1.102  -0.183  10.191  0.00  0.00    +0.210 HD
ENDBRANCH  26  27
ENDBRANCH  23  26
ENDBRANCH  19  23
TORSDOF 5
