REMARK  Name = ZINC07905818
REMARK  7 active torsions:
REMARK  status: ('A' for Active; 'I' for Inactive)
REMARK    1  A    between atoms: C_1  and  C_2
REMARK    2  A    between atoms: C_6  and  N_9
REMARK    3  A    between atoms: C_7  and  C_8
REMARK    4  A    between atoms: C_14  and  C_16
REMARK    5  A    between atoms: C_14  and  C_17
REMARK    6  A    between atoms: C_14  and  N_50
REMARK    7  A    between atoms: C_20  and  C_22
REMARK                            x       y       z     vdW  Elec       q    Type
REMARK                         _______ _______ _______ _____ _____    ______ ____
ROOT
ATOM      1  N   UNL     1       2.754  11.396   2.071  0.00  0.00    -0.333 N 
ATOM      2  C   UNL     1       3.997  10.661   2.344  0.00  0.00    +0.086 C 
ATOM      3  C   UNL     1       4.275   9.688   1.196  0.00  0.00    -0.059 C 
ATOM      4  C   UNL     1       1.898   9.499   0.781  0.00  0.00    -0.059 C 
ATOM      5  C   UNL     1       1.620  10.471   1.930  0.00  0.00    +0.086 C 
ATOM      6  N   UNL     1       3.138   8.752   1.079  0.00  0.00    +0.389 N 
ATOM      7  H   UNL     1       3.022   8.255   1.970  0.00  0.00    -0.081 HD
ENDROOT
BRANCH   1  13
ATOM      8  C   UNL     1       2.070  16.089   3.359  0.00  0.00    +0.044 C 
ATOM      9  C   UNL     1       2.169  14.628   3.717  0.00  0.00    -0.046 A 
ATOM     10  C   UNL     1       2.012  14.227   5.032  0.00  0.00    +0.004 A 
ATOM     11  C   UNL     1       2.101  12.888   5.365  0.00  0.00    +0.002 A 
ATOM     12  C   UNL     1       2.347  11.946   4.385  0.00  0.00    +0.023 A 
ATOM     13  C   UNL     1       2.505  12.345   3.064  0.00  0.00    +0.033 A 
ATOM     14  C   UNL     1       2.420  13.692   2.734  0.00  0.00    -0.027 A 
ATOM     15  C   UNL     1       2.597  14.131   1.303  0.00  0.00    +0.046 C 
ENDBRANCH   1  13
BRANCH   6  16
ATOM     16  C   UNL     1       3.403   7.765   0.010  0.00  0.00    +0.018 C 
ATOM     17  C   UNL     1       2.254   6.755  -0.029  0.00  0.00    -0.004 C 
BRANCH  16  18
ATOM     18  C   UNL     1       4.693   7.048   0.314  0.00  0.00    +0.204 A 
ATOM     19  N   UNL     1       5.047   6.558   1.468  0.00  0.00    -0.114 NA
ATOM     20  N   UNL     1       6.207   6.010   1.367  0.00  0.00    -0.107 NA
ATOM     21  C   UNL     1       6.641   6.140   0.132  0.00  0.00    +0.255 A 
ATOM     22  O   UNL     1       5.686   6.797  -0.558  0.00  0.00    -0.421 OA
BRANCH  21  23
ATOM     23  C   UNL     1       7.923   5.654  -0.398  0.00  0.00    +0.076 A 
ATOM     24  C   UNL     1       8.937   4.977   0.255  0.00  0.00    +0.021 A 
ATOM     25  C   UNL     1      10.053   4.618  -0.463  0.00  0.00    +0.008 A 
ATOM     26  C   UNL     1      10.131   4.946  -1.779  0.00  0.00    +0.046 A 
ATOM     27  S   UNL     1       8.579   5.784  -2.054  0.00  0.00    -0.092 S 
ENDBRANCH  21  23
ENDBRANCH  16  18
ENDBRANCH   6  16
TORSDOF 4
