REMARK  Name = ZINC64723215
REMARK  9 active torsions:
REMARK  status: ('A' for Active; 'I' for Inactive)
REMARK    1  A    between atoms: C_1  and  C_2
REMARK    2  A    between atoms: C_4  and  C_15
REMARK    3  A    between atoms: C_5  and  C_14
REMARK    4  A    between atoms: N_7  and  C_8
REMARK    5  A    between atoms: C_15  and  C_16
REMARK    6  A    between atoms: C_16  and  C_17
REMARK    7  A    between atoms: N_19  and  C_20
REMARK    8  A    between atoms: C_20  and  C_21
REMARK    9  A    between atoms: C_21  and  C_22
REMARK                            x       y       z     vdW  Elec       q    Type
REMARK                         _______ _______ _______ _____ _____    ______ ____
ROOT
ATOM      1  C   UNL     1      -0.666  -1.318  -3.090  0.00  0.00    +0.100 C 
ENDROOT
BRANCH   1   2
ATOM      2  C   UNL     1      -1.044  -1.078  -4.529  0.00  0.00    +0.213 C 
ATOM      3  O   UNL     1      -0.540  -0.163  -5.144  0.00  0.00    -0.276 OA
ATOM      4  N   UNL     1      -1.944  -1.881  -5.133  0.00  0.00    -0.315 N 
ATOM      5  H   UNL     1      -2.348  -2.612  -4.641  0.00  0.00    +0.149 HD
BRANCH   4   6
ATOM      6  C   UNL     1      -2.311  -1.647  -6.532  0.00  0.00    +0.108 C 
BRANCH   6   7
ATOM      7  C   UNL     1      -3.342  -2.690  -6.969  0.00  0.00    +0.052 C 
BRANCH   7   8
ATOM      8  C   UNL     1      -3.720  -2.450  -8.408  0.00  0.00    -0.040 C 
ATOM      9  C   UNL     1      -3.191  -3.050  -9.498  0.00  0.00    -0.001 A 
ATOM     10  C   UNL     1      -2.145  -4.067  -9.665  0.00  0.00    +0.010 A 
ATOM     11  C   UNL     1      -1.825  -4.480 -10.913  0.00  0.00    +0.001 A 
ATOM     12  C   UNL     1      -2.465  -3.962 -12.047  0.00  0.00    +0.002 A 
ATOM     13  C   UNL     1      -3.435  -3.027 -11.975  0.00  0.00    +0.026 A 
ATOM     14  C   UNL     1      -3.852  -2.521 -10.713  0.00  0.00    +0.043 A 
ATOM     15  N   UNL     1      -4.754  -1.627 -10.385  0.00  0.00    -0.380 N 
ATOM     16  C   UNL     1      -4.772  -1.494  -8.924  0.00  0.00    +0.144 C 
ATOM     17  H   UNL     1      -5.319  -1.139 -11.005  0.00  0.00    +0.160 HD
ENDBRANCH   7   8
ENDBRANCH   6   7
ENDBRANCH   4   6
ENDBRANCH   1   2
BRANCH   1  18
ATOM     18  C   UNL     1       0.364  -0.275  -2.653  0.00  0.00    +0.043 C 
BRANCH  18  21
ATOM     19  C   UNL     1      -0.019   1.526   0.010  0.00  0.00    +0.034 C 
ATOM     20  C   UNL     1       0.002  -0.004   0.002  0.00  0.00    +0.118 C 
ATOM     21  C   UNL     1       0.742  -0.515  -1.214  0.00  0.00    -0.030 C 
ATOM     22  C   UNL     1       1.776  -1.208  -0.786  0.00  0.00    +0.020 C 
ATOM     23  N   UNL     1       1.841  -1.238   0.593  0.00  0.00    -0.268 N 
ATOM     24  N   UNL     1       0.773  -0.514   1.148  0.00  0.00    -0.247 N 
ATOM     25  C   UNL     1       2.770  -1.887  -1.693  0.00  0.00    +0.062 C 
ATOM     26  H   UNL     1       2.526  -1.695   1.106  0.00  0.00    +0.170 HD
BRANCH  24  27
ATOM     27  C   UNL     1       0.499  -0.317   2.504  0.00  0.00    +0.048 A 
ATOM     28  C   UNL     1      -0.609   0.428   2.889  0.00  0.00    +0.025 A 
ATOM     29  C   UNL     1      -0.877   0.620   4.230  0.00  0.00    +0.002 A 
ATOM     30  C   UNL     1      -0.044   0.074   5.189  0.00  0.00    +0.000 A 
ATOM     31  C   UNL     1       1.060  -0.667   4.809  0.00  0.00    +0.002 A 
ATOM     32  C   UNL     1       1.331  -0.869   3.470  0.00  0.00    +0.025 A 
ENDBRANCH  24  27
ENDBRANCH  18  21
ENDBRANCH   1  18
TORSDOF 7
