REMARK  Name = ZINC39543681
REMARK  5 active torsions:
REMARK  status: ('A' for Active; 'I' for Inactive)
REMARK    1  A    between atoms: C_1  and  C_2
REMARK    2  A    between atoms: C_2  and  N_3
REMARK    3  A    between atoms: N_3  and  C_4
REMARK    4  A    between atoms: C_9  and  O_10
REMARK    5  A    between atoms: C_11  and  C_13
REMARK                            x       y       z     vdW  Elec       q    Type
REMARK                         _______ _______ _______ _____ _____    ______ ____
ROOT
ATOM      1  C   UNL     1      -1.508  -0.273   2.439  0.00  0.00    +0.149 C 
ATOM      2  C   UNL     1      -1.276   1.250   2.445  0.00  0.00    +0.075 C 
ATOM      3  C   UNL     1      -2.090   1.742   3.620  0.00  0.00    +0.027 C 
ATOM      4  C   UNL     1      -2.676   0.726   4.200  0.00  0.00    +0.084 C 
ATOM      5  N   UNL     1      -3.545   0.793   5.305  0.00  0.00    -0.303 N 
ATOM      6  C   UNL     1      -4.612  -0.122   5.273  0.00  0.00    +0.037 A 
ATOM      7  C   UNL     1      -5.596  -0.069   6.250  0.00  0.00    +0.023 A 
ATOM      8  C   UNL     1      -6.639  -0.974   6.224  0.00  0.00    +0.002 A 
ATOM      9  C   UNL     1      -6.698  -1.928   5.224  0.00  0.00    +0.000 A 
ATOM     10  C   UNL     1      -5.721  -1.978   4.249  0.00  0.00    +0.007 A 
ATOM     11  C   UNL     1      -4.673  -1.071   4.263  0.00  0.00    -0.010 A 
ATOM     12  C   UNL     1      -3.637  -1.134   3.171  0.00  0.00    +0.124 C 
ATOM     13  N   UNL     1      -2.381  -0.509   3.600  0.00  0.00    -0.369 NA
ATOM     14  I   UNL     1      -2.252   3.741   4.226  0.00  0.00    -0.045 I 
ATOM     15  H   UNL     1      -3.418   1.421   6.033  0.00  0.00    +0.153 HD
ATOM     16  H   UNL     1      -1.912  -1.108   4.262  0.00  0.00    +0.129 HD
ENDROOT
BRANCH   1  18
ATOM     17  N   UNL     1      -1.725  -1.749   0.465  0.00  0.00    -0.267 N 
ATOM     18  C   UNL     1      -2.195  -0.698   1.166  0.00  0.00    +0.239 C 
ATOM     19  O   UNL     1      -3.170  -0.094   0.773  0.00  0.00    -0.273 OA
BRANCH  17  20
ATOM     20  C   UNL     1      -0.662  -2.509   0.970  0.00  0.00    +0.078 A 
ATOM     21  C   UNL     1       0.646  -2.162   0.668  0.00  0.00    +0.027 A 
ATOM     22  C   UNL     1       1.693  -2.913   1.167  0.00  0.00    +0.002 A 
ATOM     23  C   UNL     1       1.440  -4.012   1.968  0.00  0.00    +0.004 A 
ATOM     24  C   UNL     1       0.139  -4.364   2.274  0.00  0.00    +0.047 A 
ATOM     25  C   UNL     1      -0.916  -3.612   1.782  0.00  0.00    +0.138 A 
BRANCH  25  26
ATOM     26  O   UNL     1      -2.196  -3.953   2.087  0.00  0.00    -0.505 OA
ATOM     27  H   UNL     1      -2.599  -4.571   1.461  0.00  0.00    +0.292 HD
ENDBRANCH  25  26
ENDBRANCH  17  20
BRANCH  17  29
ATOM     28  C   UNL     1      -3.556  -2.978  -0.594  0.00  0.00    +0.025 C 
ATOM     29  C   UNL     1      -2.326  -2.096  -0.825  0.00  0.00    +0.110 C 
ENDBRANCH  17  29
ENDBRANCH   1  18
TORSDOF 4
