REMARK  Name = ZINC63952533
REMARK  11 active torsions:
REMARK  status: ('A' for Active; 'I' for Inactive)
REMARK    1  A    between atoms: C_1  and  O_2
REMARK    2  A    between atoms: O_2  and  C_3
REMARK    3  A    between atoms: C_6  and  C_9
REMARK    4  A    between atoms: C_9  and  C_11
REMARK    5  A    between atoms: C_9  and  O_29
REMARK    6  A    between atoms: C_11  and  C_12
REMARK    7  A    between atoms: C_12  and  N_13
REMARK    8  A    between atoms: N_13  and  CA_14
REMARK    9  A    between atoms: CA_14  and  CB_16
REMARK   10  A    between atoms: CA_14  and  C_26
REMARK   11  A    between atoms: CB_16  and  CG_17
REMARK                            x       y       z     vdW  Elec       q    Type
REMARK                         _______ _______ _______ _____ _____    ______ ____
ROOT
ATOM      1  N   UNL     1       1.139  -3.746  -7.696  0.00  0.00    +0.388 N 
ATOM      2  H1  UNL     1       0.502  -4.434  -7.324  0.00  0.00    -0.085 HD
ATOM      3  H2  UNL     1       0.627  -2.913  -7.946  0.00  0.00    -0.085 HD
ENDROOT
BRANCH   1   4
ATOM      4  C   ACE A   0       2.148  -3.414  -6.681  0.00  0.00    -0.079 C 
BRANCH   4   5
ATOM      5  C   UNL     1       1.454  -2.849  -5.439  0.00  0.00    +0.017 C 
BRANCH   5   6
ATOM      6  C   UNL     1       2.505  -2.503  -4.381  0.00  0.00    +0.143 C 
BRANCH   6  10
ATOM      7  C   UNL     1       0.606  -0.607  -1.056  0.00  0.00    +0.120 A 
ATOM      8  C   UNL     1       1.173   0.161  -2.062  0.00  0.00    +0.046 A 
ATOM      9  C   UNL     1       1.786  -0.455  -3.136  0.00  0.00    +0.010 A 
ATOM     10  C   UNL     1       1.835  -1.835  -3.209  0.00  0.00    -0.019 A 
ATOM     11  C   UNL     1       1.270  -2.602  -2.207  0.00  0.00    +0.010 A 
ATOM     12  C   UNL     1       0.661  -1.992  -1.128  0.00  0.00    +0.046 A 
BRANCH   7  14
ATOM     13  C   UNL     1      -0.017   1.425   0.010  0.00  0.00    +0.277 C 
ATOM     14  O   UNL     1       0.002  -0.004   0.002  0.00  0.00    -0.495 OA
ENDBRANCH   7  14
ENDBRANCH   6  10
BRANCH   6  15
ATOM     15  O   UNL     1       3.151  -3.700  -3.942  0.00  0.00    -0.387 OA
ATOM     16  H   UNL     1       2.551  -4.348  -3.548  0.00  0.00    +0.210 HD
ENDBRANCH   6  15
ENDBRANCH   5   6
ENDBRANCH   4   5
ENDBRANCH   1   4
BRANCH   1  17
ATOM     17  CA  UNL     1       1.805  -4.288  -8.888  0.00  0.00    +0.048 C 
BRANCH  17  18
ATOM     18  C   UNL     1       2.664  -3.219  -9.514  0.00  0.00    +0.343 C 
ATOM     19  O   UNL     1       2.716  -2.109  -9.013  0.00  0.00    -0.248 OA
ATOM     20  OXT UNL     1       3.306  -3.465 -10.521  0.00  0.00    -0.248 OA
ENDBRANCH  17  18
BRANCH  17  21
ATOM     21  CB  UNL     1       0.750  -4.749  -9.896  0.00  0.00    +0.028 C 
BRANCH  21  22
ATOM     22  CG  UNL     1      -0.029  -5.901  -9.316  0.00  0.00    -0.043 C 
ATOM     23  CD2 UNL     1      -1.211  -5.836  -8.662  0.00  0.00    -0.001 A 
ATOM     24  CE3 UNL     1      -2.091  -4.716  -8.308  0.00  0.00    +0.010 A 
ATOM     25  CZ3 UNL     1      -3.237  -4.970  -7.635  0.00  0.00    +0.001 A 
ATOM     26  CH2 UNL     1      -3.603  -6.272  -7.267  0.00  0.00    +0.002 A 
ATOM     27  CZ2 UNL     1      -2.846  -7.351  -7.556  0.00  0.00    +0.026 A 
ATOM     28  CE2 UNL     1      -1.621  -7.202  -8.262  0.00  0.00    +0.043 A 
ATOM     29  NE1 UNL     1      -0.727  -8.077  -8.654  0.00  0.00    -0.380 N 
ATOM     30  CD1 UNL     1       0.350  -7.365  -9.352  0.00  0.00    +0.144 C 
ATOM     31  HE1 UNL     1      -0.771  -9.035  -8.509  0.00  0.00    +0.160 HD
ENDBRANCH  21  22
ENDBRANCH  17  21
ENDBRANCH   1  17
TORSDOF 10
