REMARK  Name = ZINC21221723
REMARK  6 active torsions:
REMARK  status: ('A' for Active; 'I' for Inactive)
REMARK    1  A    between atoms: C_1  and  C_2
REMARK    2  A    between atoms: C_2  and  O_3
REMARK    3  A    between atoms: O_3  and  C_4
REMARK    4  A    between atoms: C_6  and  C_11
REMARK    5  A    between atoms: C_9  and  O_10
REMARK    6  A    between atoms: C_16  and  C_21
REMARK                            x       y       z     vdW  Elec       q    Type
REMARK                         _______ _______ _______ _____ _____    ______ ____
ROOT
ATOM      1  C   UNL     1      -0.013   1.086   0.008  0.00  0.00    +0.136 C 
ATOM      2  C   UNL     1      -0.898   1.420   1.185  0.00  0.00    +0.036 C 
ATOM      3  C   UNL     1      -0.652   2.358   2.115  0.00  0.00    +0.017 C 
ATOM      4  C   UNL     1      -1.654   2.617   3.229  0.00  0.00    +0.060 C 
ATOM      5  C   UNL     1      -2.360   1.315   3.607  0.00  0.00    +0.039 C 
ATOM      6  C   UNL     1      -3.080   0.795   2.357  0.00  0.00    +0.088 C 
ATOM      7  C   UNL     1      -2.074   0.637   1.256  0.00  0.00    +0.163 C 
ATOM      8  O   UNL     1      -2.276  -0.195   0.394  0.00  0.00    -0.292 OA
ATOM      9  N   UNL     1       0.452   3.145   2.152  0.00  0.00    -0.316 N 
ATOM     10  C   UNL     1       0.978   3.825   1.059  0.00  0.00    +0.052 A 
ATOM     11  C   UNL     1       1.068   5.205   1.021  0.00  0.00    +0.025 A 
ATOM     12  C   UNL     1       1.701   5.815  -0.049  0.00  0.00    +0.002 A 
ATOM     13  C   UNL     1       2.236   5.051  -1.070  0.00  0.00    +0.002 A 
ATOM     14  C   UNL     1       2.128   3.671  -1.044  0.00  0.00    +0.025 A 
ATOM     15  C   UNL     1       1.480   3.059   0.017  0.00  0.00    +0.049 A 
ATOM     16  N   UNL     1       1.308   1.677   0.065  0.00  0.00    -0.331 N 
ATOM     17  H   UNL     1       0.999   3.282   3.097  0.00  0.00    +0.152 HD
ATOM     18  H   UNL     1       2.195   1.033   0.148  0.00  0.00    +0.147 HD
ENDROOT
BRANCH   1  21
ATOM     19  C   UNL     1      -1.748   1.076  -3.348  0.00  0.00    +0.162 A 
ATOM     20  C   UNL     1      -1.121   0.642  -2.191  0.00  0.00    +0.055 A 
ATOM     21  C   UNL     1      -0.695   1.560  -1.250  0.00  0.00    -0.019 A 
ATOM     22  C   UNL     1      -0.897   2.912  -1.457  0.00  0.00    +0.009 A 
ATOM     23  C   UNL     1      -1.517   3.352  -2.611  0.00  0.00    +0.049 A 
ATOM     24  C   UNL     1      -1.947   2.437  -3.559  0.00  0.00    +0.158 A 
BRANCH  24  25
ATOM     25  O   UNL     1      -2.562   2.868  -4.693  0.00  0.00    -0.503 OA
ATOM     26  H   UNL     1      -2.718   3.944  -4.858  0.00  0.00    +0.292 HD
ENDBRANCH  24  25
BRANCH  19  27
ATOM     27  O   UNL     1      -2.168   0.174  -4.275  0.00  0.00    -0.489 OA
BRANCH  27  29
ATOM     28  C   UNL     1      -2.468  -2.062  -5.140  0.00  0.00    +0.048 C 
ATOM     29  C   UNL     1      -1.930  -1.206  -3.991  0.00  0.00    +0.226 C 
ENDBRANCH  27  29
ENDBRANCH  19  27
ENDBRANCH   1  21
BRANCH   5  30
ATOM     30  C   UNL     1      -3.361   1.577   4.702  0.00  0.00    -0.006 A 
ATOM     31  C   UNL     1      -3.419   1.049   5.949  0.00  0.00    +0.011 A 
ATOM     32  C   UNL     1      -4.440   1.440   6.795  0.00  0.00    +0.008 A 
ATOM     33  C   UNL     1      -5.353   2.339   6.353  0.00  0.00    +0.045 A 
ATOM     34  S   UNL     1      -4.775   2.667   4.696  0.00  0.00    -0.101 S 
ENDBRANCH   5  30
TORSDOF 5
