REMARK  Name = ZINC36876782
REMARK  9 active torsions:
REMARK  status: ('A' for Active; 'I' for Inactive)
REMARK    1  A    between atoms: C_1  and  C_2
REMARK    2  A    between atoms: C_3  and  C_15
REMARK    3  A    between atoms: C_6  and  C_8
REMARK    4  A    between atoms: C_8  and  C_10
REMARK    5  A    between atoms: C_8  and  N_14
REMARK    6  A    between atoms: C_10  and  C_11
REMARK    7  A    between atoms: C_11  and  C_12
REMARK    8  A    between atoms: C_11  and  C_13
REMARK    9  A    between atoms: C_19  and  N_21
REMARK                            x       y       z     vdW  Elec       q    Type
REMARK                         _______ _______ _______ _____ _____    ______ ____
ROOT
ATOM      1  C   UNL     1      -0.018   1.503   0.010  0.00  0.00    +0.068 C 
ATOM      2  C   UNL     1       0.002  -0.004   0.002  0.00  0.00    +0.064 A 
ATOM      3  C   UNL     1       0.008  -0.799  -1.102  0.00  0.00    +0.069 A 
ATOM      4  N   UNL     1       0.028  -2.098  -0.648  0.00  0.00    -0.343 N 
ATOM      5  H   UNL     1       0.036  -2.900  -1.195  0.00  0.00    +0.167 HD
ATOM      6  C   UNL     1       0.033  -2.047   0.701  0.00  0.00    +0.093 A 
ATOM      7  N   UNL     1       0.024  -0.797   1.079  0.00  0.00    -0.239 NA
ENDROOT
BRANCH   3   8
ATOM      8  C   UNL     1      -0.005  -0.354  -2.513  0.00  0.00    +0.002 A 
ATOM      9  C   UNL     1      -0.870   0.662  -2.919  0.00  0.00    +0.010 A 
ATOM     10  C   UNL     1      -0.877   1.073  -4.236  0.00  0.00    +0.003 A 
ATOM     11  C   UNL     1      -0.029   0.479  -5.154  0.00  0.00    +0.033 A 
ATOM     12  C   UNL     1       0.832  -0.529  -4.757  0.00  0.00    +0.127 A 
ATOM     13  C   UNL     1       0.852  -0.945  -3.442  0.00  0.00    +0.042 A 
BRANCH  12  14
ATOM     14  N   UNL     1       1.735  -1.160  -5.745  0.00  0.00    +0.056 N 
ATOM     15  O   UNL     1       1.722  -0.794  -6.897  0.00  0.00    -0.126 OA
ATOM     16  O   UNL     1       2.488  -2.041  -5.400  0.00  0.00    -0.126 OA
ENDBRANCH  12  14
ENDBRANCH   3   8
BRANCH   6  17
ATOM     17  C   UNL     1       0.053  -3.240   1.622  0.00  0.00    -0.007 C 
BRANCH  17  18
ATOM     18  N   UNL     1      -1.198  -3.287   2.390  0.00  0.00    +0.385 N 
ATOM     19  H   UNL     1      -1.290  -2.443   2.935  0.00  0.00    -0.089 HD
ATOM     20  H   UNL     1      -1.979  -3.365   1.756  0.00  0.00    -0.089 HD
ATOM     21  H   UNL     1      -1.184  -4.086   3.007  0.00  0.00    -0.089 HD
ENDBRANCH  17  18
BRANCH  17  22
ATOM     22  C   UNL     1       1.238  -3.122   2.583  0.00  0.00    -0.006 C 
BRANCH  22  23
ATOM     23  C   UNL     1       1.333  -4.390   3.434  0.00  0.00    -0.018 C 
ATOM     24  C   UNL     1       1.658  -5.584   2.535  0.00  0.00    +0.007 C 
ATOM     25  C   UNL     1       2.438  -4.222   4.479  0.00  0.00    +0.007 C 
ENDBRANCH  22  23
ENDBRANCH  17  22
ENDBRANCH   6  17
TORSDOF 6
