REMARK  Name = ZINC22681400
REMARK  8 active torsions:
REMARK  status: ('A' for Active; 'I' for Inactive)
REMARK    1  A    between atoms: C_1  and  C_2
REMARK    2  A    between atoms: N_6  and  C_14
REMARK    3  A    between atoms: C_14  and  C_15
REMARK    4  A    between atoms: N_17  and  C_18
REMARK    5  A    between atoms: C_18  and  C_19
REMARK    6  A    between atoms: C_19  and  C_21
REMARK    7  A    between atoms: C_19  and  N_26
REMARK    8  A    between atoms: C_29  and  C_32
REMARK                            x       y       z     vdW  Elec       q    Type
REMARK                         _______ _______ _______ _____ _____    ______ ____
ROOT
ATOM      1  C   UNL     1       4.607   1.825  -2.918  0.00  0.00    +0.231 C 
ATOM      2  O   UNL     1       3.413   1.773  -2.710  0.00  0.00    -0.274 OA
ATOM      3  N   UNL     1       5.098   1.466  -4.121  0.00  0.00    -0.315 N 
ATOM      4  H   UNL     1       6.052   1.508  -4.287  0.00  0.00    +0.149 HD
ENDROOT
BRANCH   1   5
ATOM      5  C   UNL     1       5.541   2.291  -1.832  0.00  0.00    +0.209 C 
BRANCH   5  10
ATOM      6  C   UNL     1       2.212   1.787   1.204  0.00  0.00    +0.062 C 
ATOM      7  C   UNL     1       3.691   2.025   1.514  0.00  0.00    +0.256 C 
ATOM      8  C   UNL     1       4.520   1.677   0.304  0.00  0.00    +0.261 C 
ATOM      9  O   UNL     1       4.961   0.555   0.170  0.00  0.00    -0.271 OA
ATOM     10  N   UNL     1       4.769   2.620  -0.631  0.00  0.00    -0.256 N 
ATOM     11  C   UNL     1       4.277   3.918  -0.435  0.00  0.00    +0.079 A 
ATOM     12  C   UNL     1       4.225   4.821  -1.484  0.00  0.00    +0.027 A 
ATOM     13  C   UNL     1       3.737   6.097  -1.268  0.00  0.00    +0.002 A 
ATOM     14  C   UNL     1       3.303   6.473  -0.011  0.00  0.00    +0.004 A 
ATOM     15  C   UNL     1       3.352   5.575   1.041  0.00  0.00    +0.047 A 
ATOM     16  C   UNL     1       3.838   4.296   0.833  0.00  0.00    +0.143 A 
ATOM     17  O   UNL     1       3.891   3.400   1.853  0.00  0.00    -0.478 OA
ENDBRANCH   5  10
ENDBRANCH   1   5
BRANCH   3  18
ATOM     18  C   UNL     1       4.189   1.014  -5.178  0.00  0.00    +0.094 C 
BRANCH  18  19
ATOM     19  C   UNL     1       4.982   0.773  -6.464  0.00  0.00    -0.013 C 
BRANCH  19  20
ATOM     20  N   UNL     1       6.084  -0.159  -6.193  0.00  0.00    +0.386 N 
ATOM     21  C   UNL     1       5.539  -1.427  -5.694  0.00  0.00    -0.078 C 
ATOM     22  C   UNL     1       6.686  -2.374  -5.334  0.00  0.00    -0.015 C 
ATOM     23  C   UNL     1       7.535  -2.636  -6.581  0.00  0.00    -0.018 C 
ATOM     24  C   UNL     1       8.038  -1.300  -7.135  0.00  0.00    -0.015 C 
ATOM     25  C   UNL     1       6.840  -0.393  -7.429  0.00  0.00    -0.078 C 
ATOM     26  C   UNL     1       8.730  -3.518  -6.210  0.00  0.00    +0.007 C 
ATOM     27  H   UNL     1       6.696   0.239  -5.496  0.00  0.00    -0.081 HD
ENDBRANCH  19  20
BRANCH  19  28
ATOM     28  C   UNL     1       5.541   2.082  -6.961  0.00  0.00    -0.022 A 
ATOM     29  C   UNL     1       5.072   2.894  -7.939  0.00  0.00    +0.009 A 
ATOM     30  C   UNL     1       5.756   4.059  -8.228  0.00  0.00    +0.008 A 
ATOM     31  C   UNL     1       6.877   4.356  -7.525  0.00  0.00    +0.045 A 
ATOM     32  S   UNL     1       6.990   2.967  -6.408  0.00  0.00    -0.103 S 
ENDBRANCH  19  28
ENDBRANCH  18  19
ENDBRANCH   3  18
TORSDOF 6
