REMARK  Name = ZINC02406434
REMARK  7 active torsions:
REMARK  status: ('A' for Active; 'I' for Inactive)
REMARK    1  A    between atoms: C_1  and  C_2
REMARK    2  A    between atoms: C_2  and  C_33
REMARK    3  A    between atoms: C_6  and  C_22
REMARK    4  A    between atoms: N_11  and  C_16
REMARK    5  A    between atoms: C_16  and  C_17
REMARK    6  A    between atoms: C_25  and  O_28
REMARK    7  A    between atoms: O_28  and  C_29
REMARK                            x       y       z     vdW  Elec       q    Type
REMARK                         _______ _______ _______ _____ _____    ______ ____
ROOT
ATOM      1  C   UNL     1      -0.019   1.526   0.010  0.00  0.00    +0.012 C 
ATOM      2  C   UNL     1       0.002  -0.004   0.002  0.00  0.00    -0.021 C 
ATOM      3  C   UNL     1       0.740  -0.501  -1.242  0.00  0.00    +0.081 C 
ATOM      4  C   UNL     1       2.167  -0.005  -1.220  0.00  0.00    +0.115 C 
ATOM      5  C   UNL     1       2.809   0.189  -0.053  0.00  0.00    +0.045 C 
ATOM      6  C   UNL     1       4.238   0.676  -0.025  0.00  0.00    +0.094 C 
ATOM      7  C   UNL     1       4.610   1.284  -1.345  0.00  0.00    +0.064 A 
ATOM      8  C   UNL     1       5.723   2.111  -1.460  0.00  0.00    +0.107 A 
ATOM      9  N   UNL     1       6.513   2.391  -0.356  0.00  0.00    -0.344 N 
ATOM     10  N   UNL     1       6.016   2.629  -2.652  0.00  0.00    -0.313 N 
ATOM     11  C   UNL     1       5.267   2.365  -3.704  0.00  0.00    +0.204 A 
ATOM     12  N   UNL     1       4.207   1.586  -3.630  0.00  0.00    -0.203 NA
ATOM     13  C   UNL     1       3.849   1.031  -2.474  0.00  0.00    +0.229 A 
ATOM     14  O   UNL     1       2.767   0.231  -2.402  0.00  0.00    -0.441 OA
ATOM     15  C   UNL     1       2.172  -0.053   1.180  0.00  0.00    +0.164 C 
ATOM     16  O   UNL     1       2.790   0.116   2.212  0.00  0.00    -0.292 OA
ATOM     17  C   UNL     1       0.743  -0.516   1.242  0.00  0.00    +0.086 C 
ATOM     18  C   UNL     1      -1.432  -0.538   0.002  0.00  0.00    +0.012 C 
ATOM     19  H   UNL     1       6.291   2.009   0.508  0.00  0.00    +0.144 HD
ATOM     20  H   UNL     1       7.287   2.968  -0.447  0.00  0.00    +0.144 HD
ENDROOT
BRANCH   6  21
ATOM     21  C   UNL     1       5.155  -0.484   0.261  0.00  0.00    -0.035 A 
ATOM     22  C   UNL     1       5.190  -1.565  -0.601  0.00  0.00    +0.008 A 
ATOM     23  C   UNL     1       6.030  -2.631  -0.341  0.00  0.00    +0.046 A 
ATOM     24  C   UNL     1       6.839  -2.616   0.786  0.00  0.00    +0.120 A 
ATOM     25  C   UNL     1       6.802  -1.530   1.649  0.00  0.00    +0.046 A 
ATOM     26  C   UNL     1       5.965  -0.465   1.382  0.00  0.00    +0.008 A 
BRANCH  24  27
ATOM     27  O   UNL     1       7.666  -3.663   1.044  0.00  0.00    -0.495 OA
ATOM     28  C   UNL     1       8.470  -3.579   2.222  0.00  0.00    +0.277 C 
ENDBRANCH  24  27
ENDBRANCH   6  21
BRANCH  10  29
ATOM     29  C   UNL     1       7.184   3.501  -2.796  0.00  0.00    +0.198 C 
BRANCH  29  30
ATOM     30  C   UNL     1       8.415   2.660  -3.015  0.00  0.00    +0.124 A 
ATOM     31  C   UNL     1       8.897   2.267  -4.208  0.00  0.00    +0.046 A 
ATOM     32  C   UNL     1      10.057   1.502  -3.950  0.00  0.00    +0.041 A 
ATOM     33  C   UNL     1      10.214   1.472  -2.614  0.00  0.00    +0.195 A 
ATOM     34  O   UNL     1       9.220   2.180  -2.054  0.00  0.00    -0.466 OA
ENDBRANCH  29  30
ENDBRANCH  10  29
TORSDOF 4
