REMARK  Name = ZINC15860454
REMARK  7 active torsions:
REMARK  status: ('A' for Active; 'I' for Inactive)
REMARK    1  A    between atoms: C_1  and  C_2
REMARK    2  A    between atoms: C_5  and  C_7
REMARK    3  A    between atoms: C_7  and  C_9
REMARK    4  A    between atoms: C_7  and  N_53
REMARK    5  A    between atoms: C_9  and  N_10
REMARK    6  A    between atoms: C_11  and  C_13
REMARK    7  A    between atoms: C_15  and  C_18
REMARK                            x       y       z     vdW  Elec       q    Type
REMARK                         _______ _______ _______ _____ _____    ______ ____
ROOT
ATOM      1  N   UNL     1      -5.858   1.734   3.785  0.00  0.00    -0.311 N 
ATOM      2  C   UNL     1      -6.772   0.783   4.064  0.00  0.00    +0.266 C 
ATOM      3  O   UNL     1      -6.471  -0.391   3.982  0.00  0.00    -0.268 OA
ATOM      4  H   UNL     1      -6.098   2.671   3.851  0.00  0.00    +0.149 HD
ENDROOT
BRANCH   2   5
ATOM      5  C   UNL     1      -8.145   1.171   4.471  0.00  0.00    +0.168 A 
ATOM      6  C   UNL     1      -9.216   0.297   4.790  0.00  0.00    +0.086 A 
ATOM      7  C   UNL     1     -10.246   1.142   5.098  0.00  0.00    +0.168 A 
ATOM      8  O   UNL     1      -9.770   2.390   4.948  0.00  0.00    -0.354 OA
ATOM      9  N   UNL     1      -8.611   2.389   4.602  0.00  0.00    -0.073 NA
BRANCH   7  10
ATOM     10  C   UNL     1     -11.614   0.759   5.508  0.00  0.00    +0.020 A 
ATOM     11  C   UNL     1     -11.963  -0.588   5.614  0.00  0.00    +0.013 A 
ATOM     12  C   UNL     1     -13.239  -0.939   6.003  0.00  0.00    +0.016 A 
ATOM     13  C   UNL     1     -14.177   0.042   6.276  0.00  0.00    +0.018 A 
ATOM     14  C   UNL     1     -13.838   1.380   6.167  0.00  0.00    +0.016 A 
ATOM     15  C   UNL     1     -12.564   1.744   5.785  0.00  0.00    +0.013 A 
ATOM     16 BR   UNL     1     -15.926  -0.448   6.800  0.00  0.00    -0.050 Br
ENDBRANCH   7  10
ENDBRANCH   2   5
BRANCH   1  17
ATOM     17  C   UNL     1      -4.502   1.351   3.383  0.00  0.00    +0.097 C 
BRANCH  17  18
ATOM     18  C   UNL     1      -3.672   2.610   3.127  0.00  0.00    +0.016 C 
BRANCH  18  24
ATOM     19  C   UNL     1      -4.611   2.720   0.899  0.00  0.00    -0.078 C 
ATOM     20  C   UNL     1      -5.451   3.582  -0.046  0.00  0.00    -0.019 C 
ATOM     21  C   UNL     1      -4.700   4.883  -0.345  0.00  0.00    -0.004 C 
ATOM     22  C   UNL     1      -4.407   5.608   0.971  0.00  0.00    -0.019 C 
ATOM     23  C   UNL     1      -3.596   4.687   1.886  0.00  0.00    -0.078 C 
ATOM     24  N   UNL     1      -4.384   3.465   2.155  0.00  0.00    +0.387 N 
ATOM     25  H   UNL     1      -5.292   3.735   2.551  0.00  0.00    -0.081 HD
ENDBRANCH  18  24
BRANCH  18  30
ATOM     26  C   UNL     1      -0.063   0.961   0.013  0.00  0.00    +0.086 C 
ATOM     27  C   UNL     1      -0.747   1.502   1.242  0.00  0.00    +0.102 A 
ATOM     28  C   UNL     1      -0.145   1.827   2.400  0.00  0.00    +0.044 A 
ATOM     29  C   UNL     1      -1.156   2.289   3.273  0.00  0.00    +0.043 A 
ATOM     30  C   UNL     1      -2.317   2.219   2.596  0.00  0.00    +0.093 A 
ATOM     31  O   UNL     1      -2.062   1.747   1.365  0.00  0.00    -0.466 OA
ENDBRANCH  18  30
ENDBRANCH  17  18
ENDBRANCH   1  17
TORSDOF 6
