REMARK  Name = ZINC12487860
REMARK  10 active torsions:
REMARK  status: ('A' for Active; 'I' for Inactive)
REMARK    1  A    between atoms: C_1  and  C_2
REMARK    2  A    between atoms: C_5  and  C_8
REMARK    3  A    between atoms: C_8  and  C_10
REMARK    4  A    between atoms: C_8  and  N_19
REMARK    5  A    between atoms: N_12  and  C_13
REMARK    6  A    between atoms: C_13  and  C_14
REMARK    7  A    between atoms: N_19  and  C_20
REMARK    8  A    between atoms: C_27  and  C_29
REMARK    9  A    between atoms: C_29  and  N_30
REMARK   10  A    between atoms: C_31  and  C_33
REMARK                            x       y       z     vdW  Elec       q    Type
REMARK                         _______ _______ _______ _____ _____    ______ ____
ROOT
ATOM      1  N   UNL     1      -3.417   1.561   1.004  0.00  0.00    -0.254 N 
ATOM      2  C   UNL     1      -4.524   0.935   1.451  0.00  0.00    +0.238 C 
ATOM      3  O   UNL     1      -4.807  -0.168   1.036  0.00  0.00    -0.274 OA
ENDROOT
BRANCH   1   4
ATOM      4  C   UNL     1      -3.034   2.787   1.558  0.00  0.00    +0.038 A 
ATOM      5  C   UNL     1      -3.788   3.927   1.315  0.00  0.00    +0.025 A 
ATOM      6  C   UNL     1      -3.411   5.135   1.869  0.00  0.00    +0.022 A 
ATOM      7  C   UNL     1      -2.275   5.212   2.656  0.00  0.00    +0.041 A 
ATOM      8  C   UNL     1      -1.518   4.078   2.895  0.00  0.00    +0.022 A 
ATOM      9  C   UNL     1      -1.895   2.867   2.349  0.00  0.00    +0.025 A 
ATOM     10 CL   UNL     1      -1.799   6.733   3.344  0.00  0.00    -0.084 Cl
ENDBRANCH   1   4
BRANCH   1  11
ATOM     11  C   UNL     1      -2.616   0.957  -0.064  0.00  0.00    +0.197 C 
BRANCH  11  16
ATOM     12  C   UNL     1       2.148   4.111  -0.928  0.00  0.00    +0.044 C 
ATOM     13  C   UNL     1       0.906   3.289  -0.700  0.00  0.00    -0.050 A 
ATOM     14  C   UNL     1       1.013   1.952  -0.367  0.00  0.00    +0.004 A 
ATOM     15  C   UNL     1      -0.127   1.198  -0.158  0.00  0.00    +0.006 A 
ATOM     16  C   UNL     1      -1.374   1.780  -0.287  0.00  0.00    -0.018 A 
ATOM     17  C   UNL     1      -1.481   3.119  -0.615  0.00  0.00    +0.006 A 
ATOM     18  C   UNL     1      -0.341   3.873  -0.824  0.00  0.00    +0.004 A 
ENDBRANCH  11  16
BRANCH  11  19
ATOM     19  C   UNL     1      -3.424   0.914  -1.335  0.00  0.00    +0.239 C 
ATOM     20  O   UNL     1      -4.558   1.345  -1.348  0.00  0.00    -0.273 OA
ATOM     21  N   UNL     1      -2.887   0.396  -2.458  0.00  0.00    -0.306 N 
ATOM     22  H   UNL     1      -1.981   0.051  -2.447  0.00  0.00    +0.149 HD
BRANCH  21  23
ATOM     23  C   UNL     1      -3.673   0.354  -3.694  0.00  0.00    +0.178 C 
BRANCH  23  24
ATOM     24  C   UNL     1      -2.849  -0.268  -4.792  0.00  0.00    +0.122 A 
ATOM     25  C   UNL     1      -2.797  -1.578  -5.091  0.00  0.00    +0.046 A 
ATOM     26  C   UNL     1      -1.906  -1.714  -6.181  0.00  0.00    +0.041 A 
ATOM     27  C   UNL     1      -1.468  -0.479  -6.482  0.00  0.00    +0.195 A 
ATOM     28  O   UNL     1      -2.046   0.394  -5.641  0.00  0.00    -0.466 OA
ENDBRANCH  23  24
ENDBRANCH  21  23
ENDBRANCH  11  19
ENDBRANCH   1  11
BRANCH   2  29
ATOM     29  C   UNL     1      -5.410   1.608   2.468  0.00  0.00    +0.201 C 
BRANCH  29  30
ATOM     30  N   UNL     1      -6.466   0.682   2.884  0.00  0.00    -0.302 N 
ATOM     31  C   UNL     1      -7.382   1.069   3.794  0.00  0.00    +0.251 C 
ATOM     32  O   UNL     1      -7.332   2.188   4.270  0.00  0.00    -0.270 OA
ATOM     33  H   UNL     1      -6.506  -0.210   2.505  0.00  0.00    +0.150 HD
BRANCH  31  34
ATOM     34  C   UNL     1      -8.439   0.142   4.210  0.00  0.00    +0.074 A 
ATOM     35  C   UNL     1      -9.462   0.337   5.124  0.00  0.00    +0.021 A 
ATOM     36  C   UNL     1     -10.328  -0.709   5.327  0.00  0.00    +0.008 A 
ATOM     37  C   UNL     1     -10.140  -1.867   4.643  0.00  0.00    +0.046 A 
ATOM     38  S   UNL     1      -8.739  -1.534   3.677  0.00  0.00    -0.092 S 
ENDBRANCH  31  34
ENDBRANCH  29  30
ENDBRANCH   2  29
TORSDOF 9
