REMARK  Name = ZINC02260786
REMARK  13 active torsions:
REMARK  status: ('A' for Active; 'I' for Inactive)
REMARK    1  A    between atoms: C_1  and  C_2
REMARK    2  A    between atoms: C_2  and  O_3
REMARK    3  A    between atoms: O_3  and  C_4
REMARK    4  A    between atoms: C_7  and  C_10
REMARK    5  A    between atoms: C_16  and  C_35
REMARK    6  A    between atoms: C_17  and  C_26
REMARK    7  A    between atoms: C_19  and  C_22
REMARK    8  A    between atoms: C_20  and  N_21
REMARK    9  A    between atoms: C_22  and  O_24
REMARK   10  A    between atoms: O_24  and  C_25
REMARK   11  A    between atoms: C_30  and  O_32
REMARK   12  A    between atoms: O_32  and  C_33
REMARK   13  A    between atoms: C_33  and  C_34
REMARK                            x       y       z     vdW  Elec       q    Type
REMARK                         _______ _______ _______ _____ _____    ______ ____
ROOT
ATOM      1  C   UNL     1      -3.678  -2.838  -0.491  0.00  0.00    +0.028 C 
ATOM      2  C   UNL     1      -3.493  -1.567  -0.052  0.00  0.00    +0.080 A 
ATOM      3  C   UNL     1      -2.346  -0.983   0.653  0.00  0.00    +0.271 A 
ATOM      4  O   UNL     1      -1.373  -1.661   0.926  0.00  0.00    -0.266 OA
ATOM      5  N   UNL     1      -2.396   0.321   0.990  0.00  0.00    -0.257 N 
ATOM      6  C   UNL     1      -3.532   1.029   0.647  0.00  0.00    +0.104 A 
ATOM      7  C   UNL     1      -3.726   2.344   0.918  0.00  0.00    +0.072 C 
ATOM      8  C   UNL     1      -2.630   3.098   1.646  0.00  0.00    +0.102 C 
ATOM      9  C   UNL     1      -1.404   2.286   2.010  0.00  0.00    +0.087 C 
ATOM     10  C   UNL     1      -1.361   0.978   1.662  0.00  0.00    +0.115 C 
ATOM     11  S   UNL     1      -4.578  -0.155  -0.176  0.00  0.00    -0.065 S 
ENDROOT
BRANCH   1  15
ATOM     12  C   UNL     1      -0.480  -5.619  -0.350  0.00  0.00    +0.121 A 
ATOM     13  C   UNL     1      -1.765  -6.024  -0.009  0.00  0.00    +0.046 A 
ATOM     14  C   UNL     1      -2.807  -5.125  -0.053  0.00  0.00    +0.011 A 
ATOM     15  C   UNL     1      -2.571  -3.801  -0.442  0.00  0.00    -0.024 A 
ATOM     16  C   UNL     1      -1.275  -3.400  -0.790  0.00  0.00    +0.011 A 
ATOM     17  C   UNL     1      -0.239  -4.305  -0.737  0.00  0.00    +0.046 A 
BRANCH  12  18
ATOM     18  O   UNL     1       0.544  -6.509  -0.305  0.00  0.00    -0.492 OA
BRANCH  18  20
ATOM     19  C   UNL     1       2.857  -7.164  -0.558  0.00  0.00    +0.048 C 
ATOM     20  C   UNL     1       1.839  -6.027  -0.669  0.00  0.00    +0.225 C 
ENDBRANCH  18  20
ENDBRANCH  12  18
ENDBRANCH   1  15
BRANCH   8  21
ATOM     21  C   UNL     1      -2.197   4.253   0.780  0.00  0.00    -0.031 A 
ATOM     22  C   UNL     1      -1.684   4.016  -0.482  0.00  0.00    +0.005 A 
ATOM     23  C   UNL     1      -1.286   5.073  -1.278  0.00  0.00    +0.004 A 
ATOM     24  C   UNL     1      -1.401   6.370  -0.816  0.00  0.00    +0.045 A 
ATOM     25  C   UNL     1      -1.916   6.610   0.450  0.00  0.00    +0.121 A 
ATOM     26  C   UNL     1      -2.319   5.548   1.246  0.00  0.00    +0.050 A 
BRANCH  25  27
ATOM     27  O   UNL     1      -2.031   7.885   0.907  0.00  0.00    -0.492 OA
BRANCH  27  28
ATOM     28  C   UNL     1      -1.601   8.929   0.031  0.00  0.00    +0.225 C 
ATOM     29  C   UNL     1      -1.806  10.283   0.714  0.00  0.00    +0.048 C 
ENDBRANCH  27  28
ENDBRANCH  25  27
ENDBRANCH   8  21
BRANCH  10  30
ATOM     30  N   UNL     1      -0.244   0.256   1.993  0.00  0.00    -0.344 N 
ATOM     31  H   UNL     1       0.630   0.673   1.957  0.00  0.00    +0.144 HD
ATOM     32  H   UNL     1      -0.329  -0.671   2.267  0.00  0.00    +0.144 HD
ENDBRANCH  10  30
BRANCH   9  33
ATOM     33  C   UNL     1      -0.330   2.880   2.690  0.00  0.00    +0.339 C 
ATOM     34  O   UNL     1       0.602   2.195   3.073  0.00  0.00    -0.245 OA
BRANCH  33  35
ATOM     35  O   UNL     1      -0.328   4.211   2.920  0.00  0.00    -0.465 OA
ATOM     36  C   UNL     1       0.797   4.748   3.617  0.00  0.00    +0.280 C 
ENDBRANCH  33  35
ENDBRANCH   9  33
BRANCH   7  37
ATOM     37  C   UNL     1      -4.935   3.004   0.528  0.00  0.00    +0.098 C 
ATOM     38  N   UNL     1      -5.895   3.527   0.218  0.00  0.00    -0.191 NA
ENDBRANCH   7  37
TORSDOF 10
