REMARK  Name = ZINC49302801
REMARK  10 active torsions:
REMARK  status: ('A' for Active; 'I' for Inactive)
REMARK    1  A    between atoms: C_1  and  C_2
REMARK    2  A    between atoms: C_2  and  C_3
REMARK    3  A    between atoms: C_7  and  C_28
REMARK    4  A    between atoms: C_8  and  N_9
REMARK    5  A    between atoms: C_10  and  C_12
REMARK    6  A    between atoms: N_14  and  C_15
REMARK    7  A    between atoms: C_15  and  C_17
REMARK    8  A    between atoms: C_15  and  C_18
REMARK    9  A    between atoms: C_22  and  S_24
REMARK   10  A    between atoms: S_24  and  N_27
REMARK                            x       y       z     vdW  Elec       q    Type
REMARK                         _______ _______ _______ _____ _____    ______ ____
ROOT
ATOM      1  C   UNL     1      -3.472  -0.212   3.618  0.00  0.00    +0.300 C 
ATOM      2  O   UNL     1      -4.016   0.281   2.651  0.00  0.00    -0.265 OA
ATOM      3  N   UNL     1      -4.190  -0.495   4.723  0.00  0.00    -0.301 N 
ATOM      4  H   UNL     1      -3.755  -0.889   5.496  0.00  0.00    +0.150 HD
ENDROOT
BRANCH   1   6
ATOM      5  N   UNL     1      -1.290  -0.220   2.479  0.00  0.00    -0.277 N 
ATOM      6  C   UNL     1      -2.008  -0.504   3.584  0.00  0.00    +0.303 C 
ATOM      7  O   UNL     1      -1.464  -0.996   4.551  0.00  0.00    -0.265 OA
ATOM      8  H   UNL     1      -1.711   0.230   1.729  0.00  0.00    +0.155 HD
BRANCH   5  14
ATOM      9  C   UNL     1       1.042   0.400   2.537  0.00  0.00    -0.026 A 
ATOM     10  C   UNL     1       2.376   0.046   2.476  0.00  0.00    +0.005 A 
ATOM     11  C   UNL     1       2.734  -1.276   2.288  0.00  0.00    +0.001 A 
ATOM     12  C   UNL     1       1.758  -2.248   2.158  0.00  0.00    +0.005 A 
ATOM     13  C   UNL     1       0.423  -1.901   2.216  0.00  0.00    -0.029 A 
ATOM     14  C   UNL     1       0.060  -0.574   2.413  0.00  0.00    +0.040 A 
ATOM     15  C   UNL     1      -0.639  -2.961   2.074  0.00  0.00    +0.045 C 
BRANCH   9  17
ATOM     16  C   UNL     1       0.417   2.098   4.232  0.00  0.00    +0.009 C 
ATOM     17  C   UNL     1       0.653   1.842   2.742  0.00  0.00    +0.033 C 
ENDBRANCH   9  17
ENDBRANCH   5  14
ENDBRANCH   1   6
BRANCH   3  18
ATOM     18  C   UNL     1      -5.626  -0.209   4.757  0.00  0.00    +0.101 C 
ATOM     19  C   UNL     1      -5.846   1.249   5.166  0.00  0.00    +0.033 C 
BRANCH  18  20
ATOM     20  C   UNL     1      -6.296  -1.118   5.755  0.00  0.00    -0.026 A 
ATOM     21  C   UNL     1      -5.679  -1.394   6.962  0.00  0.00    +0.005 A 
ATOM     22  C   UNL     1      -6.294  -2.227   7.877  0.00  0.00    +0.002 A 
ATOM     23  C   UNL     1      -7.525  -2.784   7.587  0.00  0.00    +0.028 A 
ATOM     24  C   UNL     1      -8.142  -2.507   6.382  0.00  0.00    +0.105 A 
ATOM     25  C   UNL     1      -7.530  -1.670   5.468  0.00  0.00    +0.034 A 
BRANCH  24  26
ATOM     26  S   UNL     1      -9.712  -3.218   6.012  0.00  0.00    +0.056 S 
ATOM     27  O   UNL     1      -9.825  -3.238   4.596  0.00  0.00    -0.153 OA
ATOM     28  O   UNL     1      -9.822  -4.394   6.802  0.00  0.00    -0.153 OA
BRANCH  26  29
ATOM     29  N   UNL     1     -10.867  -2.167   6.564  0.00  0.00    -0.204 NA
ATOM     30  H   UNL     1     -10.604  -1.340   6.997  0.00  0.00    +0.144 HD
ATOM     31  H   UNL     1     -11.807  -2.379   6.454  0.00  0.00    +0.144 HD
ENDBRANCH  26  29
ENDBRANCH  24  26
ENDBRANCH  18  20
ENDBRANCH   3  18
TORSDOF 7
