REMARK  Name = ZINC01699695
REMARK  1 active torsions:
REMARK  status: ('A' for Active; 'I' for Inactive)
REMARK    1  A    between atoms: C_6  and  N_7
REMARK                            x       y       z     vdW  Elec       q    Type
REMARK                         _______ _______ _______ _____ _____    ______ ____
ROOT
ATOM      1  C   UNL     1       1.177   1.786   0.000  0.00  0.00    +0.033 A 
ATOM      2  C   UNL     1      -0.013   1.076   0.008  0.00  0.00    +0.014 A 
ATOM      3  C   UNL     1      -1.225   1.756   0.017  0.00  0.00    +0.030 A 
ATOM      4  C   UNL     1      -1.240   3.160   0.030  0.00  0.00    -0.004 A 
ATOM      5  C   UNL     1      -0.040   3.857   0.023  0.00  0.00    +0.042 A 
ATOM      6  C   UNL     1       1.163   3.167   0.007  0.00  0.00    +0.127 A 
ATOM      7  C   UNL     1      -2.653   3.620   0.046  0.00  0.00    -0.006 A 
ATOM      8  C   UNL     1      -3.213   4.890   0.058  0.00  0.00    +0.012 A 
ATOM      9  C   UNL     1      -4.590   5.042   0.073  0.00  0.00    +0.039 A 
ATOM     10  C   UNL     1      -5.417   3.932   0.075  0.00  0.00    +0.124 A 
ATOM     11  C   UNL     1      -4.872   2.656   0.062  0.00  0.00    +0.050 A 
ATOM     12  C   UNL     1      -3.491   2.493   0.048  0.00  0.00    +0.033 A 
ATOM     13  C   UNL     1      -2.631   1.287   0.033  0.00  0.00    +0.194 C 
ATOM     14  O   UNL     1      -3.006   0.132   0.030  0.00  0.00    -0.287 OA
ATOM     15  F   UNL     1      -6.758   4.092   0.089  0.00  0.00    -0.205 F 
ENDROOT
BRANCH   6  16
ATOM     16  N   UNL     1       2.440   3.915  -0.001  0.00  0.00    +0.056 N 
ATOM     17  O   UNL     1       3.498   3.313  -0.014  0.00  0.00    -0.126 OA
ATOM     18  O   UNL     1       2.432   5.133   0.005  0.00  0.00    -0.126 OA
ENDBRANCH   6  16
TORSDOF 1
