REMARK  Name = ZINC06015434
REMARK  16 active torsions:
REMARK  status: ('A' for Active; 'I' for Inactive)
REMARK    1  A    between atoms: C_1  and  C_2
REMARK    2  A    between atoms: C_3  and  C_34
REMARK    3  A    between atoms: C_4  and  C_25
REMARK    4  A    between atoms: C_10  and  C_15
REMARK    5  A    between atoms: C_18  and  O_23
REMARK    6  A    between atoms: C_19  and  O_21
REMARK    7  A    between atoms: O_21  and  C_22
REMARK    8  A    between atoms: O_23  and  C_24
REMARK    9  A    between atoms: C_28  and  O_32
REMARK   10  A    between atoms: C_29  and  O_31
REMARK   11  A    between atoms: O_32  and  C_33
REMARK   12  A    between atoms: C_34  and  O_36
REMARK   13  A    between atoms: O_36  and  C_37
REMARK   14  A    between atoms: C_37  and  C_38
REMARK   15  A    between atoms: C_38  and  C_39
REMARK   16  A    between atoms: C_38  and  C_40
REMARK                            x       y       z     vdW  Elec       q    Type
REMARK                         _______ _______ _______ _____ _____    ______ ____
ROOT
ATOM      1  C   UNL     1       0.003  -0.003  -0.010  0.00  0.00    +0.061 C 
ATOM      2  C   UNL     1      -0.018   1.504   0.002  0.00  0.00    +0.031 C 
ATOM      3  C   UNL     1      -1.193   2.156   0.017  0.00  0.00    +0.154 C 
ATOM      4  C   UNL     1      -1.253   3.654   0.036  0.00  0.00    +0.073 C 
ATOM      5  C   UNL     1       0.072   4.246   0.446  0.00  0.00    +0.025 C 
ATOM      6  C   UNL     1       1.198   3.506   0.404  0.00  0.00    +0.049 C 
ATOM      7  N   UNL     1       1.159   2.199  -0.001  0.00  0.00    -0.260 NA
ATOM      8  C   UNL     1       2.528   4.090   0.818  0.00  0.00    +0.064 C 
ATOM      9  C   UNL     1       2.546   5.589   0.517  0.00  0.00    +0.032 C 
ATOM     10  C   UNL     1       1.387   6.252   1.269  0.00  0.00    +0.088 C 
ATOM     11  C   UNL     1       0.099   5.588   0.866  0.00  0.00    +0.162 C 
ATOM     12  O   UNL     1      -0.937   6.222   0.904  0.00  0.00    -0.292 OA
ENDROOT
BRANCH   9  13
ATOM     13  C   UNL     1       3.853   6.183   0.976  0.00  0.00    -0.040 A 
ATOM     14  C   UNL     1       4.211   6.115   2.309  0.00  0.00    +0.008 A 
ATOM     15  C   UNL     1       5.411   6.654   2.734  0.00  0.00    +0.049 A 
ATOM     16  C   UNL     1       6.253   7.273   1.824  0.00  0.00    +0.161 A 
ATOM     17  C   UNL     1       5.890   7.346   0.483  0.00  0.00    +0.162 A 
ATOM     18  C   UNL     1       4.688   6.799   0.063  0.00  0.00    +0.053 A 
BRANCH  17  19
ATOM     19  O   UNL     1       6.713   7.953  -0.414  0.00  0.00    -0.491 OA
ATOM     20  C   UNL     1       6.276   7.990  -1.774  0.00  0.00    +0.277 C 
ENDBRANCH  17  19
BRANCH  16  21
ATOM     21  O   UNL     1       7.432   7.808   2.241  0.00  0.00    -0.491 OA
ATOM     22  C   UNL     1       7.739   7.696   3.632  0.00  0.00    +0.277 C 
ENDBRANCH  16  21
ENDBRANCH   9  13
BRANCH   4  23
ATOM     23  C   UNL     1      -1.605   4.139  -1.347  0.00  0.00    -0.035 A 
ATOM     24  C   UNL     1      -0.766   3.861  -2.409  0.00  0.00    +0.008 A 
ATOM     25  C   UNL     1      -1.085   4.304  -3.680  0.00  0.00    +0.049 A 
ATOM     26  C   UNL     1      -2.248   5.028  -3.889  0.00  0.00    +0.161 A 
ATOM     27  C   UNL     1      -3.092   5.307  -2.819  0.00  0.00    +0.159 A 
ATOM     28  C   UNL     1      -2.770   4.855  -1.550  0.00  0.00    +0.053 A 
BRANCH  27  29
ATOM     29  O   UNL     1      -4.235   6.018  -3.020  0.00  0.00    -0.503 OA
ATOM     30  H   UNL     1      -5.005   5.472  -3.230  0.00  0.00    +0.292 HD
ENDBRANCH  27  29
BRANCH  26  31
ATOM     31  O   UNL     1      -2.563   5.465  -5.138  0.00  0.00    -0.491 OA
ATOM     32  C   UNL     1      -1.649   5.142  -6.188  0.00  0.00    +0.277 C 
ENDBRANCH  26  31
ENDBRANCH   4  23
BRANCH   3  33
ATOM     33  C   UNL     1      -2.398   1.414   0.022  0.00  0.00    +0.317 C 
ATOM     34  O   UNL     1      -2.363   0.198   0.014  0.00  0.00    -0.250 OA
BRANCH  33  35
ATOM     35  O   UNL     1      -3.585   2.056   0.036  0.00  0.00    -0.464 OA
BRANCH  35  36
ATOM     36  C   UNL     1      -4.761   1.244   0.041  0.00  0.00    +0.235 C 
BRANCH  36  37
ATOM     37  C   UNL     1      -6.000   2.141   0.058  0.00  0.00    +0.020 C 
ATOM     38  C   UNL     1      -6.067   2.943  -1.244  0.00  0.00    +0.010 C 
ATOM     39  C   UNL     1      -7.255   1.275   0.189  0.00  0.00    +0.010 C 
ENDBRANCH  36  37
ENDBRANCH  35  36
ENDBRANCH  33  35
ENDBRANCH   3  33
TORSDOF 10
