REMARK  Name = ZINC04307132
REMARK  7 active torsions:
REMARK  status: ('A' for Active; 'I' for Inactive)
REMARK    1  A    between atoms: C_1  and  C_2
REMARK    2  A    between atoms: C_2  and  C_19
REMARK    3  A    between atoms: N_5  and  C_9
REMARK    4  A    between atoms: C_9  and  C_10
REMARK    5  A    between atoms: C_10  and  O_11
REMARK    6  A    between atoms: O_11  and  C_12
REMARK    7  A    between atoms: C_22  and  N_25
REMARK                            x       y       z     vdW  Elec       q    Type
REMARK                         _______ _______ _______ _____ _____    ______ ____
ROOT
ATOM      1  C   UNL     1       1.313   8.147   3.869  0.00  0.00    +0.047 C 
ATOM      2  C   UNL     1       1.194   6.689   3.420  0.00  0.00    +0.135 C 
ATOM      3  C   UNL     1       2.251   6.363   2.384  0.00  0.00    +0.251 C 
ATOM      4  O   UNL     1       3.454   6.403   2.527  0.00  0.00    -0.272 OA
ATOM      5  N   UNL     1       1.575   6.018   1.270  0.00  0.00    -0.221 N 
ATOM      6  C   UNL     1       0.251   6.085   1.455  0.00  0.00    +0.310 C 
ATOM      7  O   UNL     1      -0.566   5.825   0.594  0.00  0.00    -0.252 OA
ATOM      8  N   UNL     1      -0.074   6.470   2.703  0.00  0.00    -0.281 N 
ATOM      9  H   UNL     1      -0.969   6.584   3.059  0.00  0.00    +0.152 HD
ENDROOT
BRANCH   2  10
ATOM     10  C   UNL     1       1.304   5.759   4.600  0.00  0.00    -0.015 A 
ATOM     11  C   UNL     1       2.531   5.229   4.951  0.00  0.00    +0.008 A 
ATOM     12  C   UNL     1       2.632   4.379   6.037  0.00  0.00    +0.033 A 
ATOM     13  C   UNL     1       1.504   4.051   6.765  0.00  0.00    +0.126 A 
ATOM     14  C   UNL     1       0.276   4.576   6.411  0.00  0.00    +0.033 A 
ATOM     15  C   UNL     1       0.175   5.430   5.328  0.00  0.00    +0.008 A 
BRANCH  13  16
ATOM     16  N   UNL     1       1.611   3.136   7.924  0.00  0.00    +0.056 N 
ATOM     17  O   UNL     1       0.617   2.846   8.565  0.00  0.00    -0.126 OA
ATOM     18  O   UNL     1       2.694   2.673   8.236  0.00  0.00    -0.126 OA
ENDBRANCH  13  16
ENDBRANCH   2  10
BRANCH   5  19
ATOM     19  C   UNL     1       2.210   5.624   0.010  0.00  0.00    +0.159 C 
BRANCH  19  20
ATOM     20  C   UNL     1       2.428   4.109   0.001  0.00  0.00    +0.248 C 
BRANCH  20  21
ATOM     21  O   UNL     1       1.162   3.446   0.009  0.00  0.00    -0.489 OA
BRANCH  21  22
ATOM     22  C   UNL     1       1.177   2.087   0.002  0.00  0.00    +0.139 A 
ATOM     23  C   UNL     1       2.385   1.406  -0.013  0.00  0.00    +0.047 A 
ATOM     24  C   UNL     1       2.398   0.024  -0.022  0.00  0.00    +0.004 A 
ATOM     25  C   UNL     1       1.208  -0.680  -0.014  0.00  0.00    +0.002 A 
ATOM     26  C   UNL     1       0.002  -0.004   0.002  0.00  0.00    +0.023 A 
ATOM     27  C   UNL     1      -0.017   1.378   0.010  0.00  0.00    +0.083 A 
ATOM     28 CL   UNL     1      -1.531   2.227   0.021  0.00  0.00    -0.080 Cl
ENDBRANCH  21  22
ENDBRANCH  20  21
ENDBRANCH  19  20
ENDBRANCH   5  19
TORSDOF 6
