REMARK  Name = ZINC37354682
REMARK  5 active torsions:
REMARK  status: ('A' for Active; 'I' for Inactive)
REMARK    1  A    between atoms: C_1  and  N_2
REMARK    2  A    between atoms: N_2  and  C_3
REMARK    3  A    between atoms: N_2  and  C_4
REMARK    4  A    between atoms: C_4  and  C_6
REMARK    5  A    between atoms: C_4  and  C_8
REMARK                            x       y       z     vdW  Elec       q    Type
REMARK                         _______ _______ _______ _____ _____    ______ ____
ROOT
ATOM      1  C   UNL     1      -1.301  -2.055   0.003  0.00  0.00    -0.011 A 
ATOM      2  C   UNL     1      -2.187  -2.785   0.774  0.00  0.00    +0.055 A 
ATOM      3  C   UNL     1      -2.134  -4.171   0.767  0.00  0.00    +0.164 A 
ATOM      4  C   UNL     1      -1.190  -4.824  -0.016  0.00  0.00    +0.180 A 
ATOM      5  C   UNL     1      -0.303  -4.085  -0.786  0.00  0.00    +0.087 A 
ATOM      6  C   UNL     1      -0.364  -2.703  -0.779  0.00  0.00    +0.030 A 
ATOM      7 CL   UNL     1       0.881  -4.896  -1.764  0.00  0.00    -0.080 Cl
ATOM      8  O   UNL     1      -1.127  -6.183  -0.043  0.00  0.00    -0.483 OA
ATOM      9  C   UNL     1      -1.783  -6.879   1.022  0.00  0.00    +0.270 C 
ATOM     10  C   UNL     1      -3.175  -6.262   1.214  0.00  0.00    +0.270 C 
ATOM     11  O   UNL     1      -3.010  -4.876   1.534  0.00  0.00    -0.485 OA
ENDROOT
BRANCH   1  12
ATOM     12  C   UNL     1      -1.362  -0.549   0.012  0.00  0.00    +0.190 C 
BRANCH  12  14
ATOM     13  C   UNL     1      -0.018   1.465   0.010  0.00  0.00    +0.106 C 
ATOM     14  N   UNL     1       0.002  -0.004   0.002  0.00  0.00    -0.290 NA
ATOM     15  C   UNL     1       0.786  -0.526   1.129  0.00  0.00    +0.106 C 
ENDBRANCH  12  14
BRANCH  12  16
ATOM     16  C   UNL     1      -2.087  -0.080  -1.180  0.00  0.00    +0.086 C 
ATOM     17  N   UNL     1      -2.646   0.281  -2.101  0.00  0.00    -0.195 NA
ENDBRANCH  12  16
ENDBRANCH   1  12
TORSDOF 3
