REMARK  Name = ZINC20995329
REMARK  11 active torsions:
REMARK  status: ('A' for Active; 'I' for Inactive)
REMARK    1  A    between atoms: C_1  and  C_2
REMARK    2  A    between atoms: C_3  and  C_8
REMARK    3  A    between atoms: N_5  and  C_7
REMARK    4  A    between atoms: C_8  and  N_9
REMARK    5  A    between atoms: N_9  and  C_10
REMARK    6  A    between atoms: N_9  and  C_11
REMARK    7  A    between atoms: C_11  and  C_13
REMARK    8  A    between atoms: C_11  and  C_21
REMARK    9  A    between atoms: C_13  and  C_14
REMARK   10  A    between atoms: N_24  and  C_27
REMARK   11  A    between atoms: C_27  and  C_28
REMARK                            x       y       z     vdW  Elec       q    Type
REMARK                         _______ _______ _______ _____ _____    ______ ____
ROOT
ATOM      1  C   UNL     1       3.449  -0.178   3.096  0.00  0.00    +0.064 C 
ENDROOT
BRANCH   1   2
ATOM      2  C   UNL     1       3.049   0.589   1.834  0.00  0.00    +0.003 C 
ATOM      3  C   UNL     1       1.702   0.070   1.324  0.00  0.00    -0.014 C 
ATOM      4  C   UNL     1       1.280   0.881   0.097  0.00  0.00    -0.078 C 
ATOM      5  N   UNL     1       1.172   2.300   0.460  0.00  0.00    +0.382 N 
ATOM      6  C   UNL     1       2.465   2.833   0.908  0.00  0.00    -0.078 C 
ATOM      7  C   UNL     1       2.923   2.080   2.159  0.00  0.00    -0.014 C 
ATOM      8  H   UNL     1       0.468   2.378   1.301  0.00  0.00    -0.081 HD
BRANCH   5   9
ATOM      9  C   UNL     1       0.635   3.089  -0.656  0.00  0.00    -0.043 C 
BRANCH   9  10
ATOM     10  C   UNL     1       0.309   4.480  -0.177  0.00  0.00    -0.060 A 
ATOM     11  C   UNL     1      -0.951   4.761   0.318  0.00  0.00    +0.005 A 
ATOM     12  C   UNL     1      -1.253   6.035   0.765  0.00  0.00    +0.050 A 
ATOM     13  C   UNL     1      -0.297   7.035   0.706  0.00  0.00    +0.166 A 
ATOM     14  C   UNL     1       0.971   6.753   0.202  0.00  0.00    +0.166 A 
ATOM     15  C   UNL     1       1.268   5.474  -0.238  0.00  0.00    +0.051 A 
ATOM     16  O   UNL     1       1.722   7.892   0.249  0.00  0.00    -0.453 OA
ATOM     17  C   UNL     1       0.779   8.969   0.405  0.00  0.00    +0.466 C 
ATOM     18  O   UNL     1      -0.340   8.350   1.068  0.00  0.00    -0.453 OA
ENDBRANCH   9  10
ENDBRANCH   5   9
ENDBRANCH   1   2
BRANCH   1  19
ATOM     19  N   UNL     1       4.797   0.231   3.512  0.00  0.00    -0.298 NA
ATOM     20  C   UNL     1       4.738   1.349   4.463  0.00  0.00    +0.105 C 
BRANCH  19  21
ATOM     21  C   UNL     1       5.625   0.574   2.348  0.00  0.00    +0.123 C 
BRANCH  21  24
ATOM     22  C   UNL     1       7.953  -1.513   2.868  0.00  0.00    +0.068 C 
ATOM     23  C   UNL     1       8.051  -0.019   3.035  0.00  0.00    +0.064 A 
ATOM     24  C   UNL     1       7.023   0.902   2.806  0.00  0.00    +0.007 A 
ATOM     25  C   UNL     1       7.504   2.138   3.073  0.00  0.00    +0.113 A 
ATOM     26  N   UNL     1       8.793   2.005   3.452  0.00  0.00    -0.274 N 
ATOM     27  N   UNL     1       9.114   0.642   3.417  0.00  0.00    -0.176 NA
ATOM     28  C   UNL     1       9.695   3.094   3.833  0.00  0.00    +0.172 C 
ENDBRANCH  21  24
ENDBRANCH  19  21
ENDBRANCH   1  19
BRANCH   1  29
ATOM     29  C   UNL     1       3.439  -1.680   2.804  0.00  0.00    +0.057 C 
BRANCH  29  30
ATOM     30  C   UNL     1       3.671  -2.442   4.083  0.00  0.00    -0.011 A 
ATOM     31  C   UNL     1       4.942  -2.876   4.409  0.00  0.00    +0.006 A 
ATOM     32  C   UNL     1       5.156  -3.570   5.585  0.00  0.00    +0.000 A 
ATOM     33  C   UNL     1       4.097  -3.841   6.431  0.00  0.00    +0.003 A 
ATOM     34  C   UNL     1       2.825  -3.413   6.105  0.00  0.00    +0.038 A 
ATOM     35  C   UNL     1       2.610  -2.713   4.930  0.00  0.00    +0.127 A 
ATOM     36  F   UNL     1       1.366  -2.294   4.610  0.00  0.00    -0.205 F 
ENDBRANCH  29  30
ENDBRANCH   1  29
TORSDOF 8
