REMARK  Name = ZINC19774353
REMARK  10 active torsions:
REMARK  status: ('A' for Active; 'I' for Inactive)
REMARK    1  A    between atoms: C_1  and  C_2
REMARK    2  A    between atoms: C_2  and  N_3
REMARK    3  A    between atoms: C_6  and  C_9
REMARK    4  A    between atoms: C_9  and  C_10
REMARK    5  A    between atoms: C_10  and  N_11
REMARK    6  A    between atoms: C_12  and  C_14
REMARK    7  A    between atoms: C_14  and  C_15
REMARK    8  A    between atoms: N_22  and  C_23
REMARK    9  A    between atoms: C_23  and  C_24
REMARK   10  A    between atoms: C_27  and  C_29
REMARK                            x       y       z     vdW  Elec       q    Type
REMARK                         _______ _______ _______ _____ _____    ______ ____
ROOT
ATOM      1  C   UNL     1       2.528   5.681  -0.013  0.00  0.00    +0.089 C 
ENDROOT
BRANCH   1   2
ATOM      2  C   UNL     1       3.951   6.228   0.118  0.00  0.00    +0.029 C 
ATOM      3  C   UNL     1       4.646   5.540   1.259  0.00  0.00    +0.200 C 
ATOM      4  O   UNL     1       4.032   5.360   2.290  0.00  0.00    -0.278 OA
ATOM      5  N   UNL     1       5.912   5.117   1.185  0.00  0.00    -0.318 N 
ATOM      6  C   UNL     1       6.725   5.252  -0.020  0.00  0.00    +0.085 C 
ATOM      7  C   UNL     1       6.110   6.297  -0.953  0.00  0.00    -0.058 C 
ATOM      8  N   UNL     1       4.682   5.989  -1.133  0.00  0.00    +0.393 N 
ATOM      9  H   UNL     1       6.337   4.650   2.086  0.00  0.00    +0.149 HD
ATOM     10  H   UNL     1       4.584   4.925  -1.395  0.00  0.00    -0.080 HD
BRANCH   8  11
ATOM     11  C   UNL     1       4.110   6.773  -2.235  0.00  0.00    -0.002 C 
BRANCH  11  12
ATOM     12  C   UNL     1       4.944   6.579  -3.476  0.00  0.00    +0.089 A 
ATOM     13  C   UNL     1       4.762   5.622  -4.404  0.00  0.00    +0.043 A 
ATOM     14  C   UNL     1       5.760   5.812  -5.387  0.00  0.00    +0.044 A 
ATOM     15  C   UNL     1       6.496   6.868  -4.997  0.00  0.00    +0.102 A 
ATOM     16  O   UNL     1       5.997   7.328  -3.839  0.00  0.00    -0.467 OA
ATOM     17  C   UNL     1       7.681   7.437  -5.735  0.00  0.00    +0.086 C 
ENDBRANCH  11  12
ENDBRANCH   8  11
ENDBRANCH   1   2
BRANCH   1  19
ATOM     18  N   UNL     1       1.445   3.487  -0.374  0.00  0.00    -0.315 N 
ATOM     19  C   UNL     1       2.582   4.208  -0.326  0.00  0.00    +0.212 C 
ATOM     20  O   UNL     1       3.650   3.672  -0.534  0.00  0.00    -0.276 OA
ATOM     21  H   UNL     1       0.476   3.974  -0.185  0.00  0.00    +0.149 HD
BRANCH  18  22
ATOM     22  C   UNL     1       1.498   2.055  -0.678  0.00  0.00    +0.104 C 
BRANCH  22  23
ATOM     23  C   UNL     1       0.080   1.479  -0.671  0.00  0.00    +0.022 C 
BRANCH  23  27
ATOM     24  N   UNL     1      -0.729  -2.240  -2.615  0.00  0.00    +0.380 N 
ATOM     25  C   UNL     1      -1.216  -2.102  -1.237  0.00  0.00    -0.079 C 
ATOM     26  C   UNL     1      -1.266  -0.619  -0.859  0.00  0.00    -0.015 C 
ATOM     27  C   UNL     1       0.136  -0.017  -0.988  0.00  0.00    -0.013 C 
ATOM     28  C   UNL     1       0.639  -0.217  -2.421  0.00  0.00    -0.015 C 
ATOM     29  C   UNL     1       0.634  -1.711  -2.753  0.00  0.00    -0.079 C 
ATOM     30  H   UNL     1      -1.387  -1.645  -3.265  0.00  0.00    -0.082 HD
BRANCH  24  32
ATOM     31  C   UNL     1      -0.524  -3.710  -4.563  0.00  0.00    -0.017 C 
ATOM     32  C   UNL     1      -0.798  -3.639  -3.060  0.00  0.00    -0.082 C 
ENDBRANCH  24  32
ENDBRANCH  23  27
ENDBRANCH  22  23
ENDBRANCH  18  22
ENDBRANCH   1  19
TORSDOF 8
