REMARK  Name = ZINC38653868
REMARK  11 active torsions:
REMARK  status: ('A' for Active; 'I' for Inactive)
REMARK    1  A    between atoms: C_1  and  C_2
REMARK    2  A    between atoms: C_2  and  C_3
REMARK    3  A    between atoms: C_2  and  O_4
REMARK    4  A    between atoms: O_4  and  C_5
REMARK    5  A    between atoms: C_8  and  C_11
REMARK    6  A    between atoms: C_11  and  O_13
REMARK    7  A    between atoms: O_13  and  C_14
REMARK    8  A    between atoms: C_21  and  N_36
REMARK    9  A    between atoms: C_22  and  C_34
REMARK   10  A    between atoms: C_23  and  C_25
REMARK   11  A    between atoms: C_29  and  N_31
REMARK                            x       y       z     vdW  Elec       q    Type
REMARK                         _______ _______ _______ _____ _____    ______ ____
ROOT
ATOM      1  C   UNL     1      -4.298  -6.994  -3.191  0.00  0.00    +0.135 A 
ATOM      2  C   UNL     1      -3.355  -7.766  -3.854  0.00  0.00    +0.047 A 
ATOM      3  C   UNL     1      -3.742  -8.924  -4.500  0.00  0.00    +0.012 A 
ATOM      4  C   UNL     1      -5.068  -9.319  -4.489  0.00  0.00    +0.008 A 
ATOM      5  C   UNL     1      -6.014  -8.551  -3.828  0.00  0.00    +0.138 A 
ATOM      6  C   UNL     1      -5.625  -7.389  -3.174  0.00  0.00    +0.093 A 
ATOM      7  O   UNL     1      -7.318  -8.921  -3.806  0.00  0.00    -0.441 OA
ATOM      8  C   UNL     1      -7.659 -10.193  -4.075  0.00  0.00    +0.199 C 
ATOM      9  C   UNL     1      -6.826 -11.034  -4.733  0.00  0.00    +0.098 C 
ATOM     10  C   UNL     1      -5.470 -10.584  -5.199  0.00  0.00    +0.098 C 
ENDROOT
BRANCH  10  11
ATOM     11  C   UNL     1      -5.511 -10.332  -6.684  0.00  0.00    -0.033 A 
ATOM     12  C   UNL     1      -6.359  -9.369  -7.198  0.00  0.00    +0.005 A 
ATOM     13  C   UNL     1      -6.397  -9.137  -8.560  0.00  0.00    +0.003 A 
ATOM     14  C   UNL     1      -5.586  -9.868  -9.409  0.00  0.00    +0.033 A 
ATOM     15  C   UNL     1      -4.737 -10.831  -8.894  0.00  0.00    +0.126 A 
ATOM     16  C   UNL     1      -4.697 -11.059  -7.531  0.00  0.00    +0.037 A 
BRANCH  15  17
ATOM     17  N   UNL     1      -3.870 -11.614  -9.803  0.00  0.00    +0.056 N 
ATOM     18  O   UNL     1      -3.904 -11.412 -10.994  0.00  0.00    -0.126 OA
ATOM     19  O   UNL     1      -3.127 -12.455  -9.353  0.00  0.00    -0.126 OA
ENDBRANCH  15  17
ENDBRANCH  10  11
BRANCH   8  20
ATOM     20  N   UNL     1      -8.887 -10.652  -3.671  0.00  0.00    -0.328 N 
ATOM     21  H   UNL     1      -9.495 -10.062  -3.199  0.00  0.00    +0.145 HD
ATOM     22  H   UNL     1      -9.148 -11.568  -3.858  0.00  0.00    +0.145 HD
ENDBRANCH   8  20
BRANCH   9  23
ATOM     23  C   UNL     1      -7.246 -12.378  -4.989  0.00  0.00    +0.101 C 
ATOM     24  N   UNL     1      -7.580 -13.445  -5.193  0.00  0.00    -0.191 NA
ENDBRANCH   9  23
BRANCH   1  25
ATOM     25  O   UNL     1      -3.918  -5.854  -2.555  0.00  0.00    -0.422 OA
BRANCH  25  26
ATOM     26  C   UNL     1      -4.022  -5.815  -1.212  0.00  0.00    +0.344 C 
ATOM     27  O   UNL     1      -4.355  -6.810  -0.599  0.00  0.00    -0.245 OA
BRANCH  26  31
ATOM     28  C   UNL     1      -3.183  -2.216   0.878  0.00  0.00    +0.121 A 
ATOM     29  C   UNL     1      -3.565  -3.353   1.581  0.00  0.00    +0.046 A 
ATOM     30  C   UNL     1      -3.838  -4.522   0.907  0.00  0.00    +0.018 A 
ATOM     31  C   UNL     1      -3.731  -4.565  -0.486  0.00  0.00    +0.060 A 
ATOM     32  C   UNL     1      -3.347  -3.419  -1.189  0.00  0.00    +0.018 A 
ATOM     33  C   UNL     1      -3.082  -2.253  -0.508  0.00  0.00    +0.046 A 
BRANCH  28  34
ATOM     34  O   UNL     1      -2.915  -1.066   1.546  0.00  0.00    -0.489 OA
BRANCH  34  36
ATOM     35  C   UNL     1      -3.202   1.333   1.490  0.00  0.00    +0.051 C 
ATOM     36  C   UNL     1      -2.669   0.100   0.757  0.00  0.00    +0.167 C 
ATOM     37  C   UNL     1      -1.164   0.253   0.529  0.00  0.00    +0.051 C 
ENDBRANCH  34  36
ENDBRANCH  28  34
ENDBRANCH  26  31
ENDBRANCH  25  26
ENDBRANCH   1  25
TORSDOF 9
