REMARK  Name = ZINC02837633
REMARK  12 active torsions:
REMARK  status: ('A' for Active; 'I' for Inactive)
REMARK    1  A    between atoms: C_1  and  C_2
REMARK    2  A    between atoms: C_2  and  N_3
REMARK    3  A    between atoms: C_4  and  C_29
REMARK    4  A    between atoms: C_7  and  S_8
REMARK    5  A    between atoms: S_8  and  C_9
REMARK    6  A    between atoms: C_9  and  C_10
REMARK    7  A    between atoms: N_12  and  C_13
REMARK    8  A    between atoms: C_14  and  C_27
REMARK    9  A    between atoms: C_19  and  C_23
REMARK   10  A    between atoms: C_23  and  C_24
REMARK   11  A    between atoms: C_23  and  C_25
REMARK   12  A    between atoms: C_23  and  C_26
REMARK                            x       y       z     vdW  Elec       q    Type
REMARK                         _______ _______ _______ _____ _____    ______ ____
ROOT
ATOM      1  C   UNL     1       5.947  -0.946   0.023  0.00  0.00    +0.228 C 
ATOM      2  O   UNL     1       5.754  -0.573   1.161  0.00  0.00    -0.275 OA
ATOM      3  N   UNL     1       7.192  -1.265  -0.380  0.00  0.00    -0.278 N 
ATOM      4  H   UNL     1       7.347  -1.563  -1.290  0.00  0.00    +0.155 HD
ENDROOT
BRANCH   3   5
ATOM      5  C   UNL     1       8.255  -1.168   0.508  0.00  0.00    +0.090 A 
ATOM      6  C   UNL     1       9.591  -1.446   0.270  0.00  0.00    +0.084 A 
ATOM      7  C   UNL     1      10.515  -1.262   1.375  0.00  0.00    -0.018 A 
ATOM      8  C   UNL     1       9.933  -0.833   2.517  0.00  0.00    -0.004 A 
ATOM      9  S   UNL     1       8.217  -0.678   2.114  0.00  0.00    -0.077 S 
ATOM     10  C   UNL     1      10.610  -0.553   3.822  0.00  0.00    +0.047 C 
ATOM     11  C   UNL     1      12.010  -1.184   3.784  0.00  0.00    -0.000 C 
ATOM     12  C   UNL     1      12.692  -0.798   2.468  0.00  0.00    +0.009 C 
ATOM     13  C   UNL     1      12.013  -1.516   1.299  0.00  0.00    +0.037 C 
BRANCH  11  14
ATOM     14  C   UNL     1      12.837  -0.669   4.963  0.00  0.00    -0.035 C 
ATOM     15  C   UNL     1      12.145  -1.045   6.275  0.00  0.00    +0.011 C 
ATOM     16  C   UNL     1      14.230  -1.300   4.923  0.00  0.00    +0.011 C 
ATOM     17  C   UNL     1      12.963   0.853   4.872  0.00  0.00    +0.011 C 
ENDBRANCH  11  14
BRANCH   6  18
ATOM     18  C   UNL     1      10.043  -1.897  -1.012  0.00  0.00    +0.102 C 
ATOM     19  N   UNL     1      10.400  -2.255  -2.029  0.00  0.00    -0.191 NA
ENDBRANCH   6  18
ENDBRANCH   3   5
BRANCH   1  20
ATOM     20  C   UNL     1       4.793  -1.052  -0.941  0.00  0.00    +0.173 C 
BRANCH  20  21
ATOM     21  S   UNL     1       3.260  -0.556  -0.106  0.00  0.00    -0.077 S 
BRANCH  21  26
ATOM     22  N   UNL     1       0.688  -0.476  -1.203  0.00  0.00    -0.300 N 
ATOM     23  C   UNL     1       0.123  -0.750  -2.430  0.00  0.00    +0.200 A 
ATOM     24  N   UNL     1       1.095  -1.145  -3.222  0.00  0.00    -0.125 NA
ATOM     25  N   UNL     1       2.211  -1.137  -2.584  0.00  0.00    -0.122 NA
ATOM     26  C   UNL     1       2.023  -0.733  -1.348  0.00  0.00    +0.192 A 
BRANCH  23  27
ATOM     27  C   UNL     1      -1.299  -0.624  -2.786  0.00  0.00    +0.172 A 
ATOM     28  C   UNL     1      -1.810  -0.621  -4.049  0.00  0.00    +0.053 A 
ATOM     29  C   UNL     1      -3.206  -0.481  -3.921  0.00  0.00    +0.042 A 
ATOM     30  C   UNL     1      -3.477  -0.406  -2.602  0.00  0.00    +0.196 A 
ATOM     31  O   UNL     1      -2.324  -0.497  -1.919  0.00  0.00    -0.460 OA
ENDBRANCH  23  27
BRANCH  22  33
ATOM     32  C   UNL     1      -0.019   1.526   0.010  0.00  0.00    +0.027 C 
ATOM     33  C   UNL     1       0.002  -0.004   0.002  0.00  0.00    +0.122 C 
ENDBRANCH  22  33
ENDBRANCH  21  26
ENDBRANCH  20  21
ENDBRANCH   1  20
TORSDOF 8
