REMARK  Name = ZINC66670361
REMARK  5 active torsions:
REMARK  status: ('A' for Active; 'I' for Inactive)
REMARK    1  A    between atoms: C_4  and  C_7
REMARK    2  A    between atoms: C_7  and  C_9
REMARK    3  A    between atoms: C_7  and  N_14
REMARK    4  A    between atoms: N_17  and  C_18
REMARK    5  A    between atoms: C_23  and  N_24
REMARK                            x       y       z     vdW  Elec       q    Type
REMARK                         _______ _______ _______ _____ _____    ______ ____
ROOT
ATOM      1  N   UNL     1       3.631  -1.885   0.831  0.00  0.00    -0.285 N 
ATOM      2  C   UNL     1       4.752  -2.389   1.386  0.00  0.00    +0.305 C 
ATOM      3  O   UNL     1       5.830  -1.878   1.149  0.00  0.00    -0.252 OA
ATOM      4  N   UNL     1       4.677  -3.458   2.203  0.00  0.00    -0.266 N 
ATOM      5  H   UNL     1       2.771  -2.292   1.020  0.00  0.00    +0.151 HD
ATOM      6  H   UNL     1       3.811  -3.815   2.457  0.00  0.00    +0.156 HD
ENDROOT
BRANCH   4   7
ATOM      7  C   UNL     1       5.849  -4.053   2.686  0.00  0.00    +0.079 A 
ATOM      8  C   UNL     1       7.044  -3.928   1.986  0.00  0.00    +0.028 A 
ATOM      9  C   UNL     1       8.178  -4.535   2.504  0.00  0.00    +0.022 A 
ATOM     10  C   UNL     1       8.088  -5.240   3.689  0.00  0.00    +0.113 A 
ATOM     11  N   UNL     1       6.941  -5.343   4.332  0.00  0.00    -0.235 NA
ATOM     12  C   UNL     1       5.836  -4.777   3.878  0.00  0.00    +0.177 A 
BRANCH  12  13
ATOM     13  N   UNL     1       4.643  -4.908   4.598  0.00  0.00    -0.200 N 
ATOM     14  C   UNL     1       4.324  -5.892   5.462  0.00  0.00    +0.226 A 
ATOM     15  N   UNL     1       3.124  -5.652   5.924  0.00  0.00    -0.222 NA
ATOM     16  C   UNL     1       2.647  -4.531   5.383  0.00  0.00    +0.245 A 
ATOM     17  N   UNL     1       3.542  -4.037   4.569  0.00  0.00    -0.152 NA
ENDBRANCH  12  13
ENDBRANCH   4   7
BRANCH   1  18
ATOM     18  C   UNL     1       3.712  -0.723  -0.058  0.00  0.00    +0.171 C 
BRANCH  18  22
ATOM     19  C   UNL     1      -0.025   1.345  -0.044  0.00  0.00    +0.000 A 
ATOM     20  C   UNL     1       1.159   2.058  -0.048  0.00  0.00    +0.000 A 
ATOM     21  C   UNL     1       2.369   1.389  -0.052  0.00  0.00    +0.006 A 
ATOM     22  C   UNL     1       2.394   0.006  -0.052  0.00  0.00    -0.020 A 
ATOM     23  C   UNL     1       1.210  -0.706  -0.048  0.00  0.00    +0.006 A 
ATOM     24  C   UNL     1       0.000  -0.037  -0.045  0.00  0.00    +0.000 A 
ENDBRANCH  18  22
BRANCH  18  25
ATOM     25  C   UNL     1       4.027  -1.182  -1.458  0.00  0.00    +0.129 A 
ATOM     26  C   UNL     1       4.868  -0.576  -2.314  0.00  0.00    +0.047 A 
ATOM     27  C   UNL     1       4.862  -1.339  -3.504  0.00  0.00    +0.041 A 
ATOM     28  C   UNL     1       4.017  -2.366  -3.304  0.00  0.00    +0.195 A 
ATOM     29  O   UNL     1       3.519  -2.269  -2.061  0.00  0.00    -0.466 OA
ENDBRANCH  18  25
ENDBRANCH   1  18
TORSDOF 5
