REMARK  Name = ZINC14458623
REMARK  7 active torsions:
REMARK  status: ('A' for Active; 'I' for Inactive)
REMARK    1  A    between atoms: C_1  and  C_2
REMARK    2  A    between atoms: C_5  and  C_8
REMARK    3  A    between atoms: C_19  and  O_24
REMARK    4  A    between atoms: O_24  and  C_25
REMARK    5  A    between atoms: C_25  and  C_26
REMARK    6  A    between atoms: C_26  and  O_27
REMARK    7  A    between atoms: O_27  and  C_28
REMARK                            x       y       z     vdW  Elec       q    Type
REMARK                         _______ _______ _______ _____ _____    ______ ____
ROOT
ATOM      1  C   UNL     1       1.264   2.111   0.001  0.00  0.00    +0.105 C 
ATOM      2  C   UNL     1       2.171   1.527   1.071  0.00  0.00    +0.029 C 
ATOM      3  C   UNL     1       3.619   2.036   0.810  0.00  0.00    +0.033 C 
ATOM      4  C   UNL     1       4.146   1.076  -0.238  0.00  0.00    -0.030 C 
ATOM      5  C   UNL     1       3.456  -0.026  -0.229  0.00  0.00    -0.023 C 
ATOM      6  C   UNL     1       2.386   0.019   0.836  0.00  0.00    +0.049 C 
ATOM      7  C   UNL     1       1.144  -0.686   0.391  0.00  0.00    -0.016 A 
ATOM      8  C   UNL     1       1.138  -2.075   0.372  0.00  0.00    +0.051 A 
ATOM      9  C   UNL     1       0.009  -2.767  -0.029  0.00  0.00    +0.121 A 
ATOM     10  C   UNL     1      -1.131  -2.078  -0.416  0.00  0.00    +0.047 A 
ATOM     11  C   UNL     1      -1.132  -0.697  -0.400  0.00  0.00    +0.027 A 
ATOM     12  C   UNL     1       0.002  -0.004   0.002  0.00  0.00    +0.032 A 
ATOM     13  N   UNL     1      -0.017   1.398   0.010  0.00  0.00    -0.336 N 
ATOM     14  H   UNL     1      -0.856   1.883   0.016  0.00  0.00    +0.147 HD
ENDROOT
BRANCH   1  19
ATOM     15  C   UNL     1       0.364   7.721   1.054  0.00  0.00    +0.044 C 
ATOM     16  C   UNL     1       0.599   6.258   0.779  0.00  0.00    -0.050 A 
ATOM     17  C   UNL     1       1.531   5.873  -0.166  0.00  0.00    +0.004 A 
ATOM     18  C   UNL     1       1.746   4.531  -0.418  0.00  0.00    +0.006 A 
ATOM     19  C   UNL     1       1.030   3.574   0.276  0.00  0.00    -0.027 A 
ATOM     20  C   UNL     1       0.094   3.959   1.217  0.00  0.00    +0.006 A 
ATOM     21  C   UNL     1      -0.118   5.301   1.473  0.00  0.00    +0.004 A 
ENDBRANCH   1  19
BRANCH   9  22
ATOM     22  O   UNL     1       0.017  -4.127  -0.044  0.00  0.00    -0.489 OA
BRANCH  22  23
ATOM     23  C   UNL     1      -1.182  -4.778  -0.469  0.00  0.00    +0.270 C 
BRANCH  23  24
ATOM     24  C   UNL     1      -0.984  -6.294  -0.420  0.00  0.00    +0.270 C 
BRANCH  24  25
ATOM     25  O   UNL     1      -0.790  -6.706   0.935  0.00  0.00    -0.489 OA
BRANCH  25  26
ATOM     26  C   UNL     1      -0.598  -8.033   1.155  0.00  0.00    +0.121 A 
ATOM     27  C   UNL     1      -0.602  -8.922   0.090  0.00  0.00    +0.045 A 
ATOM     28  C   UNL     1      -0.401 -10.270   0.316  0.00  0.00    +0.004 A 
ATOM     29  C   UNL     1      -0.207 -10.735   1.604  0.00  0.00    +0.000 A 
ATOM     30  C   UNL     1      -0.208  -9.851   2.668  0.00  0.00    +0.004 A 
ATOM     31  C   UNL     1      -0.403  -8.502   2.446  0.00  0.00    +0.045 A 
ENDBRANCH  25  26
ENDBRANCH  24  25
ENDBRANCH  23  24
ENDBRANCH  22  23
ENDBRANCH   9  22
TORSDOF 6
