REMARK  Name = ZINC29530839
REMARK  6 active torsions:
REMARK  status: ('A' for Active; 'I' for Inactive)
REMARK    1  A    between atoms: C_1  and  C_2
REMARK    2  A    between atoms: C_2  and  C_3
REMARK    3  A    between atoms: C_2  and  C_4
REMARK    4  A    between atoms: C_2  and  C_10
REMARK    5  A    between atoms: N_15  and  C_18
REMARK    6  A    between atoms: N_21  and  C_26
REMARK                            x       y       z     vdW  Elec       q    Type
REMARK                         _______ _______ _______ _____ _____    ______ ____
ROOT
ATOM      1  C   UNL     1       1.135   4.854  -1.314  0.00  0.00    +0.226 C 
ATOM      2  O   UNL     1       2.308   5.040  -1.070  0.00  0.00    -0.275 OA
ATOM      3  N   UNL     1       0.412   4.013  -0.548  0.00  0.00    -0.298 N 
ATOM      4  C   UNL     1       0.990   3.407   0.660  0.00  0.00    +0.126 C 
ATOM      5  C   UNL     1       0.766   1.892   0.600  0.00  0.00    +0.124 C 
ATOM      6  N   UNL     1      -0.662   1.620   0.391  0.00  0.00    -0.324 N 
ATOM      7  C   UNL     1      -1.123   2.152  -0.898  0.00  0.00    +0.124 C 
ATOM      8  C   UNL     1      -0.976   3.677  -0.900  0.00  0.00    +0.126 C 
ENDROOT
BRANCH   6   9
ATOM      9  C   UNL     1      -0.929   0.264   0.492  0.00  0.00    +0.074 A 
ATOM     10  C   UNL     1      -0.309  -0.651  -0.384  0.00  0.00    +0.158 A 
ATOM     11  N   UNL     1      -0.554  -1.928  -0.286  0.00  0.00    -0.170 NA
ATOM     12  N   UNL     1      -1.442  -2.420   0.676  0.00  0.00    -0.195 N 
ATOM     13  C   UNL     1      -2.061  -1.581   1.530  0.00  0.00    +0.292 A 
ATOM     14  O   UNL     1      -2.836  -2.017   2.367  0.00  0.00    -0.264 OA
ATOM     15  C   UNL     1      -1.811  -0.203   1.450  0.00  0.00    +0.129 A 
ATOM     16 CL   UNL     1      -2.596   0.898   2.538  0.00  0.00    -0.076 Cl
BRANCH  12  17
ATOM     17  C   UNL     1      -1.690  -3.795   0.753  0.00  0.00    +0.069 A 
ATOM     18  C   UNL     1      -1.624  -4.447   1.978  0.00  0.00    +0.028 A 
ATOM     19  C   UNL     1      -1.875  -5.803   2.051  0.00  0.00    +0.002 A 
ATOM     20  C   UNL     1      -2.179  -6.514   0.905  0.00  0.00    +0.000 A 
ATOM     21  C   UNL     1      -2.240  -5.869  -0.317  0.00  0.00    +0.002 A 
ATOM     22  C   UNL     1      -1.997  -4.512  -0.396  0.00  0.00    +0.028 A 
ENDBRANCH  12  17
ENDBRANCH   6   9
BRANCH   1  24
ATOM     23  C   UNL     1      -0.737   6.338  -1.979  0.00  0.00    +0.025 C 
ATOM     24  C   UNL     1       0.486   5.564  -2.475  0.00  0.00    +0.066 C 
ATOM     25  C   UNL     1       1.486   6.536  -3.102  0.00  0.00    +0.025 C 
BRANCH  24  26
ATOM     26  C   UNL     1       0.056   4.551  -3.505  0.00  0.00    -0.033 A 
ATOM     27  C   UNL     1       0.415   3.224  -3.362  0.00  0.00    +0.004 A 
ATOM     28  C   UNL     1       0.016   2.295  -4.305  0.00  0.00    +0.000 A 
ATOM     29  C   UNL     1      -0.733   2.695  -5.395  0.00  0.00    +0.000 A 
ATOM     30  C   UNL     1      -1.088   4.023  -5.541  0.00  0.00    +0.000 A 
ATOM     31  C   UNL     1      -0.693   4.951  -4.596  0.00  0.00    +0.004 A 
ENDBRANCH  24  26
ENDBRANCH   1  24
TORSDOF 4
