REMARK  Name = ZINC51883281
REMARK  6 active torsions:
REMARK  status: ('A' for Active; 'I' for Inactive)
REMARK    1  A    between atoms: C_3  and  O_14
REMARK    2  A    between atoms: C_4  and  N_11
REMARK    3  A    between atoms: C_6  and  S_7
REMARK    4  A    between atoms: S_7  and  N_10
REMARK    5  A    between atoms: O_14  and  C_15
REMARK    6  A    between atoms: C_15  and  C_16
REMARK                            x       y       z     vdW  Elec       q    Type
REMARK                         _______ _______ _______ _____ _____    ______ ____
ROOT
ATOM      1  C   UNL     1      -0.017   1.378   0.010  0.00  0.00    +0.032 A 
ATOM      2  C   UNL     1       1.170   2.086   0.002  0.00  0.00    +0.050 A 
ATOM      3  C   UNL     1       2.380   1.409  -0.013  0.00  0.00    +0.151 A 
ATOM      4  C   UNL     1       2.396   0.022  -0.021  0.00  0.00    +0.169 A 
ATOM      5  C   UNL     1       1.208  -0.681  -0.013  0.00  0.00    +0.065 A 
ATOM      6  C   UNL     1       0.002  -0.004   0.002  0.00  0.00    +0.107 A 
ENDROOT
BRANCH   6   7
ATOM      7  S   UNL     1      -1.513  -0.904   0.012  0.00  0.00    +0.056 S 
ATOM      8  O   UNL     1      -1.220  -2.185   0.553  0.00  0.00    -0.153 OA
ATOM      9  O   UNL     1      -2.492  -0.044   0.577  0.00  0.00    -0.153 OA
BRANCH   7  10
ATOM     10  N   UNL     1      -1.949  -1.146  -1.567  0.00  0.00    -0.204 NA
ATOM     11  H   UNL     1      -2.458  -1.934  -1.814  0.00  0.00    +0.144 HD
ATOM     12  H   UNL     1      -1.696  -0.499  -2.244  0.00  0.00    +0.144 HD
ENDBRANCH   7  10
ENDBRANCH   6   7
BRANCH   4  13
ATOM     13  N   UNL     1       3.686  -0.704  -0.037  0.00  0.00    +0.060 N 
ATOM     14  O   UNL     1       3.700  -1.913  -0.044  0.00  0.00    -0.126 OA
ATOM     15  O   UNL     1       4.726  -0.088  -0.044  0.00  0.00    -0.126 OA
ENDBRANCH   4  13
BRANCH   3  16
ATOM     16  O   UNL     1       3.548   2.104  -0.021  0.00  0.00    -0.491 OA
BRANCH  16  17
ATOM     17  C   UNL     1       3.456   3.530  -0.013  0.00  0.00    +0.213 C 
BRANCH  17  18
ATOM     18  C   UNL     1       4.862   4.132  -0.024  0.00  0.00    -0.034 C 
ATOM     19  C   UNL     1       5.644   3.579  -1.217  0.00  0.00    -0.013 C 
ATOM     20  C   UNL     1       7.051   4.185  -1.223  0.00  0.00    -0.003 C 
ATOM     21  C   UNL     1       7.734   3.878   0.112  0.00  0.00    -0.019 C 
ATOM     22  C   UNL     1       6.875   4.420   1.256  0.00  0.00    -0.082 C 
ATOM     23  N   UNL     1       5.553   3.782   1.223  0.00  0.00    +0.383 N 
ATOM     24  H   UNL     1       5.008   4.101   2.010  0.00  0.00    -0.085 HD
ATOM     25  H   UNL     1       5.662   2.780   1.276  0.00  0.00    -0.085 HD
ENDBRANCH  17  18
ENDBRANCH  16  17
ENDBRANCH   3  16
TORSDOF 6
