REMARK  Name = ZINC21076919
REMARK  7 active torsions:
REMARK  status: ('A' for Active; 'I' for Inactive)
REMARK    1  A    between atoms: C_5  and  N_7
REMARK    2  A    between atoms: C_8  and  C_10
REMARK    3  A    between atoms: C_10  and  C_11
REMARK    4  A    between atoms: C_11  and  S_12
REMARK    5  A    between atoms: S_12  and  C_13
REMARK    6  A    between atoms: N_18  and  N_19
REMARK    7  A    between atoms: C_20  and  C_21
REMARK                            x       y       z     vdW  Elec       q    Type
REMARK                         _______ _______ _______ _____ _____    ______ ____
ROOT
ATOM      1  C   UNL     1       5.138  -6.471  -0.043  0.00  0.00    +0.210 A 
ATOM      2  N   UNL     1       3.797  -6.212  -0.018  0.00  0.00    -0.186 NA
ATOM      3  C   UNL     1       3.630  -4.855  -0.008  0.00  0.00    +0.232 A 
ATOM      4  N   UNL     1       4.817  -4.300  -0.031  0.00  0.00    -0.245 N 
ATOM      5  N   UNL     1       5.773  -5.324  -0.048  0.00  0.00    -0.144 NA
ATOM      6  N   UNL     1       2.416  -4.183   0.016  0.00  0.00    -0.205 N 
ATOM      7  H   UNL     1       1.474  -4.751   0.029  0.00  0.00    +0.177 HD
ATOM      8  H   UNL     1       4.912  -3.204  -0.034  0.00  0.00    +0.192 HD
ENDROOT
BRANCH   6   9
ATOM      9  N   UNL     1       2.390  -2.783   0.024  0.00  0.00    -0.188 NA
ATOM     10  C   UNL     1       1.254  -2.154   0.046  0.00  0.00    +0.139 C 
BRANCH  10  11
ATOM     11  C   UNL     1       1.227  -0.680   0.054  0.00  0.00    +0.013 A 
ATOM     12  C   UNL     1       0.007  -0.001   0.078  0.00  0.00    +0.012 A 
ATOM     13  C   UNL     1      -0.011   1.378   0.085  0.00  0.00    +0.021 A 
ATOM     14  C   UNL     1       1.177   2.090   0.068  0.00  0.00    +0.042 A 
ATOM     15  C   UNL     1       2.390   1.424   0.044  0.00  0.00    +0.040 A 
ATOM     16  C   UNL     1       2.423   0.044   0.037  0.00  0.00    +0.051 A 
ATOM     17 CL   UNL     1       3.945  -0.790   0.006  0.00  0.00    -0.083 Cl
ATOM     18 CL   UNL     1       1.144   3.826   0.076  0.00  0.00    -0.083 Cl
ENDBRANCH  10  11
ENDBRANCH   6   9
BRANCH   1  19
ATOM     19  S   UNL     1       5.884  -8.068  -0.064  0.00  0.00    -0.084 S 
BRANCH  19  20
ATOM     20  C   UNL     1       7.664  -7.720  -0.093  0.00  0.00    +0.086 C 
BRANCH  20  21
ATOM     21  C   UNL     1       8.441  -9.038  -0.114  0.00  0.00    +0.107 C 
BRANCH  21  23
ATOM     22  N   UNL     1      10.804  -9.766  -0.160  0.00  0.00    -0.285 N 
ATOM     23  C   UNL     1       9.919  -8.750  -0.139  0.00  0.00    +0.218 C 
ATOM     24  O   UNL     1      10.313  -7.603  -0.140  0.00  0.00    -0.275 OA
ATOM     25  H   UNL     1      10.450 -10.805  -0.084  0.00  0.00    +0.155 HD
BRANCH  22  30
ATOM     26  C   UNL     1      14.067  -8.110   0.201  0.00  0.00    +0.002 A 
ATOM     27  C   UNL     1      14.880  -8.973  -0.511  0.00  0.00    +0.001 A 
ATOM     28  C   UNL     1      14.343 -10.099  -1.106  0.00  0.00    +0.017 A 
ATOM     29  C   UNL     1      12.992 -10.366  -0.992  0.00  0.00    +0.039 A 
ATOM     30  C   UNL     1      12.173  -9.500  -0.277  0.00  0.00    +0.047 A 
ATOM     31  C   UNL     1      12.715  -8.367   0.316  0.00  0.00    +0.024 A 
ATOM     32 BR   UNL     1      12.258 -11.906  -1.808  0.00  0.00    -0.048 Br
ENDBRANCH  22  30
ENDBRANCH  21  23
ENDBRANCH  20  21
ENDBRANCH  19  20
ENDBRANCH   1  19
TORSDOF 7
