REMARK  Name = ZINC05274821
REMARK  8 active torsions:
REMARK  status: ('A' for Active; 'I' for Inactive)
REMARK    1  A    between atoms: C_1  and  C_2
REMARK    2  A    between atoms: C_8  and  C_12
REMARK    3  A    between atoms: C_12  and  C_13
REMARK    4  A    between atoms: C_13  and  N_14
REMARK    5  A    between atoms: C_18  and  C_23
REMARK    6  A    between atoms: N_21  and  N_22
REMARK    7  A    between atoms: C_26  and  O_29
REMARK    8  A    between atoms: O_29  and  C_30
REMARK                            x       y       z     vdW  Elec       q    Type
REMARK                         _______ _______ _______ _____ _____    ______ ____
ROOT
ATOM      1  N   UNL     1       0.982   3.376   0.030  0.00  0.00    -0.312 N 
ATOM      2  C   UNL     1       1.084   2.011   0.009  0.00  0.00    +0.235 A 
ATOM      3  N   UNL     1      -0.003   1.279   0.168  0.00  0.00    -0.113 NA
ATOM      4  N   UNL     1       0.015  -0.005   0.159  0.00  0.00    -0.140 NA
ATOM      5  C   UNL     1       1.142  -0.673  -0.013  0.00  0.00    +0.159 A 
ATOM      6  C   UNL     1       2.385   0.084  -0.195  0.00  0.00    +0.298 A 
ATOM      7  O   UNL     1       3.452  -0.483  -0.358  0.00  0.00    -0.264 OA
ATOM      8  N   UNL     1       2.304   1.435  -0.176  0.00  0.00    -0.199 N 
ATOM      9  H   UNL     1       1.775   3.923  -0.086  0.00  0.00    +0.149 HD
ENDROOT
BRANCH   5  10
ATOM     10  C   UNL     1       1.150  -2.154  -0.020  0.00  0.00    +0.008 A 
ATOM     11  C   UNL     1       2.132  -2.844  -0.730  0.00  0.00    +0.014 A 
ATOM     12  C   UNL     1       2.139  -4.223  -0.732  0.00  0.00    +0.046 A 
ATOM     13  C   UNL     1       1.164  -4.924  -0.035  0.00  0.00    +0.120 A 
ATOM     14  C   UNL     1       0.181  -4.240   0.669  0.00  0.00    +0.046 A 
ATOM     15  C   UNL     1       0.171  -2.862   0.678  0.00  0.00    +0.014 A 
BRANCH  13  16
ATOM     16  O   UNL     1       1.171  -6.283  -0.042  0.00  0.00    -0.495 OA
ATOM     17  C   UNL     1       2.210  -6.923  -0.786  0.00  0.00    +0.277 C 
ENDBRANCH  13  16
ENDBRANCH   5  10
BRANCH   8  18
ATOM     18  N   UNL     1       3.421   2.204  -0.340  0.00  0.00    -0.293 N 
ATOM     19  H   UNL     1       4.240   1.629  -0.465  0.00  0.00    +0.163 HD
ATOM     20  H   UNL     1       3.308   2.846  -1.110  0.00  0.00    +0.163 HD
ENDBRANCH   8  18
BRANCH   1  21
ATOM     21  C   UNL     1      -0.324   4.010   0.228  0.00  0.00    +0.109 C 
BRANCH  21  22
ATOM     22  C   UNL     1      -0.159   5.532   0.210  0.00  0.00    +0.056 C 
BRANCH  22  30
ATOM     23  C   UNL     1      -2.257   6.407   5.468  0.00  0.00    +0.044 C 
ATOM     24  C   UNL     1      -2.642   6.638   4.029  0.00  0.00    -0.050 A 
ATOM     25  C   UNL     1      -3.856   7.242   3.729  0.00  0.00    +0.005 A 
ATOM     26  C   UNL     1      -4.226   7.462   2.421  0.00  0.00    +0.026 A 
ATOM     27  C   UNL     1      -3.378   7.076   1.388  0.00  0.00    +0.047 A 
ATOM     28  C   UNL     1      -2.152   6.459   1.697  0.00  0.00    +0.003 A 
ATOM     29  C   UNL     1      -1.794   6.251   3.030  0.00  0.00    +0.013 A 
ATOM     30  C   UNL     1      -1.502   6.184   0.413  0.00  0.00    -0.021 A 
ATOM     31  C   UNL     1      -2.333   6.619  -0.548  0.00  0.00    +0.087 A 
ATOM     32  N   UNL     1      -3.459   7.155   0.016  0.00  0.00    -0.360 N 
ATOM     33  H   UNL     1      -4.203   7.533  -0.478  0.00  0.00    +0.165 HD
ENDBRANCH  22  30
ENDBRANCH  21  22
ENDBRANCH   1  21
TORSDOF 6
