REMARK  Name = ZINC06410276
REMARK  9 active torsions:
REMARK  status: ('A' for Active; 'I' for Inactive)
REMARK    1  A    between atoms: C_1  and  C_2
REMARK    2  A    between atoms: C_7  and  C_15
REMARK    3  A    between atoms: C_13  and  C_14
REMARK    4  A    between atoms: C_15  and  N_67
REMARK    5  A    between atoms: C_16  and  C_17
REMARK    6  A    between atoms: C_16  and  N_67
REMARK    7  A    between atoms: N_21  and  C_22
REMARK    8  A    between atoms: C_22  and  C_23
REMARK    9  A    between atoms: C_29  and  N_67
REMARK                            x       y       z     vdW  Elec       q    Type
REMARK                         _______ _______ _______ _____ _____    ______ ____
ROOT
ATOM      1  N   UNL     1       1.948  -1.927   0.131  0.00  0.00    +0.389 N 
ATOM      2  H   UNL     1       1.044  -1.443   0.077  0.00  0.00    -0.080 HD
ENDROOT
BRANCH   1   3
ATOM      3  C   UNL     1       2.027  -2.918  -0.963  0.00  0.00    -0.068 C 
ATOM      4  C   UNL     1       3.487  -3.243  -1.285  0.00  0.00    -0.015 C 
ATOM      5  C   UNL     1       3.544  -4.261  -2.425  0.00  0.00    -0.002 C 
ATOM      6  C   UNL     1       2.865  -3.676  -3.666  0.00  0.00    -0.000 C 
ATOM      7  C   UNL     1       1.405  -3.352  -3.343  0.00  0.00    -0.002 C 
ATOM      8  C   UNL     1       1.349  -2.333  -2.203  0.00  0.00    -0.015 C 
ENDBRANCH   1   3
BRANCH   1   9
ATOM      9  C   UNL     1       2.052  -2.607   1.438  0.00  0.00    -0.037 C 
BRANCH   9  16
ATOM     10  C   UNL     1      -3.947  -7.809   2.200  0.00  0.00    +0.044 C 
ATOM     11  C   UNL     1      -2.691  -7.007   1.974  0.00  0.00    -0.046 A 
ATOM     12  C   UNL     1      -1.562  -7.630   1.459  0.00  0.00    +0.004 A 
ATOM     13  C   UNL     1      -0.414  -6.921   1.246  0.00  0.00    +0.010 A 
ATOM     14  C   UNL     1      -0.375  -5.556   1.550  0.00  0.00    -0.001 A 
ATOM     15  C   UNL     1       0.840  -4.767   1.335  0.00  0.00    +0.017 A 
ATOM     16  C   UNL     1       0.819  -3.448   1.648  0.00  0.00    +0.001 A 
ATOM     17  C   UNL     1      -0.351  -2.861   2.175  0.00  0.00    +0.251 A 
ATOM     18  O   UNL     1      -0.347  -1.675   2.454  0.00  0.00    -0.268 OA
ATOM     19  N   UNL     1      -1.473  -3.576   2.371  0.00  0.00    -0.322 N 
ATOM     20  H   UNL     1      -2.261  -3.141   2.731  0.00  0.00    +0.169 HD
ATOM     21  C   UNL     1      -1.517  -4.922   2.072  0.00  0.00    +0.052 A 
ATOM     22  C   UNL     1      -2.676  -5.663   2.280  0.00  0.00    -0.024 A 
ATOM     23  C   UNL     1      -3.909  -5.000   2.837  0.00  0.00    +0.046 C 
ENDBRANCH   9  16
ENDBRANCH   1   9
BRANCH   1  24
ATOM     24  C   UNL     1       3.034  -0.933  -0.009  0.00  0.00    +0.001 C 
BRANCH  24  25
ATOM     25  C   UNL     1       2.693  -0.001  -1.143  0.00  0.00    +0.135 A 
ATOM     26  N   UNL     1       3.143  -0.068  -2.373  0.00  0.00    -0.115 NA
ATOM     27  N   UNL     1       2.626   0.905  -3.039  0.00  0.00    -0.023 NA
ATOM     28  N   UNL     1       1.854   1.589  -2.268  0.00  0.00    -0.044 NA
ATOM     29  N   UNL     1       1.866   1.059  -1.092  0.00  0.00    -0.229 N 
BRANCH  29  30
ATOM     30  C   UNL     1       1.125   1.528   0.081  0.00  0.00    +0.178 C 
BRANCH  30  31
ATOM     31  C   UNL     1      -0.246   0.849   0.123  0.00  0.00    +0.140 C 
ATOM     32  C   UNL     1      -1.012   1.262   1.405  0.00  0.00    +0.035 C 
ATOM     33  C   UNL     1      -2.483   1.039   0.951  0.00  0.00    +0.031 C 
ATOM     34  C   UNL     1      -2.426   1.417  -0.545  0.00  0.00    +0.160 C 
ATOM     35  O   UNL     1      -1.062   1.306  -0.968  0.00  0.00    -0.375 OA
ENDBRANCH  30  31
ENDBRANCH  29  30
ENDBRANCH  24  25
ENDBRANCH   1  24
TORSDOF 7
