REMARK  Name = ZINC26354096
REMARK  8 active torsions:
REMARK  status: ('A' for Active; 'I' for Inactive)
REMARK    1  A    between atoms: C_1  and  C_2
REMARK    2  A    between atoms: C_2  and  O_3
REMARK    3  A    between atoms: O_3  and  C_4
REMARK    4  A    between atoms: C_9  and  C_10
REMARK    5  A    between atoms: C_11  and  C_12
REMARK    6  A    between atoms: N_14  and  C_15
REMARK    7  A    between atoms: C_18  and  N_21
REMARK    8  A    between atoms: C_26  and  C_29
REMARK                            x       y       z     vdW  Elec       q    Type
REMARK                         _______ _______ _______ _____ _____    ______ ____
ROOT
ATOM      1  C   UNL     1      -5.528   4.632  -1.130  0.00  0.00    +0.241 C 
ATOM      2  O   UNL     1      -4.586   5.390  -1.274  0.00  0.00    -0.270 OA
ATOM      3  N   UNL     1      -5.318   3.366  -0.719  0.00  0.00    -0.282 N 
ATOM      4  H   UNL     1      -6.173   2.705  -0.517  0.00  0.00    +0.155 HD
ENDROOT
BRANCH   3   5
ATOM      5  C   UNL     1      -4.012   2.892  -0.550  0.00  0.00    +0.034 A 
ATOM      6  C   UNL     1      -3.018   3.745  -0.086  0.00  0.00    +0.025 A 
ATOM      7  C   UNL     1      -1.730   3.278   0.080  0.00  0.00    +0.025 A 
ATOM      8  C   UNL     1      -1.427   1.955  -0.217  0.00  0.00    +0.035 A 
ATOM      9  C   UNL     1      -2.419   1.104  -0.686  0.00  0.00    +0.025 A 
ATOM     10  C   UNL     1      -3.709   1.570  -0.847  0.00  0.00    +0.025 A 
BRANCH   8  11
ATOM     11  N   UNL     1      -0.119   1.482  -0.049  0.00  0.00    -0.270 N 
ATOM     12  C   UNL     1       0.639   1.942   0.966  0.00  0.00    +0.301 C 
ATOM     13  O   UNL     1       0.218   2.826   1.687  0.00  0.00    -0.253 OA
ATOM     14  N   UNL     1       1.864   1.424   1.181  0.00  0.00    -0.313 N 
ATOM     15  H   UNL     1       0.288   0.733  -0.744  0.00  0.00    +0.156 HD
ATOM     16  H   UNL     1       2.483   1.800   2.008  0.00  0.00    +0.146 HD
ATOM     17  H   UNL     1       2.245   0.624   0.528  0.00  0.00    +0.146 HD
ENDBRANCH   8  11
ENDBRANCH   3   5
BRANCH   1  19
ATOM     18  C   UNL     1      -7.097   6.365  -1.816  0.00  0.00    +0.017 C 
ATOM     19  C   UNL     1      -6.887   5.096  -1.404  0.00  0.00    +0.068 C 
BRANCH  18  25
ATOM     20  C   UNL     1      -8.684   8.152  -2.513  0.00  0.00    +0.128 A 
ATOM     21  C   UNL     1      -9.977   8.575  -2.779  0.00  0.00    +0.053 A 
ATOM     22  C   UNL     1     -11.036   7.709  -2.618  0.00  0.00    +0.001 A 
ATOM     23  C   UNL     1     -10.836   6.400  -2.188  0.00  0.00    +0.125 A 
ATOM     24  C   UNL     1      -9.546   5.963  -1.927  0.00  0.00    +0.057 A 
ATOM     25  C   UNL     1      -8.463   6.831  -2.091  0.00  0.00    +0.020 A 
ATOM     26  O   UNL     1     -12.019   5.731  -2.085  0.00  0.00    -0.488 OA
ATOM     27  C   UNL     1     -13.021   6.416  -2.855  0.00  0.00    +0.175 C 
ATOM     28  C   UNL     1     -12.528   7.882  -2.832  0.00  0.00    +0.083 C 
ATOM     29  C   UNL     1     -13.063   5.881  -4.287  0.00  0.00    +0.052 C 
BRANCH  20  30
ATOM     30  O   UNL     1      -7.639   9.005  -2.665  0.00  0.00    -0.492 OA
BRANCH  30  32
ATOM     31  C   UNL     1      -6.649  11.141  -3.212  0.00  0.00    +0.048 C 
ATOM     32  C   UNL     1      -7.943  10.332  -3.098  0.00  0.00    +0.226 C 
ENDBRANCH  30  32
ENDBRANCH  20  30
ENDBRANCH  18  25
ENDBRANCH   1  19
TORSDOF 6
