REMARK  Name = ZINC16752093
REMARK  11 active torsions:
REMARK  status: ('A' for Active; 'I' for Inactive)
REMARK    1  A    between atoms: C_1  and  C_2
REMARK    2  A    between atoms: C_2  and  O_3
REMARK    3  A    between atoms: O_3  and  C_4
REMARK    4  A    between atoms: C_8  and  C_10
REMARK    5  A    between atoms: C_17  and  C_31
REMARK    6  A    between atoms: N_25  and  C_26
REMARK    7  A    between atoms: C_26  and  C_27
REMARK    8  A    between atoms: C_27  and  C_28
REMARK    9  A    between atoms: C_28  and  N_59
REMARK   10  A    between atoms: C_29  and  N_59
REMARK   11  A    between atoms: C_30  and  N_59
REMARK                            x       y       z     vdW  Elec       q    Type
REMARK                         _______ _______ _______ _____ _____    ______ ____
ROOT
ATOM      1  C   UNL     1      -3.753  -2.869  -0.515  0.00  0.00    +0.145 C 
ATOM      2  C   UNL     1      -4.964  -3.361   0.234  0.00  0.00    +0.072 A 
ATOM      3  C   UNL     1      -6.288  -3.811  -0.205  0.00  0.00    +0.199 A 
ATOM      4  O   UNL     1      -6.596  -3.840  -1.384  0.00  0.00    -0.287 OA
ATOM      5  C   UNL     1      -7.230  -4.228   0.852  0.00  0.00    +0.065 A 
ATOM      6  C   UNL     1      -8.515  -4.675   0.547  0.00  0.00    +0.018 A 
ATOM      7  C   UNL     1      -9.357  -5.052   1.557  0.00  0.00    -0.050 A 
ATOM      8  C   UNL     1      -8.938  -4.993   2.878  0.00  0.00    +0.007 A 
ATOM      9  C   UNL     1      -7.671  -4.555   3.198  0.00  0.00    +0.047 A 
ATOM     10  C   UNL     1      -6.796  -4.165   2.187  0.00  0.00    +0.139 A 
ATOM     11  O   UNL     1      -5.557  -3.735   2.482  0.00  0.00    -0.450 OA
ATOM     12  C   UNL     1      -4.661  -3.344   1.555  0.00  0.00    +0.199 A 
ATOM     13  C   UNL     1      -3.268  -2.856   1.708  0.00  0.00    +0.283 C 
ATOM     14  O   UNL     1      -2.689  -2.727   2.768  0.00  0.00    -0.267 OA
ATOM     15  N   UNL     1      -2.739  -2.573   0.505  0.00  0.00    -0.284 N 
ATOM     16  C   UNL     1     -10.747  -5.535   1.232  0.00  0.00    +0.044 C 
ENDROOT
BRANCH   1  21
ATOM     17  C   UNL     1      -3.044  -4.830  -3.666  0.00  0.00    +0.121 A 
ATOM     18  C   UNL     1      -2.326  -5.906  -3.164  0.00  0.00    +0.045 A 
ATOM     19  C   UNL     1      -2.074  -5.994  -1.809  0.00  0.00    +0.004 A 
ATOM     20  C   UNL     1      -2.531  -5.008  -0.954  0.00  0.00    +0.006 A 
ATOM     21  C   UNL     1      -3.251  -3.938  -1.451  0.00  0.00    -0.019 A 
ATOM     22  C   UNL     1      -3.506  -3.845  -2.805  0.00  0.00    +0.051 A 
BRANCH  17  23
ATOM     23  O   UNL     1      -3.294  -4.741  -4.999  0.00  0.00    -0.492 OA
BRANCH  23  25
ATOM     24  C   UNL     1      -3.165  -5.519  -7.283  0.00  0.00    +0.048 C 
ATOM     25  C   UNL     1      -2.787  -5.791  -5.826  0.00  0.00    +0.225 C 
ENDBRANCH  23  25
ENDBRANCH  17  23
ENDBRANCH   1  21
BRANCH  15  26
ATOM     26  C   UNL     1      -1.388  -2.064   0.255  0.00  0.00    +0.107 C 
BRANCH  26  27
ATOM     27  C   UNL     1      -1.409  -0.535   0.263  0.00  0.00    +0.000 C 
BRANCH  27  28
ATOM     28  C   UNL     1       0.002  -0.004   0.002  0.00  0.00    -0.078 C 
BRANCH  28  31
ATOM     29  C   UNL     1       1.346   2.010   0.000  0.00  0.00    -0.097 C 
ATOM     30  C   UNL     1      -0.802   1.987  -1.117  0.00  0.00    -0.097 C 
ATOM     31  N   UNL     1      -0.030   1.473   0.034  0.00  0.00    +0.376 N 
ATOM     32  H   UNL     1      -0.486   1.778   0.903  0.00  0.00    -0.083 HD
ENDBRANCH  28  31
ENDBRANCH  27  28
ENDBRANCH  26  27
ENDBRANCH  15  26
TORSDOF 7
