REMARK  Name = ZINC45633655
REMARK  9 active torsions:
REMARK  status: ('A' for Active; 'I' for Inactive)
REMARK    1  A    between atoms: C_1  and  C_2
REMARK    2  A    between atoms: C_2  and  C_3
REMARK    3  A    between atoms: C_10  and  C_12
REMARK    4  A    between atoms: C_15  and  S_18
REMARK    5  A    between atoms: N_16  and  C_17
REMARK    6  A    between atoms: S_18  and  C_19
REMARK    7  A    between atoms: C_19  and  C_20
REMARK    8  A    between atoms: N_22  and  C_23
REMARK    9  A    between atoms: C_28  and  N_29
REMARK                            x       y       z     vdW  Elec       q    Type
REMARK                         _______ _______ _______ _____ _____    ______ ____
ROOT
ATOM      1  S   UNL     1       1.829  -0.768 -11.281  0.00  0.00    -0.077 S 
ENDROOT
BRANCH   1   5
ATOM      2  C   UNL     1       0.835  -0.571  -7.506  0.00  0.00    +0.171 A 
ATOM      3  N   UNL     1      -0.065   0.194  -8.084  0.00  0.00    -0.128 NA
ATOM      4  N   UNL     1       0.137   0.227  -9.352  0.00  0.00    -0.122 NA
ATOM      5  C   UNL     1       1.177  -0.512  -9.665  0.00  0.00    +0.192 A 
ATOM      6  N   UNL     1       1.662  -1.042  -8.501  0.00  0.00    -0.305 N 
ATOM      7  C   UNL     1       2.818  -1.929  -8.347  0.00  0.00    +0.153 C 
BRANCH   2  14
ATOM      8  C   UNL     1       0.775  -0.421  -1.251  0.00  0.00    -0.007 C 
ATOM      9  C   UNL     1       0.905  -1.945  -1.186  0.00  0.00    +0.009 C 
ATOM     10  C   UNL     1       1.843  -2.408  -2.311  0.00  0.00    +0.043 C 
ATOM     11  C   UNL     1       1.424  -1.738  -3.579  0.00  0.00    -0.006 A 
ATOM     12  C   UNL     1       0.588  -0.669  -3.716  0.00  0.00    -0.036 A 
ATOM     13  C   UNL     1       0.348  -0.227  -5.011  0.00  0.00    +0.023 A 
ATOM     14  C   UNL     1       0.943  -0.862  -6.067  0.00  0.00    +0.057 A 
ATOM     15  S   UNL     1       1.885  -2.137  -5.244  0.00  0.00    -0.090 S 
ATOM     16  C   UNL     1      -0.035  -0.019  -2.484  0.00  0.00    +0.039 C 
BRANCH   8  18
ATOM     17  C   UNL     1       0.051   1.612   0.008  0.00  0.00    +0.004 C 
ATOM     18  C   UNL     1       0.066   0.082   0.008  0.00  0.00    +0.000 C 
ENDBRANCH   8  18
ENDBRANCH   2  14
ENDBRANCH   1   5
BRANCH   1  19
ATOM     19  C   UNL     1       0.741   0.210 -12.353  0.00  0.00    +0.173 C 
BRANCH  19  20
ATOM     20  C   UNL     1       1.193   0.077 -13.785  0.00  0.00    +0.228 C 
ATOM     21  O   UNL     1       2.156  -0.610 -14.055  0.00  0.00    -0.275 OA
ATOM     22  N   UNL     1       0.529   0.722 -14.764  0.00  0.00    -0.283 N 
ATOM     23  H   UNL     1      -0.286   1.206 -14.560  0.00  0.00    +0.155 HD
BRANCH  22  24
ATOM     24  C   UNL     1       1.017   0.693 -16.077  0.00  0.00    +0.055 A 
ATOM     25  C   UNL     1       2.367   0.479 -16.313  0.00  0.00    +0.025 A 
ATOM     26  C   UNL     1       2.845   0.451 -17.610  0.00  0.00    +0.002 A 
ATOM     27  C   UNL     1       1.982   0.635 -18.674  0.00  0.00    +0.002 A 
ATOM     28  C   UNL     1       0.635   0.848 -18.448  0.00  0.00    +0.025 A 
ATOM     29  C   UNL     1       0.145   0.873 -17.151  0.00  0.00    +0.057 A 
BRANCH  29  30
ATOM     30  N   UNL     1      -1.220   1.083 -16.919  0.00  0.00    -0.270 N 
ATOM     31  C   UNL     1      -1.836   2.404 -16.744  0.00  0.00    +0.114 C 
ATOM     32  C   UNL     1      -3.350   2.183 -16.956  0.00  0.00    +0.029 C 
ATOM     33  C   UNL     1      -3.507   0.690 -16.586  0.00  0.00    +0.098 C 
ATOM     34  C   UNL     1      -2.135   0.102 -16.835  0.00  0.00    +0.220 C 
ATOM     35  O   UNL     1      -1.896  -1.082 -16.942  0.00  0.00    -0.275 OA
ENDBRANCH  29  30
ENDBRANCH  22  24
ENDBRANCH  19  20
ENDBRANCH   1  19
TORSDOF 7
