REMARK  Name = ZINC59489004
REMARK  6 active torsions:
REMARK  status: ('A' for Active; 'I' for Inactive)
REMARK    1  A    between atoms: C_4  and  N_24
REMARK    2  A    between atoms: C_5  and  C_7
REMARK    3  A    between atoms: N_9  and  N_10
REMARK    4  A    between atoms: N_10  and  C_11
REMARK    5  A    between atoms: C_12  and  C_18
REMARK    6  A    between atoms: C_18  and  C_20
REMARK                            x       y       z     vdW  Elec       q    Type
REMARK                         _______ _______ _______ _____ _____    ______ ____
ROOT
ATOM      1  N   UNL     1       1.099  -3.845   0.148  0.00  0.00    -0.268 N 
ATOM      2  H   UNL     1       1.156  -2.877   0.114  0.00  0.00    +0.170 HD
ENDROOT
BRANCH   1   3
ATOM      3  C   UNL     1      -0.118  -4.457   0.117  0.00  0.00    +0.029 C 
ATOM      4  C   UNL     1      -1.227  -3.731  -0.092  0.00  0.00    +0.022 C 
ATOM      5  C   UNL     1      -2.583  -4.404  -0.128  0.00  0.00    +0.040 C 
ATOM      6  C   UNL     1      -2.684  -5.224  -1.416  0.00  0.00    +0.005 C 
ATOM      7  C   UNL     1      -2.083  -6.604  -1.228  0.00  0.00    +0.001 C 
ATOM      8  C   UNL     1      -0.580  -6.602  -1.021  0.00  0.00    +0.006 C 
ATOM      9  C   UNL     1      -0.214  -5.956   0.312  0.00  0.00    +0.052 C 
BRANCH   4  10
ATOM     10  C   UNL     1      -1.130  -2.345  -0.277  0.00  0.00    +0.263 C 
ATOM     11  O   UNL     1      -0.038  -1.819  -0.374  0.00  0.00    -0.283 OA
BRANCH  10  12
ATOM     12  C   UNL     1      -2.379  -1.506  -0.354  0.00  0.00    +0.455 C 
ATOM     13  F   UNL     1      -2.029  -0.164  -0.540  0.00  0.00    -0.163 F 
ATOM     14  F   UNL     1      -3.164  -1.936  -1.430  0.00  0.00    -0.163 F 
ATOM     15  F   UNL     1      -3.105  -1.638   0.834  0.00  0.00    -0.163 F 
ENDBRANCH  10  12
ENDBRANCH   4  10
ENDBRANCH   1   3
BRANCH   1  18
ATOM     16  C   UNL     1       3.473  -4.014   0.161  0.00  0.00    +0.262 C 
ATOM     17  O   UNL     1       3.549  -2.801   0.121  0.00  0.00    -0.269 OA
ATOM     18  N   UNL     1       2.268  -4.613   0.230  0.00  0.00    -0.233 N 
ATOM     19  H   UNL     1       2.209  -5.575   0.336  0.00  0.00    +0.173 HD
BRANCH  16  24
ATOM     20  C   UNL     1       5.768  -6.980   0.037  0.00  0.00    +0.001 A 
ATOM     21  C   UNL     1       7.011  -6.368   0.088  0.00  0.00    +0.002 A 
ATOM     22  C   UNL     1       7.110  -4.994   0.162  0.00  0.00    +0.023 A 
ATOM     23  C   UNL     1       5.960  -4.213   0.187  0.00  0.00    +0.037 A 
ATOM     24  C   UNL     1       4.701  -4.830   0.136  0.00  0.00    +0.059 A 
ATOM     25  C   UNL     1       4.618  -6.223   0.060  0.00  0.00    +0.015 A 
BRANCH  23  26
ATOM     26  N   UNL     1       6.057  -2.830   0.262  0.00  0.00    -0.357 N 
ATOM     27  H   UNL     1       6.924  -2.410   0.377  0.00  0.00    +0.142 HD
ATOM     28  H   UNL     1       5.258  -2.284   0.199  0.00  0.00    +0.142 HD
ENDBRANCH  23  26
ENDBRANCH  16  24
ENDBRANCH   1  18
TORSDOF 6
