REMARK  Name = ZINC36580901
REMARK  20 active torsions:
REMARK  status: ('A' for Active; 'I' for Inactive)
REMARK    1  A    between atoms: C_1  and  C_2
REMARK    2  A    between atoms: C_2  and  C_3
REMARK    3  A    between atoms: C_2  and  C_4
REMARK    4  A    between atoms: C_2  and  C_5
REMARK    5  A    between atoms: C_5  and  C_6
REMARK    6  A    between atoms: C_6  and  C_7
REMARK    7  A    between atoms: C_6  and  C_8
REMARK    8  A    between atoms: C_6  and  N_9
REMARK    9  A    between atoms: C_10  and  C_12
REMARK   10  A    between atoms: C_12  and  C_14
REMARK   11  A    between atoms: C_12  and  N_24
REMARK   12  A    between atoms: C_17  and  C_20
REMARK   13  A    between atoms: N_24  and  C_37
REMARK   14  A    between atoms: C_25  and  C_27
REMARK   15  A    between atoms: C_27  and  C_29
REMARK   16  A    between atoms: C_27  and  O_35
REMARK   17  A    between atoms: O_35  and  C_36
REMARK   18  A    between atoms: C_37  and  C_38
REMARK   19  A    between atoms: C_37  and  C_39
REMARK   20  A    between atoms: C_37  and  C_40
REMARK                            x       y       z     vdW  Elec       q    Type
REMARK                         _______ _______ _______ _____ _____    ______ ____
ROOT
ATOM      1  C   UNL     1       4.815   0.282  -2.633  0.00  0.00    +0.193 C 
ENDROOT
BRANCH   1   2
ATOM      2  C   UNL     1       4.539   0.909  -3.976  0.00  0.00    -0.018 A 
ATOM      3  C   UNL     1       5.481   1.734  -4.560  0.00  0.00    +0.006 A 
ATOM      4  C   UNL     1       5.228   2.309  -5.792  0.00  0.00    +0.013 A 
ATOM      5  C   UNL     1       4.032   2.058  -6.439  0.00  0.00    +0.055 A 
ATOM      6  C   UNL     1       3.091   1.231  -5.855  0.00  0.00    +0.013 A 
ATOM      7  C   UNL     1       3.346   0.653  -4.626  0.00  0.00    +0.006 A 
BRANCH   5   8
ATOM      8  C   UNL     1       3.756   2.685  -7.781  0.00  0.00    +0.417 C 
ATOM      9  F   UNL     1       4.214   1.838  -8.795  0.00  0.00    -0.166 F 
ATOM     10  F   UNL     1       2.379   2.886  -7.927  0.00  0.00    -0.166 F 
ATOM     11  F   UNL     1       4.418   3.915  -7.866  0.00  0.00    -0.166 F 
ENDBRANCH   5   8
ENDBRANCH   1   2
BRANCH   1  13
ATOM     12  N   UNL     1       3.037   1.494  -1.414  0.00  0.00    -0.308 N 
ATOM     13  C   UNL     1       4.348   1.209  -1.541  0.00  0.00    +0.239 C 
ATOM     14  O   UNL     1       5.152   1.698  -0.776  0.00  0.00    -0.273 OA
ATOM     15  H   UNL     1       2.394   1.103  -2.026  0.00  0.00    +0.149 HD
BRANCH  12  16
ATOM     16  C   UNL     1       2.583   2.395  -0.352  0.00  0.00    +0.030 C 
ATOM     17  C   UNL     1       3.309   3.736  -0.475  0.00  0.00    +0.031 C 
ATOM     18  C   UNL     1       2.890   1.772   1.012  0.00  0.00    +0.031 C 
BRANCH  16  19
ATOM     19  C   UNL     1       1.075   2.618  -0.482  0.00  0.00    +0.031 C 
BRANCH  19  21
ATOM     20  C   UNL     1       0.696   1.772  -2.803  0.00  0.00    +0.010 C 
ATOM     21  C   UNL     1       0.742   3.021  -1.920  0.00  0.00    -0.036 C 
ATOM     22  C   UNL     1       1.817   3.976  -2.444  0.00  0.00    +0.010 C 
ATOM     23  C   UNL     1      -0.620   3.719  -1.952  0.00  0.00    +0.010 C 
ENDBRANCH  19  21
ENDBRANCH  16  19
ENDBRANCH  12  16
ENDBRANCH   1  13
BRANCH   1  24
ATOM     24  N   UNL     1       6.254   0.046  -2.491  0.00  0.00    -0.278 N 
ATOM     25  C   UNL     1       7.090   1.082  -2.282  0.00  0.00    +0.250 C 
ATOM     26  O   UNL     1       6.642   2.178  -2.015  0.00  0.00    -0.272 OA
BRANCH  24  27
ATOM     27  C   UNL     1       6.785  -1.317  -2.578  0.00  0.00    +0.030 C 
ATOM     28  C   UNL     1       5.733  -2.235  -3.203  0.00  0.00    +0.031 C 
ATOM     29  C   UNL     1       8.045  -1.320  -3.445  0.00  0.00    +0.031 C 
ATOM     30  C   UNL     1       7.130  -1.819  -1.174  0.00  0.00    +0.031 C 
ENDBRANCH  24  27
BRANCH  25  31
ATOM     31  C   UNL     1       8.580   0.880  -2.379  0.00  0.00    +0.233 C 
BRANCH  31  32
ATOM     32  C   UNL     1       9.014  -0.150  -1.368  0.00  0.00    -0.010 A 
ATOM     33  C   UNL     1       8.750   0.045  -0.026  0.00  0.00    +0.006 A 
ATOM     34  C   UNL     1       9.148  -0.900   0.901  0.00  0.00    +0.000 A 
ATOM     35  C   UNL     1       9.811  -2.040   0.485  0.00  0.00    +0.000 A 
ATOM     36  C   UNL     1      10.074  -2.235  -0.858  0.00  0.00    +0.000 A 
ATOM     37  C   UNL     1       9.672  -1.292  -1.785  0.00  0.00    +0.006 A 
ENDBRANCH  31  32
BRANCH  31  38
ATOM     38  O   UNL     1       9.246   2.117  -2.115  0.00  0.00    -0.366 OA
ATOM     39  C   UNL     1       9.474   2.914  -3.279  0.00  0.00    +0.195 C 
ENDBRANCH  31  38
ENDBRANCH  25  31
ENDBRANCH   1  24
TORSDOF 11
