REMARK  Name = ZINC14745210
REMARK  9 active torsions:
REMARK  status: ('A' for Active; 'I' for Inactive)
REMARK    1  A    between atoms: C_1  and  C_2
REMARK    2  A    between atoms: C_2  and  C_3
REMARK    3  A    between atoms: C_2  and  C_4
REMARK    4  A    between atoms: C_2  and  N_60
REMARK    5  A    between atoms: C_4  and  O_5
REMARK    6  A    between atoms: C_6  and  N_60
REMARK    7  A    between atoms: C_12  and  C_18
REMARK    8  A    between atoms: N_14  and  C_15
REMARK    9  A    between atoms: C_15  and  C_16
REMARK                            x       y       z     vdW  Elec       q    Type
REMARK                         _______ _______ _______ _____ _____    ______ ____
ROOT
ATOM      1  C   UNL     1      -2.758  -2.591   0.369  0.00  0.00    -0.066 C 
ATOM      2  C   UNL     1      -3.074  -2.461   1.862  0.00  0.00    -0.009 C 
ATOM      3  C   UNL     1      -4.545  -2.818   2.110  0.00  0.00    +0.054 C 
ATOM      4  C   UNL     1      -4.833  -4.137   1.439  0.00  0.00    +0.043 A 
ATOM      5  C   UNL     1      -4.039  -4.691   0.490  0.00  0.00    +0.004 A 
ATOM      6  C   UNL     1      -4.651  -5.904   0.134  0.00  0.00    +0.151 A 
ATOM      7  N   UNL     1      -5.747  -6.005   0.867  0.00  0.00    -0.166 NA
ATOM      8  N   UNL     1      -5.863  -4.976   1.634  0.00  0.00    -0.264 N 
ATOM      9  C   UNL     1      -2.770  -4.072  -0.030  0.00  0.00    +0.023 C 
ENDROOT
BRANCH   6  10
ATOM     10  C   UNL     1      -4.166  -6.878  -0.865  0.00  0.00    +0.267 C 
ATOM     11  O   UNL     1      -3.086  -6.714  -1.399  0.00  0.00    -0.268 OA
ATOM     12  N   UNL     1      -4.920  -7.948  -1.185  0.00  0.00    -0.296 N 
ATOM     13  C   UNL     1      -6.247  -8.055  -0.620  0.00  0.00    +0.108 C 
ATOM     14  C   UNL     1      -6.184  -8.796   0.732  0.00  0.00    +0.019 C 
ATOM     15  C   UNL     1      -5.895 -10.222   0.519  0.00  0.00    +0.002 C 
ATOM     16  C   UNL     1      -4.541 -10.499  -0.128  0.00  0.00    +0.002 C 
ATOM     17  C   UNL     1      -4.674 -10.399  -1.627  0.00  0.00    +0.019 C 
ATOM     18  C   UNL     1      -4.355  -8.966  -2.092  0.00  0.00    +0.108 C 
ENDBRANCH   6  10
BRANCH   1  19
ATOM     19  N   UNL     1      -1.421  -2.027   0.100  0.00  0.00    +0.386 N 
ATOM     20  H   UNL     1      -0.846  -2.102   0.947  0.00  0.00    -0.085 HD
ATOM     21  H   UNL     1      -0.979  -2.554  -0.662  0.00  0.00    -0.085 HD
BRANCH  19  23
ATOM     22  C   UNL     1      -0.130  -0.031  -0.485  0.00  0.00    -0.008 C 
ATOM     23  C   UNL     1      -1.533  -0.609  -0.290  0.00  0.00    -0.050 C 
ATOM     24  C   UNL     1      -2.258   0.171   0.808  0.00  0.00    -0.008 C 
BRANCH  23  25
ATOM     25  C   UNL     1      -2.317  -0.496  -1.599  0.00  0.00    +0.143 C 
BRANCH  25  26
ATOM     26  O   UNL     1      -2.512   0.883  -1.920  0.00  0.00    -0.396 OA
ATOM     27  H   UNL     1      -3.003   1.030  -2.740  0.00  0.00    +0.209 HD
ENDBRANCH  25  26
ENDBRANCH  23  25
ENDBRANCH  19  23
ENDBRANCH   1  19
BRANCH   8  28
ATOM     28  C   UNL     1      -6.960  -4.753   2.580  0.00  0.00    +0.170 C 
BRANCH  28  29
ATOM     29  C   UNL     1      -6.598  -5.348   3.917  0.00  0.00    -0.012 C 
ATOM     30  C   UNL     1      -6.629  -4.604   4.995  0.00  0.00    +0.006 C 
ENDBRANCH  28  29
ENDBRANCH   8  28
TORSDOF 7
