REMARK  Name = ZINC41924819
REMARK  6 active torsions:
REMARK  status: ('A' for Active; 'I' for Inactive)
REMARK    1  A    between atoms: C_3  and  C_6
REMARK    2  A    between atoms: C_6  and  C_8
REMARK    3  A    between atoms: C_6  and  N_13
REMARK    4  A    between atoms: C_14  and  C_16
REMARK    5  A    between atoms: N_18  and  C_19
REMARK    6  A    between atoms: C_23  and  C_25
REMARK                            x       y       z     vdW  Elec       q    Type
REMARK                         _______ _______ _______ _____ _____    ______ ____
ROOT
ATOM      1  N   UNL     1       4.383   1.229   0.804  0.00  0.00    -0.300 N 
ATOM      2  C   UNL     1       4.295   1.417   2.136  0.00  0.00    +0.300 C 
ATOM      3  O   UNL     1       3.496   2.212   2.585  0.00  0.00    -0.265 OA
ATOM      4  H   UNL     1       4.969   0.543   0.449  0.00  0.00    +0.150 HD
ENDROOT
BRANCH   2   5
ATOM      5  C   UNL     1       5.179   0.645   3.059  0.00  0.00    +0.303 C 
ATOM      6  O   UNL     1       5.978  -0.151   2.610  0.00  0.00    -0.265 OA
ATOM      7  N   UNL     1       5.090   0.832   4.391  0.00  0.00    -0.278 N 
ATOM      8  H   UNL     1       4.496   1.510   4.747  0.00  0.00    +0.155 HD
BRANCH   7   9
ATOM      9  C   UNL     1       5.855   0.048   5.259  0.00  0.00    +0.035 A 
ATOM     10  C   UNL     1       7.137  -0.347   4.892  0.00  0.00    +0.025 A 
ATOM     11  C   UNL     1       7.898  -1.123   5.746  0.00  0.00    +0.023 A 
ATOM     12  C   UNL     1       7.390  -1.510   6.971  0.00  0.00    +0.058 A 
ATOM     13  C   UNL     1       6.103  -1.118   7.350  0.00  0.00    +0.072 A 
ATOM     14  C   UNL     1       5.338  -0.331   6.488  0.00  0.00    +0.043 A 
ATOM     15 CL   UNL     1       8.351  -2.485   8.040  0.00  0.00    -0.082 Cl
BRANCH  13  16
ATOM     16  C   UNL     1       5.574  -1.518   8.618  0.00  0.00    +0.101 C 
ATOM     17  N   UNL     1       5.154  -1.836   9.625  0.00  0.00    -0.191 NA
ENDBRANCH  13  16
ENDBRANCH   7   9
ENDBRANCH   2   5
BRANCH   1  18
ATOM     18  C   UNL     1       3.595   2.063  -0.107  0.00  0.00    +0.113 C 
BRANCH  18  21
ATOM     19  C   UNL     1      -0.174   1.538  -0.267  0.00  0.00    +0.008 A 
ATOM     20  C   UNL     1       1.018   2.235  -0.210  0.00  0.00    +0.013 A 
ATOM     21  C   UNL     1       2.183   1.542  -0.171  0.00  0.00    +0.010 A 
ATOM     22  S   UNL     1       1.609  -0.148  -0.214  0.00  0.00    -0.100 S 
ATOM     23  C   UNL     1      -0.144   0.183  -0.282  0.00  0.00    +0.045 A 
ENDBRANCH  18  21
BRANCH  18  24
ATOM     24  C   UNL     1       4.218   2.022  -1.504  0.00  0.00    +0.014 C 
ATOM     25  C   UNL     1       4.393   0.558  -1.961  0.00  0.00    +0.006 C 
ATOM     26  C   UNL     1       5.732   0.561  -2.739  0.00  0.00    +0.000 C 
ATOM     27  C   UNL     1       6.606   1.537  -1.912  0.00  0.00    +0.000 C 
ATOM     28  C   UNL     1       5.625   2.644  -1.473  0.00  0.00    +0.006 C 
ENDBRANCH  18  24
ENDBRANCH   1  18
TORSDOF 6
