REMARK  Name = ZINC38660480
REMARK  15 active torsions:
REMARK  status: ('A' for Active; 'I' for Inactive)
REMARK    1  A    between atoms: C_1  and  C_2
REMARK    2  A    between atoms: C_5  and  O_8
REMARK    3  A    between atoms: O_8  and  C_9
REMARK    4  A    between atoms: C_9  and  C_10
REMARK    5  A    between atoms: C_10  and  O_12
REMARK    6  A    between atoms: O_12  and  C_13
REMARK    7  A    between atoms: C_20  and  N_38
REMARK    8  A    between atoms: C_21  and  C_36
REMARK    9  A    between atoms: C_22  and  C_24
REMARK   10  A    between atoms: C_26  and  O_34
REMARK   11  A    between atoms: C_27  and  O_32
REMARK   12  A    between atoms: C_28  and  O_30
REMARK   13  A    between atoms: O_30  and  C_31
REMARK   14  A    between atoms: O_32  and  C_33
REMARK   15  A    between atoms: O_34  and  C_35
REMARK                            x       y       z     vdW  Elec       q    Type
REMARK                         _______ _______ _______ _____ _____    ______ ____
ROOT
ATOM      1  C   UNL     1       0.089  -8.454   1.970  0.00  0.00    +0.135 A 
ATOM      2  C   UNL     1       0.133  -9.027   0.707  0.00  0.00    +0.047 A 
ATOM      3  C   UNL     1       0.116 -10.402   0.572  0.00  0.00    +0.012 A 
ATOM      4  C   UNL     1       0.054 -11.211   1.693  0.00  0.00    +0.008 A 
ATOM      5  C   UNL     1       0.010 -10.643   2.956  0.00  0.00    +0.138 A 
ATOM      6  C   UNL     1       0.034  -9.261   3.094  0.00  0.00    +0.093 A 
ATOM      7  O   UNL     1      -0.051 -11.420   4.066  0.00  0.00    -0.441 OA
ATOM      8  C   UNL     1       0.312 -12.712   4.001  0.00  0.00    +0.199 C 
ATOM      9  C   UNL     1       0.373 -13.380   2.825  0.00  0.00    +0.098 C 
ATOM     10  C   UNL     1       0.035 -12.707   1.525  0.00  0.00    +0.098 C 
ENDROOT
BRANCH  10  11
ATOM     11  C   UNL     1      -1.338 -13.142   1.080  0.00  0.00    -0.028 A 
ATOM     12  C   UNL     1      -2.437 -12.874   1.874  0.00  0.00    +0.054 A 
ATOM     13  C   UNL     1      -3.702 -13.273   1.468  0.00  0.00    +0.165 A 
ATOM     14  C   UNL     1      -3.863 -13.943   0.262  0.00  0.00    +0.204 A 
ATOM     15  C   UNL     1      -2.756 -14.211  -0.534  0.00  0.00    +0.165 A 
ATOM     16  C   UNL     1      -1.495 -13.804  -0.123  0.00  0.00    +0.054 A 
BRANCH  15  17
ATOM     17  O   UNL     1      -2.908 -14.867  -1.715  0.00  0.00    -0.491 OA
ATOM     18  C   UNL     1      -1.726 -15.108  -2.481  0.00  0.00    +0.277 C 
ENDBRANCH  15  17
BRANCH  14  19
ATOM     19  O   UNL     1      -5.103 -14.337  -0.140  0.00  0.00    -0.488 OA
ATOM     20  C   UNL     1      -5.854 -13.411  -0.928  0.00  0.00    +0.277 C 
ENDBRANCH  14  19
BRANCH  13  21
ATOM     21  O   UNL     1      -4.782 -13.008   2.251  0.00  0.00    -0.491 OA
ATOM     22  C   UNL     1      -4.542 -12.316   3.477  0.00  0.00    +0.277 C 
ENDBRANCH  13  21
ENDBRANCH  10  11
BRANCH   8  23
ATOM     23  N   UNL     1       0.631 -13.373   5.161  0.00  0.00    -0.328 N 
ATOM     24  H   UNL     1       0.593 -12.908   6.011  0.00  0.00    +0.145 HD
ATOM     25  H   UNL     1       0.895 -14.306   5.130  0.00  0.00    +0.145 HD
ENDBRANCH   8  23
BRANCH   9  26
ATOM     26  C   UNL     1       0.769 -14.757   2.821  0.00  0.00    +0.101 C 
ATOM     27  N   UNL     1       1.082 -15.849   2.817  0.00  0.00    -0.191 NA
ENDBRANCH   9  26
BRANCH   1  28
ATOM     28  O   UNL     1       0.106  -7.101   2.104  0.00  0.00    -0.423 OA
BRANCH  28  29
ATOM     29  C   UNL     1      -1.030  -6.429   1.856  0.00  0.00    +0.350 C 
ATOM     30  O   UNL     1      -2.000  -7.015   1.439  0.00  0.00    -0.247 OA
BRANCH  29  31
ATOM     31  C   UNL     1      -1.093  -4.943   2.097  0.00  0.00    +0.349 C 
BRANCH  31  32
ATOM     32  O   UNL     1      -2.396  -4.461   1.761  0.00  0.00    -0.481 OA
BRANCH  32  37
ATOM     33  C   UNL     1      -3.336   1.052   2.433  0.00  0.00    +0.044 C 
ATOM     34  C   UNL     1      -3.084  -0.423   2.253  0.00  0.00    -0.050 A 
ATOM     35  C   UNL     1      -4.093  -1.243   1.782  0.00  0.00    +0.007 A 
ATOM     36  C   UNL     1      -3.865  -2.595   1.616  0.00  0.00    +0.046 A 
ATOM     37  C   UNL     1      -2.623  -3.131   1.923  0.00  0.00    +0.121 A 
ATOM     38  C   UNL     1      -1.612  -2.306   2.395  0.00  0.00    +0.046 A 
ATOM     39  C   UNL     1      -1.843  -0.953   2.554  0.00  0.00    +0.007 A 
ENDBRANCH  32  37
ENDBRANCH  31  32
ENDBRANCH  29  31
ENDBRANCH  28  29
ENDBRANCH   1  28
TORSDOF 11
