REMARK  Name = ZINC14753195
REMARK  11 active torsions:
REMARK  status: ('A' for Active; 'I' for Inactive)
REMARK    1  A    between atoms: C_1  and  C_2
REMARK    2  A    between atoms: C_2  and  N_63
REMARK    3  A    between atoms: C_3  and  C_4
REMARK    4  A    between atoms: C_3  and  N_63
REMARK    5  A    between atoms: C_4  and  C_6
REMARK    6  A    between atoms: C_7  and  N_63
REMARK    7  A    between atoms: C_13  and  C_20
REMARK    8  A    between atoms: N_15  and  C_16
REMARK    9  A    between atoms: C_16  and  C_17
REMARK   10  A    between atoms: C_17  and  C_18
REMARK   11  A    between atoms: C_17  and  C_19
REMARK                            x       y       z     vdW  Elec       q    Type
REMARK                         _______ _______ _______ _____ _____    ______ ____
ROOT
ATOM      1  C   UNL     1       1.411   1.824   0.269  0.00  0.00    -0.063 C 
ATOM      2  C   UNL     1       2.247   1.265   1.423  0.00  0.00    -0.009 C 
ATOM      3  C   UNL     1       2.542  -0.220   1.176  0.00  0.00    +0.054 C 
ATOM      4  C   UNL     1       1.245  -0.912   0.843  0.00  0.00    +0.043 A 
ATOM      5  C   UNL     1       0.116  -0.262   0.468  0.00  0.00    +0.004 A 
ATOM      6  C   UNL     1      -0.852  -1.258   0.258  0.00  0.00    +0.151 A 
ATOM      7  N   UNL     1      -0.265  -2.415   0.511  0.00  0.00    -0.166 NA
ATOM      8  N   UNL     1       0.963  -2.225   0.853  0.00  0.00    -0.267 N 
ATOM      9  C   UNL     1      -0.003   1.231   0.325  0.00  0.00    +0.024 C 
ENDROOT
BRANCH   6  10
ATOM     10  C   UNL     1      -2.253  -1.053  -0.162  0.00  0.00    +0.267 C 
ATOM     11  O   UNL     1      -2.669   0.072  -0.362  0.00  0.00    -0.268 OA
ATOM     12  N   UNL     1      -3.070  -2.112  -0.323  0.00  0.00    -0.296 N 
ATOM     13  C   UNL     1      -2.698  -3.520  -0.122  0.00  0.00    +0.108 C 
ATOM     14  C   UNL     1      -3.942  -4.374  -0.445  0.00  0.00    +0.020 C 
ATOM     15  C   UNL     1      -4.774  -3.439  -1.362  0.00  0.00    +0.020 C 
ATOM     16  C   UNL     1      -4.484  -2.052  -0.737  0.00  0.00    +0.108 C 
ENDBRANCH   6  10
BRANCH   1  17
ATOM     17  N   UNL     1       1.323   3.292   0.408  0.00  0.00    +0.384 N 
ATOM     18  H   UNL     1       0.919   3.517   1.325  0.00  0.00    -0.081 HD
BRANCH  17  20
ATOM     19  C   UNL     1       0.193   5.326  -0.347  0.00  0.00    -0.017 C 
ATOM     20  C   UNL     1       0.452   3.849  -0.649  0.00  0.00    -0.081 C 
ENDBRANCH  17  20
BRANCH  17  21
ATOM     21  C   UNL     1       2.671   3.891   0.319  0.00  0.00    -0.048 C 
BRANCH  21  22
ATOM     22  C   UNL     1       3.308   3.561  -1.007  0.00  0.00    -0.096 C 
ATOM     23  C   UNL     1       3.213   4.403  -2.006  0.00  0.00    +0.005 C 
ATOM     24  C   UNL     1       4.055   2.264  -1.183  0.00  0.00    +0.036 C 
ENDBRANCH  21  22
ENDBRANCH  17  21
ENDBRANCH   1  17
BRANCH   8  25
ATOM     25  C   UNL     1       1.912  -3.285   1.201  0.00  0.00    +0.146 C 
BRANCH  25  26
ATOM     26  C   UNL     1       2.643  -3.750  -0.061  0.00  0.00    +0.004 C 
ATOM     27  C   UNL     1       3.720  -4.767   0.319  0.00  0.00    +0.009 C 
ATOM     28  C   UNL     1       1.642  -4.400  -1.019  0.00  0.00    +0.009 C 
ENDBRANCH  25  26
ENDBRANCH   8  25
TORSDOF 7
