REMARK  Name = ZINC13397055
REMARK  8 active torsions:
REMARK  status: ('A' for Active; 'I' for Inactive)
REMARK    1  A    between atoms: C_1  and  S_2
REMARK    2  A    between atoms: S_2  and  C_3
REMARK    3  A    between atoms: C_6  and  S_8
REMARK    4  A    between atoms: S_8  and  C_9
REMARK    5  A    between atoms: C_9  and  C_10
REMARK    6  A    between atoms: N_12  and  C_13
REMARK    7  A    between atoms: C_15  and  C_21
REMARK    8  A    between atoms: C_18  and  C_19
REMARK                            x       y       z     vdW  Elec       q    Type
REMARK                         _______ _______ _______ _____ _____    ______ ____
ROOT
ATOM      1  C   UNL     1      -1.592  -3.850  -0.021  0.00  0.00    +0.227 C 
ATOM      2  O   UNL     1      -2.766  -3.544   0.006  0.00  0.00    -0.275 OA
ATOM      3  N   UNL     1      -1.235  -5.150  -0.029  0.00  0.00    -0.284 N 
ATOM      4  H   UNL     1      -0.301  -5.395  -0.115  0.00  0.00    +0.155 HD
ENDROOT
BRANCH   3   5
ATOM      5  C   UNL     1      -2.208  -6.140   0.087  0.00  0.00    +0.048 A 
ATOM      6  C   UNL     1      -3.456  -5.960  -0.491  0.00  0.00    +0.039 A 
ATOM      7  C   UNL     1      -4.425  -6.955  -0.377  0.00  0.00    +0.065 A 
ATOM      8  C   UNL     1      -4.144  -8.129   0.328  0.00  0.00    +0.016 A 
ATOM      9  C   UNL     1      -2.909  -8.310   0.907  0.00  0.00    +0.018 A 
ATOM     10  C   UNL     1      -1.930  -7.319   0.794  0.00  0.00    +0.084 A 
BRANCH  10  11
ATOM     11  C   UNL     1      -0.606  -7.514   1.416  0.00  0.00    +0.388 C 
ATOM     12  O   UNL     1       0.210  -6.614   1.401  0.00  0.00    -0.241 OA
ATOM     13  O   UNL     1      -0.302  -8.690   2.000  0.00  0.00    -0.241 OA
ENDBRANCH  10  11
BRANCH   7  14
ATOM     14  C   UNL     1      -5.754  -6.767  -0.998  0.00  0.00    +0.387 C 
ATOM     15  O   UNL     1      -5.999  -5.747  -1.610  0.00  0.00    -0.241 OA
ATOM     16  O   UNL     1      -6.693  -7.726  -0.884  0.00  0.00    -0.241 OA
ENDBRANCH   7  14
ENDBRANCH   3   5
BRANCH   1  17
ATOM     17  C   UNL     1      -0.534  -2.778  -0.046  0.00  0.00    +0.172 C 
BRANCH  17  18
ATOM     18  S   UNL     1      -1.326  -1.146  -0.028  0.00  0.00    -0.088 S 
BRANCH  18  22
ATOM     19  C   UNL     1       1.774   2.025  -0.101  0.00  0.00    +0.159 A 
ATOM     20  N   UNL     1       2.216   0.782  -0.111  0.00  0.00    -0.134 NA
ATOM     21  N   UNL     1       1.321  -0.262  -0.090  0.00  0.00    -0.134 NA
ATOM     22  C   UNL     1       0.025  -0.016  -0.059  0.00  0.00    +0.160 A 
ATOM     23  S   UNL     1       0.007   1.771  -0.059  0.00  0.00    -0.033 S 
BRANCH  19  25
ATOM     24  C   UNL     1       4.418   2.999  -0.165  0.00  0.00    +0.092 C 
ATOM     25  S   UNL     1       2.685   3.534  -0.124  0.00  0.00    -0.100 S 
ENDBRANCH  19  25
ENDBRANCH  18  22
ENDBRANCH  17  18
ENDBRANCH   1  17
TORSDOF 7
