REMARK  Name = ZINC63258754
REMARK  7 active torsions:
REMARK  status: ('A' for Active; 'I' for Inactive)
REMARK    1  A    between atoms: C_1  and  C_2
REMARK    2  A    between atoms: C_2  and  O_3
REMARK    3  A    between atoms: O_3  and  C_4
REMARK    4  A    between atoms: C_4  and  C_6
REMARK    5  A    between atoms: C_8  and  C_19
REMARK    6  A    between atoms: C_19  and  S_20
REMARK    7  A    between atoms: S_20  and  C_21
REMARK                            x       y       z     vdW  Elec       q    Type
REMARK                         _______ _______ _______ _____ _____    ______ ____
ROOT
ATOM      1  C   UNL     1       1.468  -2.353  -2.550  0.00  0.00    +0.260 C 
ATOM      2  C   UNL     1       0.506  -2.380  -3.756  0.00  0.00    +0.149 C 
ATOM      3  N   UNL     1       0.435  -3.819  -4.072  0.00  0.00    -0.177 N 
ATOM      4  N   UNL     1       1.251  -4.488  -3.158  0.00  0.00    -0.076 NA
ATOM      5  N   UNL     1       1.817  -3.765  -2.340  0.00  0.00    -0.154 NA
ATOM      6  C   UNL     1      -0.309  -4.403  -5.095  0.00  0.00    +0.228 A 
ATOM      7  C   UNL     1      -0.376  -5.837  -5.396  0.00  0.00    +0.204 A 
ATOM      8  N   UNL     1      -1.170  -6.004  -6.417  0.00  0.00    -0.032 NA
ATOM      9  O   UNL     1      -1.641  -4.729  -6.815  0.00  0.00    -0.239 OA
ATOM     10  N   UNL     1      -1.069  -3.770  -5.944  0.00  0.00    -0.030 NA
ATOM     11  N   UNL     1       0.291  -6.846  -4.710  0.00  0.00    -0.338 N 
ATOM     12  H   UNL     1       0.864  -6.625  -3.959  0.00  0.00    +0.144 HD
ATOM     13  H   UNL     1       0.185  -7.770  -4.984  0.00  0.00    +0.144 HD
ENDROOT
BRANCH   1  14
ATOM     14  C   UNL     1       0.775  -1.794  -1.334  0.00  0.00    +0.336 C 
ATOM     15  O   UNL     1       0.314  -2.540  -0.504  0.00  0.00    -0.248 OA
BRANCH  14  16
ATOM     16  O   UNL     1       0.671  -0.465  -1.174  0.00  0.00    -0.463 OA
BRANCH  16  18
ATOM     17  C   UNL     1      -0.019   1.526   0.010  0.00  0.00    +0.048 C 
ATOM     18  C   UNL     1       0.002  -0.004   0.002  0.00  0.00    +0.229 C 
ENDBRANCH  16  18
ENDBRANCH  14  16
ENDBRANCH   1  14
BRANCH   2  19
ATOM     19  C   UNL     1       1.085  -1.589  -4.931  0.00  0.00    +0.100 C 
BRANCH  19  20
ATOM     20  S   UNL     1      -0.134  -1.519  -6.272  0.00  0.00    -0.113 S 
BRANCH  20  21
ATOM     21  C   UNL     1       0.696  -0.560  -7.570  0.00  0.00    +0.235 C 
ATOM     22  N   UNL     1       1.966  -1.200  -7.935  0.00  0.00    -0.355 N 
ATOM     23  C   UNL     1       2.919  -0.350  -7.682  0.00  0.00    +0.061 A 
ATOM     24  C   UNL     1       4.379  -0.412  -7.834  0.00  0.00    +0.027 A 
ATOM     25  C   UNL     1       5.130   0.650  -7.479  0.00  0.00    +0.002 A 
ATOM     26  C   UNL     1       4.574   1.833  -6.962  0.00  0.00    +0.002 A 
ATOM     27  C   UNL     1       3.247   1.994  -6.782  0.00  0.00    +0.027 A 
ATOM     28  C   UNL     1       2.330   0.902  -7.133  0.00  0.00    +0.061 A 
ATOM     29  N   UNL     1       1.036   0.778  -7.069  0.00  0.00    -0.355 N 
ATOM     30  H   UNL     1       0.410   1.446  -6.749  0.00  0.00    +0.162 HD
ATOM     31  H   UNL     1       2.075  -2.093  -8.299  0.00  0.00    +0.162 HD
ENDBRANCH  20  21
ENDBRANCH  19  20
ENDBRANCH   2  19
TORSDOF 6
