REMARK  Name = ZINC37771072
REMARK  8 active torsions:
REMARK  status: ('A' for Active; 'I' for Inactive)
REMARK    1  A    between atoms: C_1  and  C_2
REMARK    2  A    between atoms: C_3  and  N_11
REMARK    3  A    between atoms: C_4  and  C_10
REMARK    4  A    between atoms: N_5  and  C_7
REMARK    5  A    between atoms: C_7  and  C_8
REMARK    6  A    between atoms: C_7  and  C_9
REMARK    7  A    between atoms: C_12  and  C_14
REMARK    8  A    between atoms: C_17  and  O_21
REMARK                            x       y       z     vdW  Elec       q    Type
REMARK                         _______ _______ _______ _____ _____    ______ ____
ROOT
ATOM      1  N   UNL     1      -0.220  -0.378  -2.465  0.00  0.00    -0.284 N 
ATOM      2  C   UNL     1       0.132   0.881  -2.793  0.00  0.00    +0.203 C 
ATOM      3  O   UNL     1       0.645   1.603  -1.964  0.00  0.00    -0.277 OA
ATOM      4  H   UNL     1      -0.571  -0.976  -3.143  0.00  0.00    +0.155 HD
ENDROOT
BRANCH   1   7
ATOM      5  C   UNL     1      -2.006   0.554  -0.088  0.00  0.00    +0.069 C 
ATOM      6  C   UNL     1      -0.863  -0.428  -0.044  0.00  0.00    +0.081 A 
ATOM      7  C   UNL     1      -0.079  -0.824  -1.137  0.00  0.00    +0.077 A 
ATOM      8  C   UNL     1       0.841  -1.716  -0.688  0.00  0.00    +0.058 A 
ATOM      9  N   UNL     1       0.640  -1.874   0.646  0.00  0.00    -0.264 N 
ATOM     10  N   UNL     1      -0.429  -1.051   1.021  0.00  0.00    -0.174 NA
ATOM     11  C   UNL     1       1.893  -2.405  -1.518  0.00  0.00    +0.067 C 
BRANCH   9  12
ATOM     12  C   UNL     1       1.409  -2.747   1.536  0.00  0.00    +0.101 C 
ATOM     13  C   UNL     1       2.065  -1.906   2.634  0.00  0.00    +0.032 C 
ATOM     14  C   UNL     1       0.474  -3.777   2.173  0.00  0.00    +0.032 C 
ENDBRANCH   9  12
ENDBRANCH   1   7
BRANCH   2  15
ATOM     15  C   UNL     1      -0.110   1.391  -4.190  0.00  0.00    +0.019 C 
ATOM     16  C   UNL     1       1.003   0.888  -5.134  0.00  0.00    +0.023 C 
ATOM     17  C   UNL     1       1.249   2.106  -6.063  0.00  0.00    +0.097 C 
ATOM     18  C   UNL     1       1.044   3.291  -5.088  0.00  0.00    -0.050 C 
ATOM     19  N   UNL     1      -0.064   2.865  -4.201  0.00  0.00    +0.388 N 
ATOM     20  H   UNL     1      -0.939   3.229  -4.548  0.00  0.00    -0.085 HD
ATOM     21  H   UNL     1       0.097   3.207  -3.266  0.00  0.00    -0.085 HD
BRANCH  17  22
ATOM     22  O   UNL     1       2.581   2.092  -6.582  0.00  0.00    -0.394 OA
ATOM     23  H   UNL     1       2.782   2.834  -7.168  0.00  0.00    +0.210 HD
ENDBRANCH  17  22
ENDBRANCH   2  15
TORSDOF 4
