REMARK  Name = ZINC63102672
REMARK  9 active torsions:
REMARK  status: ('A' for Active; 'I' for Inactive)
REMARK    1  A    between atoms: C_1  and  C_2
REMARK    2  A    between atoms: C_3  and  C_27
REMARK    3  A    between atoms: C_4  and  C_26
REMARK    4  A    between atoms: C_5  and  S_10
REMARK    5  A    between atoms: C_6  and  C_9
REMARK    6  A    between atoms: C_7  and  C_8
REMARK    7  A    between atoms: S_10  and  N_13
REMARK    8  A    between atoms: N_13  and  N_14
REMARK    9  A    between atoms: C_15  and  C_17
REMARK                            x       y       z     vdW  Elec       q    Type
REMARK                         _______ _______ _______ _____ _____    ______ ____
ROOT
ATOM      1  N   UNL     1      -0.256  -5.333  -0.235  0.00  0.00    -0.108 NA
ATOM      2  H   UNL     1      -0.430  -5.998   0.449  0.00  0.00    +0.172 HD
ENDROOT
BRANCH   1   3
ATOM      3  N   UNL     1      -1.127  -5.205  -1.325  0.00  0.00    -0.228 N 
ATOM      4  C   UNL     1      -1.407  -6.277  -2.093  0.00  0.00    +0.257 C 
ATOM      5  O   UNL     1      -0.903  -7.355  -1.840  0.00  0.00    -0.269 OA
ATOM      6  H   UNL     1      -1.529  -4.346  -1.527  0.00  0.00    +0.171 HD
BRANCH   4   7
ATOM      7  C   UNL     1      -2.319  -6.144  -3.234  0.00  0.00    +0.044 C 
ATOM      8  C   UNL     1      -2.710  -7.135  -4.107  0.00  0.00    +0.008 A 
ATOM      9  C   UNL     1      -2.395  -8.514  -4.203  0.00  0.00    +0.010 A 
ATOM     10  C   UNL     1      -2.934  -9.268  -5.185  0.00  0.00    +0.001 A 
ATOM     11  C   UNL     1      -3.816  -8.741  -6.143  0.00  0.00    +0.002 A 
ATOM     12  C   UNL     1      -4.181  -7.441  -6.140  0.00  0.00    +0.026 A 
ATOM     13  C   UNL     1      -3.639  -6.548  -5.104  0.00  0.00    +0.043 A 
ATOM     14  N   UNL     1      -3.816  -5.278  -4.870  0.00  0.00    -0.380 N 
ATOM     15  C   UNL     1      -3.031  -4.890  -3.693  0.00  0.00    +0.154 C 
ATOM     16  H   UNL     1      -4.381  -4.684  -5.388  0.00  0.00    +0.160 HD
ENDBRANCH   4   7
ENDBRANCH   1   3
BRANCH   1  17
ATOM     17  S   UNL     1       1.070  -4.349  -0.116  0.00  0.00    +0.074 S 
ATOM     18  O   UNL     1       1.786  -4.481  -1.336  0.00  0.00    -0.152 OA
ATOM     19  O   UNL     1       1.663  -4.617   1.148  0.00  0.00    -0.152 OA
BRANCH  17  24
ATOM     20  C   UNL     1      -0.944   1.335   0.095  0.00  0.00    +0.044 C 
ATOM     21  C   UNL     1      -0.441  -0.085   0.042  0.00  0.00    -0.044 A 
ATOM     22  C   UNL     1      -0.113  -0.657  -1.172  0.00  0.00    -0.043 A 
ATOM     23  C   UNL     1       0.349  -1.959  -1.220  0.00  0.00    -0.021 A 
ATOM     24  C   UNL     1       0.483  -2.689  -0.054  0.00  0.00    +0.113 A 
ATOM     25  C   UNL     1       0.156  -2.116   1.161  0.00  0.00    -0.021 A 
ATOM     26  C   UNL     1      -0.302  -0.812   1.210  0.00  0.00    -0.043 A 
ATOM     27  C   UNL     1      -0.653  -0.186   2.534  0.00  0.00    +0.044 C 
ATOM     28  C   UNL     1       0.301  -2.911   2.433  0.00  0.00    +0.046 C 
ATOM     29  C   UNL     1       0.706  -2.584  -2.545  0.00  0.00    +0.046 C 
ATOM     30  C   UNL     1      -0.259   0.138  -2.444  0.00  0.00    +0.044 C 
ENDBRANCH  17  24
ENDBRANCH   1  17
TORSDOF 4
