REMARK  Name = ZINC01069655
REMARK  6 active torsions:
REMARK  status: ('A' for Active; 'I' for Inactive)
REMARK    1  A    between atoms: C_1  and  C_2
REMARK    2  A    between atoms: C_8  and  C_27
REMARK    3  A    between atoms: C_8  and  C_28
REMARK    4  A    between atoms: N_10  and  C_11
REMARK    5  A    between atoms: C_11  and  C_12
REMARK    6  A    between atoms: C_19  and  N_24
REMARK                            x       y       z     vdW  Elec       q    Type
REMARK                         _______ _______ _______ _____ _____    ______ ____
ROOT
ATOM      1  C   UNL     1       0.243  -6.962   4.663  0.00  0.00    +0.044 C 
ATOM      2  C   UNL     1       0.817  -6.219   3.483  0.00  0.00    -0.050 A 
ATOM      3  C   UNL     1       1.109  -6.913   2.326  0.00  0.00    +0.005 A 
ATOM      4  C   UNL     1       1.640  -6.286   1.211  0.00  0.00    +0.024 A 
ATOM      5  C   UNL     1       1.871  -4.911   1.300  0.00  0.00    +0.037 A 
ATOM      6  C   UNL     1       1.568  -4.217   2.477  0.00  0.00    -0.015 A 
ATOM      7  C   UNL     1       1.040  -4.851   3.584  0.00  0.00    +0.009 A 
ATOM      8  C   UNL     1       1.910  -2.767   2.266  0.00  0.00    +0.053 C 
ATOM      9  C   UNL     1       2.067  -2.674   0.733  0.00  0.00    +0.208 C 
ATOM     10  N   UNL     1       2.394  -4.058   0.336  0.00  0.00    -0.280 N 
ATOM     11  C   UNL     1       3.197  -1.749   0.387  0.00  0.00    +0.042 C 
ATOM     12  C   UNL     1       2.951  -0.459   0.159  0.00  0.00    +0.013 C 
ATOM     13  C   UNL     1       1.550   0.008   0.250  0.00  0.00    +0.019 A 
ATOM     14  C   UNL     1       1.245   1.361   0.347  0.00  0.00    +0.044 A 
ATOM     15  C   UNL     1      -0.075   1.758   0.431  0.00  0.00    +0.127 A 
ATOM     16  C   UNL     1      -1.090   0.817   0.420  0.00  0.00    +0.036 A 
ATOM     17  C   UNL     1      -0.796  -0.531   0.323  0.00  0.00    +0.048 A 
ATOM     18  C   UNL     1       0.521  -0.944   0.238  0.00  0.00    +0.131 A 
ATOM     19  O   UNL     1       0.843  -2.260   0.140  0.00  0.00    -0.463 OA
ATOM     20  C   UNL     1       3.222  -2.411   2.968  0.00  0.00    +0.022 C 
ATOM     21  C   UNL     1       0.772  -1.865   2.750  0.00  0.00    +0.022 C 
ENDROOT
BRANCH  15  22
ATOM     22  N   UNL     1      -0.407   3.197   0.534  0.00  0.00    +0.056 N 
ATOM     23  O   UNL     1      -1.570   3.550   0.609  0.00  0.00    -0.126 OA
ATOM     24  O   UNL     1       0.483   4.028   0.545  0.00  0.00    -0.126 OA
ENDBRANCH  15  22
BRANCH  10  25
ATOM     25  C   UNL     1       1.849  -4.368  -0.993  0.00  0.00    +0.204 C 
BRANCH  25  26
ATOM     26  C   UNL     1       2.710  -3.726  -2.050  0.00  0.00    +0.228 C 
ATOM     27  O   UNL     1       3.745  -3.176  -1.739  0.00  0.00    -0.274 OA
ATOM     28  N   UNL     1       2.330  -3.764  -3.343  0.00  0.00    -0.328 N 
ATOM     29  H   UNL     1       1.502  -4.204  -3.592  0.00  0.00    +0.145 HD
ATOM     30  H   UNL     1       2.884  -3.351  -4.024  0.00  0.00    +0.145 HD
ENDBRANCH  25  26
ENDBRANCH  10  25
TORSDOF 3
