REMARK  Name = ZINC09060553
REMARK  8 active torsions:
REMARK  status: ('A' for Active; 'I' for Inactive)
REMARK    1  A    between atoms: C_1  and  C_2
REMARK    2  A    between atoms: C_5  and  C_8
REMARK    3  A    between atoms: C_11  and  C_27
REMARK    4  A    between atoms: C_14  and  C_16
REMARK    5  A    between atoms: C_21  and  N_22
REMARK    6  A    between atoms: N_22  and  S_23
REMARK    7  A    between atoms: S_23  and  C_26
REMARK    8  A    between atoms: C_32  and  O_33
REMARK                            x       y       z     vdW  Elec       q    Type
REMARK                         _______ _______ _______ _____ _____    ______ ____
ROOT
ATOM      1  C   UNL     1       2.262   5.214   2.477  0.00  0.00    +0.266 C 
ATOM      2  O   UNL     1       1.793   4.588   3.408  0.00  0.00    -0.268 OA
ATOM      3  N   UNL     1       1.488   5.530   1.420  0.00  0.00    -0.181 N 
ATOM      4  C   UNL     1       0.107   5.072   1.203  0.00  0.00    +0.141 C 
ATOM      5  C   UNL     1      -0.284   5.725  -0.138  0.00  0.00    +0.087 C 
ATOM      6  C   UNL     1       0.950   6.500  -0.540  0.00  0.00    +0.071 C 
ATOM      7  N   UNL     1       1.866   6.344   0.354  0.00  0.00    -0.181 NA
ENDROOT
BRANCH   1  12
ATOM      8  C   UNL     1       7.785   6.826   2.584  0.00  0.00    +0.044 C 
ATOM      9  C   UNL     1       6.339   6.404   2.556  0.00  0.00    -0.050 A 
ATOM     10  C   UNL     1       5.826   5.634   3.585  0.00  0.00    +0.004 A 
ATOM     11  C   UNL     1       4.503   5.245   3.566  0.00  0.00    +0.013 A 
ATOM     12  C   UNL     1       3.681   5.629   2.505  0.00  0.00    +0.039 A 
ATOM     13  C   UNL     1       4.206   6.401   1.467  0.00  0.00    +0.013 A 
ATOM     14  C   UNL     1       5.529   6.788   1.502  0.00  0.00    +0.004 A 
ENDBRANCH   1  12
BRANCH   6  15
ATOM     15  C   UNL     1       1.086   7.307  -1.765  0.00  0.00    +0.020 A 
ATOM     16  C   UNL     1       0.077   7.292  -2.731  0.00  0.00    +0.011 A 
ATOM     17  C   UNL     1       0.208   8.054  -3.873  0.00  0.00    +0.001 A 
ATOM     18  C   UNL     1       1.340   8.826  -4.073  0.00  0.00    +0.002 A 
ATOM     19  C   UNL     1       2.348   8.846  -3.128  0.00  0.00    +0.025 A 
ATOM     20  C   UNL     1       2.232   8.090  -1.971  0.00  0.00    +0.057 A 
BRANCH  20  21
ATOM     21  N   UNL     1       3.248   8.109  -1.017  0.00  0.00    -0.220 N 
ATOM     22  H   UNL     1       3.763   7.306  -0.842  0.00  0.00    +0.173 HD
BRANCH  21  23
ATOM     23  S   UNL     1       3.575   9.502  -0.183  0.00  0.00    +0.040 S 
ATOM     24  O   UNL     1       4.675   9.173   0.654  0.00  0.00    -0.155 OA
ATOM     25  O   UNL     1       3.700  10.503  -1.184  0.00  0.00    -0.155 OA
ATOM     26  C   UNL     1       2.094   9.803   0.820  0.00  0.00    +0.218 C 
ENDBRANCH  21  23
ENDBRANCH  20  21
ENDBRANCH   6  15
BRANCH   4  27
ATOM     27  C   UNL     1       0.057   3.570   1.095  0.00  0.00    +0.017 A 
ATOM     28  C   UNL     1       1.222   2.851   0.908  0.00  0.00    +0.009 A 
ATOM     29  C   UNL     1       1.177   1.473   0.810  0.00  0.00    +0.001 A 
ATOM     30  C   UNL     1      -0.033   0.810   0.898  0.00  0.00    +0.004 A 
ATOM     31  C   UNL     1      -1.201   1.525   1.079  0.00  0.00    +0.046 A 
ATOM     32  C   UNL     1      -1.158   2.908   1.183  0.00  0.00    +0.122 A 
BRANCH  32  33
ATOM     33  O   UNL     1      -2.306   3.612   1.367  0.00  0.00    -0.506 OA
ATOM     34  H   UNL     1      -2.737   3.882   0.545  0.00  0.00    +0.292 HD
ENDBRANCH  32  33
ENDBRANCH   4  27
TORSDOF 6
