REMARK  Name = ZINC36674292
REMARK  9 active torsions:
REMARK  status: ('A' for Active; 'I' for Inactive)
REMARK    1  A    between atoms: C_1  and  N_2
REMARK    2  A    between atoms: N_2  and  C_3
REMARK    3  A    between atoms: N_2  and  C_4
REMARK    4  A    between atoms: C_4  and  C_6
REMARK    5  A    between atoms: C_4  and  C_26
REMARK    6  A    between atoms: C_6  and  N_7
REMARK    7  A    between atoms: C_8  and  C_10
REMARK    8  A    between atoms: C_14  and  S_16
REMARK    9  A    between atoms: S_16  and  N_19
REMARK                            x       y       z     vdW  Elec       q    Type
REMARK                         _______ _______ _______ _____ _____    ______ ____
ROOT
ATOM      1  N   UNL     1      -1.702   1.302  -1.405  0.00  0.00    -0.313 N 
ATOM      2  C   UNL     1      -2.076   1.923  -2.541  0.00  0.00    +0.244 C 
ATOM      3  O   UNL     1      -2.646   1.300  -3.415  0.00  0.00    -0.270 OA
ATOM      4  H   UNL     1      -1.246   1.799  -0.708  0.00  0.00    +0.149 HD
ENDROOT
BRANCH   2   5
ATOM      5  C   UNL     1      -1.792   3.363  -2.724  0.00  0.00    +0.039 A 
ATOM      6  C   UNL     1      -1.132   4.080  -1.724  0.00  0.00    +0.013 A 
ATOM      7  C   UNL     1      -0.870   5.422  -1.902  0.00  0.00    +0.003 A 
ATOM      8  C   UNL     1      -1.261   6.059  -3.067  0.00  0.00    +0.028 A 
ATOM      9  C   UNL     1      -1.915   5.354  -4.061  0.00  0.00    +0.106 A 
ATOM     10  C   UNL     1      -2.178   4.009  -3.899  0.00  0.00    +0.041 A 
BRANCH   9  11
ATOM     11  S   UNL     1      -2.409   6.174  -5.540  0.00  0.00    +0.061 S 
ATOM     12  O   UNL     1      -3.486   5.422  -6.082  0.00  0.00    -0.153 OA
ATOM     13  O   UNL     1      -2.528   7.553  -5.220  0.00  0.00    -0.153 OA
BRANCH  11  14
ATOM     14  N   UNL     1      -1.155   6.044  -6.614  0.00  0.00    -0.177 NA
ATOM     15  C   UNL     1      -0.138   7.073  -6.620  0.00  0.00    +0.109 C 
ATOM     16  C   UNL     1      -0.549   8.203  -7.596  0.00  0.00    +0.017 C 
ATOM     17  C   UNL     1      -0.440   7.741  -8.988  0.00  0.00    +0.001 C 
ATOM     18  C   UNL     1      -1.368   6.582  -9.340  0.00  0.00    +0.001 C 
ATOM     19  C   UNL     1      -0.711   5.280  -8.955  0.00  0.00    +0.017 C 
ATOM     20  C   UNL     1      -1.117   4.880  -7.521  0.00  0.00    +0.109 C 
ENDBRANCH  11  14
ENDBRANCH   9  11
ENDBRANCH   2   5
BRANCH   1  21
ATOM     21  C   UNL     1      -1.983  -0.125  -1.224  0.00  0.00    +0.094 C 
BRANCH  21  22
ATOM     22  C   UNL     1      -1.353  -0.606   0.085  0.00  0.00    -0.020 C 
BRANCH  22  23
ATOM     23  C   UNL     1       0.148  -0.502  -0.012  0.00  0.00    -0.041 A 
ATOM     24  C   UNL     1       0.805   0.566   0.570  0.00  0.00    +0.003 A 
ATOM     25  C   UNL     1       2.181   0.661   0.481  0.00  0.00    +0.000 A 
ATOM     26  C   UNL     1       2.901  -0.311  -0.189  0.00  0.00    +0.001 A 
ATOM     27  C   UNL     1       2.244  -1.379  -0.770  0.00  0.00    +0.020 A 
ATOM     28  C   UNL     1       0.868  -1.478  -0.677  0.00  0.00    +0.043 A 
ATOM     29 CL   UNL     1       0.043  -2.823  -1.402  0.00  0.00    -0.083 Cl
ENDBRANCH  22  23
BRANCH  22  31
ATOM     30  C   UNL     1      -3.300   0.231   1.207  0.00  0.00    -0.096 C 
ATOM     31  N   UNL     1      -1.831   0.228   1.195  0.00  0.00    +0.382 N 
ATOM     32  C   UNL     1      -1.332  -0.314   2.465  0.00  0.00    -0.096 C 
ATOM     33  H   UNL     1      -1.494   1.172   1.076  0.00  0.00    -0.082 HD
ENDBRANCH  22  31
ENDBRANCH  21  22
ENDBRANCH   1  21
TORSDOF 7
