REMARK  Name = ZINC39404326
REMARK  15 active torsions:
REMARK  status: ('A' for Active; 'I' for Inactive)
REMARK    1  A    between atoms: C_1  and  C_2
REMARK    2  A    between atoms: C_2  and  O_3
REMARK    3  A    between atoms: O_3  and  C_4
REMARK    4  A    between atoms: C_7  and  C_10
REMARK    5  A    between atoms: N_11  and  N_12
REMARK    6  A    between atoms: C_15  and  S_19
REMARK    7  A    between atoms: S_19  and  C_20
REMARK    8  A    between atoms: C_20  and  C_21
REMARK    9  A    between atoms: N_23  and  C_24
REMARK   10  A    between atoms: C_26  and  C_39
REMARK   11  A    between atoms: C_28  and  C_38
REMARK   12  A    between atoms: C_30  and  C_33
REMARK   13  A    between atoms: C_33  and  O_35
REMARK   14  A    between atoms: O_35  and  C_36
REMARK   15  A    between atoms: C_36  and  C_37
REMARK                            x       y       z     vdW  Elec       q    Type
REMARK                         _______ _______ _______ _____ _____    ______ ____
ROOT
ATOM      1  N   UNL     1       2.083  -7.190  -2.755  0.00  0.00    -0.206 N 
ATOM      2  C   UNL     1       2.661  -7.707  -3.893  0.00  0.00    +0.231 C 
ATOM      3  N   UNL     1       2.707  -8.977  -4.186  0.00  0.00    -0.324 N 
ATOM      4  C   UNL     1       3.409  -9.048  -5.480  0.00  0.00    +0.283 C 
ATOM      5  N   UNL     1       3.707  -7.641  -5.793  0.00  0.00    -0.148 NA
ATOM      6  N   UNL     1       3.255  -6.958  -4.867  0.00  0.00    -0.116 NA
ATOM      7  H   UNL     1       1.678  -7.784  -2.104  0.00  0.00    +0.177 HD
ATOM      8  H   UNL     1       2.356  -9.716  -3.664  0.00  0.00    +0.165 HD
ENDROOT
BRANCH   1  10
ATOM      9  C   UNL     1       1.538  -5.319  -1.464  0.00  0.00    +0.138 C 
ATOM     10  N   UNL     1       2.082  -5.806  -2.537  0.00  0.00    -0.188 NA
BRANCH   9  14
ATOM     11  C   UNL     1       1.534  -1.125  -0.803  0.00  0.00    +0.121 A 
ATOM     12  C   UNL     1       0.952  -1.973   0.130  0.00  0.00    +0.046 A 
ATOM     13  C   UNL     1       0.951  -3.335  -0.080  0.00  0.00    +0.013 A 
ATOM     14  C   UNL     1       1.536  -3.862  -1.234  0.00  0.00    -0.005 A 
ATOM     15  C   UNL     1       2.120  -3.005  -2.171  0.00  0.00    +0.013 A 
ATOM     16  C   UNL     1       2.111  -1.644  -1.955  0.00  0.00    +0.046 A 
BRANCH  11  17
ATOM     17  O   UNL     1       1.533   0.217  -0.592  0.00  0.00    -0.492 OA
BRANCH  17  19
ATOM     18  C   UNL     1       1.017   2.209   0.676  0.00  0.00    +0.048 C 
ATOM     19  C   UNL     1       0.922   0.683   0.613  0.00  0.00    +0.225 C 
ENDBRANCH  17  19
ENDBRANCH  11  17
ENDBRANCH   9  14
ENDBRANCH   1  10
BRANCH   4  20
ATOM     20  S   UNL     1       4.941 -10.008  -5.323  0.00  0.00    -0.102 S 
BRANCH  20  21
ATOM     21  C   UNL     1       5.905  -9.096  -4.087  0.00  0.00    +0.168 C 
BRANCH  21  22
ATOM     22  C   UNL     1       7.220  -9.796  -3.859  0.00  0.00    +0.224 C 
ATOM     23  O   UNL     1       7.481 -10.811  -4.470  0.00  0.00    -0.275 OA
ATOM     24  N   UNL     1       8.107  -9.295  -2.976  0.00  0.00    -0.302 N 
ATOM     25  H   UNL     1       7.898  -8.484  -2.487  0.00  0.00    +0.150 HD
BRANCH  24  26
ATOM     26  C   UNL     1       9.385  -9.976  -2.755  0.00  0.00    +0.149 C 
ATOM     27  C   UNL     1      10.577  -8.982  -2.832  0.00  0.00    +0.126 C 
ATOM     28  C   UNL     1      11.868  -9.728  -3.166  0.00  0.00    +0.029 C 
ATOM     29  C   UNL     1      11.647 -10.978  -4.040  0.00  0.00    +0.161 C 
ATOM     30  S   UNL     1       9.812 -11.082  -4.170  0.00  0.00    -0.122 S 
ATOM     31  C   UNL     1      12.807  -8.775  -3.909  0.00  0.00    +0.010 C 
BRANCH  29  32
ATOM     32  C   UNL     1      12.271 -10.794  -5.399  0.00  0.00    +0.321 C 
ATOM     33  O   UNL     1      13.413 -11.138  -5.591  0.00  0.00    -0.250 OA
BRANCH  32  34
ATOM     34  O   UNL     1      11.558 -10.248  -6.397  0.00  0.00    -0.464 OA
BRANCH  34  35
ATOM     35  C   UNL     1      12.213 -10.104  -7.659  0.00  0.00    +0.229 C 
ATOM     36  C   UNL     1      11.250  -9.468  -8.663  0.00  0.00    +0.048 C 
ENDBRANCH  34  35
ENDBRANCH  32  34
ENDBRANCH  29  32
BRANCH  27  37
ATOM     37  C   UNL     1      10.310  -7.981  -3.878  0.00  0.00    +0.069 C 
ATOM     38  N   UNL     1      10.104  -7.209  -4.686  0.00  0.00    -0.196 NA
ENDBRANCH  27  37
ENDBRANCH  24  26
ENDBRANCH  21  22
ENDBRANCH  20  21
ENDBRANCH   4  20
TORSDOF 12
