REMARK  Name = ZINC39464254
REMARK  5 active torsions:
REMARK  status: ('A' for Active; 'I' for Inactive)
REMARK    1  A    between atoms: C_4  and  C_7
REMARK    2  A    between atoms: C_7  and  C_8
REMARK    3  A    between atoms: C_13  and  O_14
REMARK    4  A    between atoms: P_19  and  C_25
REMARK    5  A    between atoms: C_30  and  O_31
REMARK                            x       y       z     vdW  Elec       q    Type
REMARK                         _______ _______ _______ _____ _____    ______ ____
ROOT
ATOM      1  C   UNL     1       4.164  -0.959   1.377  0.00  0.00    -0.001 A 
ATOM      2  C   UNL     1       3.974  -2.198   1.955  0.00  0.00    +0.011 A 
ATOM      3  C   UNL     1       4.389  -2.436   3.256  0.00  0.00    -0.041 A 
ATOM      4  C   UNL     1       4.997  -1.434   3.982  0.00  0.00    -0.020 A 
ATOM      5  C   UNL     1       5.190  -0.188   3.404  0.00  0.00    +0.051 A 
ATOM      6  C   UNL     1       4.780   0.051   2.102  0.00  0.00    +0.121 A 
ATOM      7  C   UNL     1       5.469  -1.642   5.397  0.00  0.00    +0.130 C 
ATOM      8  C   UNL     1       5.100  -0.413   6.233  0.00  0.00    +0.194 C 
ATOM      9  O   UNL     1       5.657  -0.569   7.553  0.00  0.00    -0.311 OA
ATOM     10  P   UNL     1       5.388  -1.965   8.343  0.00  0.00    +0.318 P 
ATOM     11  O   UNL     1       4.048  -1.947   8.971  0.00  0.00    -0.266 OA
ATOM     12  N   UNL     1       5.463  -3.149   7.192  0.00  0.00    -0.175 NA
ATOM     13  N   UNL     1       4.879  -2.848   5.978  0.00  0.00    -0.225 NA
ATOM     14  C   UNL     1       5.032  -3.997   5.072  0.00  0.00    +0.108 C 
ATOM     15  C   UNL     1       4.158  -3.804   3.847  0.00  0.00    +0.052 C 
ATOM     16  H   UNL     1       5.886  -4.004   7.368  0.00  0.00    +0.151 HD
ENDROOT
BRANCH  10  17
ATOM     17  C   UNL     1       6.666  -2.228   9.603  0.00  0.00    +0.094 A 
ATOM     18  C   UNL     1       7.825  -2.906   9.281  0.00  0.00    +0.018 A 
ATOM     19  C   UNL     1       8.800  -3.108  10.241  0.00  0.00    +0.001 A 
ATOM     20  C   UNL     1       8.616  -2.631  11.526  0.00  0.00    +0.004 A 
ATOM     21  C   UNL     1       7.459  -1.952  11.853  0.00  0.00    +0.046 A 
ATOM     22  C   UNL     1       6.482  -1.744  10.890  0.00  0.00    +0.131 A 
BRANCH  22  23
ATOM     23  O   UNL     1       5.345  -1.071  11.208  0.00  0.00    -0.506 OA
ATOM     24  H   UNL     1       4.630  -1.637  11.532  0.00  0.00    +0.292 HD
ENDBRANCH  22  23
ENDBRANCH  10  17
BRANCH   6  25
ATOM     25  O   UNL     1       4.976   1.272   1.539  0.00  0.00    -0.506 OA
ATOM     26  H   UNL     1       4.245   1.890   1.675  0.00  0.00    +0.292 HD
ENDBRANCH   6  25
BRANCH   1  27
ATOM     27  C   UNL     1       3.711  -0.707  -0.038  0.00  0.00    +0.074 C 
BRANCH  27  31
ATOM     28  C   UNL     1      -0.017   1.378   0.010  0.00  0.00    +0.000 A 
ATOM     29  C   UNL     1       1.171   2.086   0.002  0.00  0.00    +0.000 A 
ATOM     30  C   UNL     1       2.377   1.411  -0.013  0.00  0.00    +0.004 A 
ATOM     31  C   UNL     1       2.396   0.029  -0.020  0.00  0.00    -0.043 A 
ATOM     32  C   UNL     1       1.208  -0.679  -0.012  0.00  0.00    +0.004 A 
ATOM     33  C   UNL     1       0.002  -0.004   0.002  0.00  0.00    +0.000 A 
ENDBRANCH  27  31
ENDBRANCH   1  27
TORSDOF 5
