REMARK  Name = ZINC02614073
REMARK  11 active torsions:
REMARK  status: ('A' for Active; 'I' for Inactive)
REMARK    1  A    between atoms: C_1  and  C_2
REMARK    2  A    between atoms: C_3  and  C_29
REMARK    3  A    between atoms: C_8  and  C_10
REMARK    4  A    between atoms: C_10  and  S_11
REMARK    5  A    between atoms: S_11  and  C_12
REMARK    6  A    between atoms: C_24  and  C_28
REMARK    7  A    between atoms: C_29  and  O_31
REMARK    8  A    between atoms: O_31  and  C_32
REMARK    9  A    between atoms: C_32  and  C_33
REMARK   10  A    between atoms: C_33  and  C_34
REMARK   11  A    between atoms: C_33  and  C_35
REMARK                            x       y       z     vdW  Elec       q    Type
REMARK                         _______ _______ _______ _____ _____    ______ ____
ROOT
ATOM      1  C   UNL     1      -1.993   7.616   0.054  0.00  0.00    +0.173 C 
ENDROOT
BRANCH   1   9
ATOM      2  C   UNL     1      -2.716  -0.250   0.013  0.00  0.00    +0.054 C 
ATOM      3  C   UNL     1      -2.482   1.239   0.021  0.00  0.00    +0.022 A 
ATOM      4  C   UNL     1      -1.298   1.929   0.019  0.00  0.00    +0.160 A 
ATOM      5  N   UNL     1      -1.328   3.264   0.032  0.00  0.00    -0.218 NA
ATOM      6  C   UNL     1      -2.485   3.893   0.035  0.00  0.00    +0.165 A 
ATOM      7  S   UNL     1      -3.640   2.532   0.033  0.00  0.00    -0.056 S 
ATOM      8  N   UNL     1      -2.740   5.258   0.044  0.00  0.00    -0.264 N 
ATOM      9  C   UNL     1      -1.716   6.135   0.044  0.00  0.00    +0.229 C 
ATOM     10  O   UNL     1      -0.573   5.732   0.036  0.00  0.00    -0.275 OA
ATOM     11  H   UNL     1      -3.655   5.580   0.051  0.00  0.00    +0.157 HD
BRANCH   4  12
ATOM     12  C   UNL     1      -0.014   1.212   0.009  0.00  0.00    +0.359 C 
ATOM     13  O   UNL     1       0.002  -0.004   0.002  0.00  0.00    -0.243 OA
BRANCH  12  14
ATOM     14  O   UNL     1       1.144   1.901   0.001  0.00  0.00    -0.460 OA
BRANCH  14  15
ATOM     15  C   UNL     1       2.372   1.127  -0.015  0.00  0.00    +0.235 C 
BRANCH  15  16
ATOM     16  C   UNL     1       3.573   2.076  -0.021  0.00  0.00    +0.020 C 
ATOM     17  C   UNL     1       4.865   1.264   0.088  0.00  0.00    +0.010 C 
ATOM     18  C   UNL     1       3.583   2.877  -1.324  0.00  0.00    +0.010 C 
ENDBRANCH  15  16
ENDBRANCH  14  15
ENDBRANCH  12  14
ENDBRANCH   4  12
ENDBRANCH   1   9
BRANCH   1  19
ATOM     19  S   UNL     1      -0.427   8.523   0.051  0.00  0.00    -0.078 S 
BRANCH  19  20
ATOM     20  C   UNL     1      -1.031  10.178   0.064  0.00  0.00    +0.170 A 
ATOM     21  N   UNL     1      -0.146  11.217   0.071  0.00  0.00    -0.301 N 
ATOM     22  H   UNL     1       0.806  11.032   0.069  0.00  0.00    +0.171 HD
ATOM     23  C   UNL     1      -0.570  12.495   0.075  0.00  0.00    +0.261 A 
ATOM     24  O   UNL     1       0.233  13.412   0.077  0.00  0.00    -0.267 OA
ATOM     25  C   UNL     1      -1.976  12.761   0.083  0.00  0.00    +0.075 A 
ATOM     26  C   UNL     1      -2.653  14.059   0.092  0.00  0.00    -0.023 A 
ATOM     27  C   UNL     1      -4.002  14.046   0.098  0.00  0.00    -0.004 A 
ATOM     28  S   UNL     1      -4.445  12.329   0.093  0.00  0.00    -0.073 S 
ATOM     29  C   UNL     1      -2.813  11.632   0.081  0.00  0.00    +0.117 A 
ATOM     30  N   UNL     1      -2.330  10.395   0.072  0.00  0.00    -0.216 NA
ATOM     31  C   UNL     1      -4.921  15.228   0.108  0.00  0.00    +0.046 C 
ATOM     32  C   UNL     1      -4.109  16.476  -0.267  0.00  0.00    -0.009 C 
ATOM     33  C   UNL     1      -2.823  16.492   0.564  0.00  0.00    +0.008 C 
ATOM     34  C   UNL     1      -1.887  15.379   0.095  0.00  0.00    +0.037 C 
ATOM     35  C   UNL     1      -4.930  17.732   0.033  0.00  0.00    +0.008 C 
ENDBRANCH  19  20
ENDBRANCH   1  19
TORSDOF 7
