REMARK  Name = ZINC62776990
REMARK  6 active torsions:
REMARK  status: ('A' for Active; 'I' for Inactive)
REMARK    1  A    between atoms: C_1  and  C_2
REMARK    2  A    between atoms: C_2  and  C_3
REMARK    3  A    between atoms: C_3  and  N_4
REMARK    4  A    between atoms: N_4  and  C_5
REMARK    5  A    between atoms: C_5  and  C_7
REMARK    6  A    between atoms: C_5  and  C_18
REMARK                            x       y       z     vdW  Elec       q    Type
REMARK                         _______ _______ _______ _____ _____    ______ ____
ROOT
ATOM      1  C   UNL     1       1.472  -2.466   2.424  0.00  0.00    +0.011 C 
ENDROOT
BRANCH   1   2
ATOM      2  C   UNL     1       1.600  -3.966   2.354  0.00  0.00    -0.054 A 
ATOM      3  C   UNL     1       0.546  -4.727   1.883  0.00  0.00    +0.006 A 
ATOM      4  C   UNL     1       0.656  -6.104   1.815  0.00  0.00    +0.048 A 
ATOM      5  C   UNL     1       1.825  -6.723   2.220  0.00  0.00    +0.142 A 
ATOM      6  C   UNL     1       2.888  -5.957   2.696  0.00  0.00    +0.076 A 
ATOM      7  C   UNL     1       2.774  -4.577   2.756  0.00  0.00    +0.029 A 
ATOM      8  N   UNL     1       4.066  -6.597   3.105  0.00  0.00    -0.280 N 
ATOM      9  C   UNL     1       4.272  -7.882   2.744  0.00  0.00    +0.255 C 
ATOM     10  O   UNL     1       5.269  -8.466   3.114  0.00  0.00    -0.272 OA
ATOM     11  C   UNL     1       3.257  -8.588   1.882  0.00  0.00    +0.325 C 
ATOM     12  O   UNL     1       1.951  -8.076   2.159  0.00  0.00    -0.481 OA
ATOM     13  H   UNL     1       4.723  -6.124   3.639  0.00  0.00    +0.155 HD
ENDBRANCH   1   2
BRANCH   1  14
ATOM     14  C   UNL     1       0.701  -2.085   3.660  0.00  0.00    +0.053 A 
ATOM     15  C   UNL     1       1.236  -1.912   4.941  0.00  0.00    +0.042 A 
ATOM     16  C   UNL     1       0.225  -1.573   5.773  0.00  0.00    +0.105 A 
ATOM     17  N   UNL     1      -0.911  -1.533   5.045  0.00  0.00    -0.285 N 
ATOM     18  N   UNL     1      -0.586  -1.853   3.721  0.00  0.00    -0.180 NA
ATOM     19  H   UNL     1      -1.795  -1.317   5.380  0.00  0.00    +0.188 HD
ENDBRANCH   1  14
BRANCH   1  20
ATOM     20  N   UNL     1       0.762  -1.980   1.234  0.00  0.00    +0.387 N 
ATOM     21  H   UNL     1      -0.185  -2.329   1.241  0.00  0.00    -0.084 HD
ATOM     22  H   UNL     1       1.234  -2.305   0.403  0.00  0.00    -0.084 HD
BRANCH  20  23
ATOM     23  C   UNL     1       0.742  -0.511   1.242  0.00  0.00    -0.081 C 
BRANCH  23  25
ATOM     24  C   UNL     1      -0.019   1.526   0.010  0.00  0.00    +0.002 C 
ATOM     25  C   UNL     1       0.002  -0.004   0.002  0.00  0.00    -0.022 C 
ENDBRANCH  23  25
ENDBRANCH  20  23
ENDBRANCH   1  20
TORSDOF 5
