REMARK  Name = ZINC67390343
REMARK  6 active torsions:
REMARK  status: ('A' for Active; 'I' for Inactive)
REMARK    1  A    between atoms: C_4  and  C_7
REMARK    2  A    between atoms: C_7  and  C_8
REMARK    3  A    between atoms: C_8  and  C_9
REMARK    4  A    between atoms: N_11  and  N_12
REMARK    5  A    between atoms: C_18  and  C_21
REMARK    6  A    between atoms: C_21  and  C_22
REMARK                            x       y       z     vdW  Elec       q    Type
REMARK                         _______ _______ _______ _____ _____    ______ ____
ROOT
ATOM      1  N   UNL     1       4.587  -4.240  -5.042  0.00  0.00    -0.218 N 
ATOM      2  C   UNL     1       4.908  -5.543  -5.167  0.00  0.00    +0.319 C 
ATOM      3  O   UNL     1       4.550  -6.341  -4.323  0.00  0.00    -0.251 OA
ATOM      4  N   UNL     1       5.627  -5.961  -6.228  0.00  0.00    -0.284 N 
ATOM      5  C   UNL     1       6.170  -4.994  -7.192  0.00  0.00    +0.109 C 
ATOM      6  C   UNL     1       5.719  -5.397  -8.600  0.00  0.00    +0.023 C 
ATOM      7  C   UNL     1       6.127  -6.847  -8.867  0.00  0.00    +0.001 C 
ATOM      8  C   UNL     1       5.437  -7.767  -7.857  0.00  0.00    +0.023 C 
ATOM      9  C   UNL     1       5.889  -7.391  -6.438  0.00  0.00    +0.109 C 
ATOM     10  H   UNL     1       4.808  -3.616  -5.751  0.00  0.00    +0.174 HD
ENDROOT
BRANCH   1  13
ATOM     11  C   UNL     1       3.702  -2.471  -3.718  0.00  0.00    +0.229 C 
ATOM     12  O   UNL     1       4.059  -1.678  -4.563  0.00  0.00    -0.274 OA
ATOM     13  N   UNL     1       3.933  -3.788  -3.888  0.00  0.00    -0.233 N 
ATOM     14  H   UNL     1       3.648  -4.422  -3.212  0.00  0.00    +0.173 HD
BRANCH  11  15
ATOM     15  C   UNL     1       2.999  -1.984  -2.477  0.00  0.00    +0.097 C 
BRANCH  15  16
ATOM     16  C   UNL     1       2.864  -0.461  -2.532  0.00  0.00    +0.013 C 
BRANCH  16  20
ATOM     17  C   UNL     1      -0.022   1.524   0.010  0.00  0.00    +0.000 C 
ATOM     18  C   UNL     1       1.412   2.057  -0.007  0.00  0.00    +0.000 C 
ATOM     19  C   UNL     1       2.125   1.563  -1.267  0.00  0.00    +0.003 C 
ATOM     20  C   UNL     1       2.150   0.033  -1.272  0.00  0.00    -0.011 C 
ATOM     21  C   UNL     1       0.717  -0.500  -1.255  0.00  0.00    +0.003 C 
ATOM     22  C   UNL     1       0.003  -0.006   0.005  0.00  0.00    +0.000 C 
ENDBRANCH  16  20
ENDBRANCH  15  16
ENDBRANCH  11  15
ENDBRANCH   1  13
BRANCH   7  23
ATOM     23  C   UNL     1       5.709  -7.242 -10.285  0.00  0.00    +0.099 C 
BRANCH  23  24
ATOM     24  C   UNL     1       6.218  -8.627 -10.592  0.00  0.00    +0.211 C 
ATOM     25  O   UNL     1       6.853  -9.238  -9.759  0.00  0.00    -0.276 OA
ATOM     26  N   UNL     1       5.968  -9.186 -11.792  0.00  0.00    -0.329 N 
ATOM     27  H   UNL     1       5.460  -8.697 -12.459  0.00  0.00    +0.145 HD
ATOM     28  H   UNL     1       6.296 -10.077 -11.990  0.00  0.00    +0.145 HD
ENDBRANCH  23  24
ENDBRANCH   7  23
TORSDOF 6
