REMARK  Name = ZINC33026443
REMARK  12 active torsions:
REMARK  status: ('A' for Active; 'I' for Inactive)
REMARK    1  A    between atoms: C_1  and  C_2
REMARK    2  A    between atoms: C_10  and  C_12
REMARK    3  A    between atoms: C_14  and  O_22
REMARK    4  A    between atoms: C_15  and  O_20
REMARK    5  A    between atoms: C_16  and  O_18
REMARK    6  A    between atoms: O_18  and  C_19
REMARK    7  A    between atoms: O_20  and  C_21
REMARK    8  A    between atoms: O_22  and  C_23
REMARK    9  A    between atoms: C_27  and  C_30
REMARK   10  A    between atoms: C_33  and  O_38
REMARK   11  A    between atoms: C_34  and  O_36
REMARK   12  A    between atoms: O_36  and  C_37
REMARK                            x       y       z     vdW  Elec       q    Type
REMARK                         _______ _______ _______ _____ _____    ______ ____
ROOT
ATOM      1  C   UNL     1      12.113   5.486   1.631  0.00  0.00    +0.069 C 
ATOM      2  C   UNL     1      11.348   4.205   1.422  0.00  0.00    +0.087 A 
ATOM      3  C   UNL     1      10.006   4.079   1.069  0.00  0.00    +0.049 A 
ATOM      4  C   UNL     1       9.794   2.726   1.005  0.00  0.00    +0.226 A 
ATOM      5  O   UNL     1      10.954   2.152   1.303  0.00  0.00    -0.339 OA
ATOM      6  N   UNL     1      11.810   2.984   1.534  0.00  0.00    -0.081 NA
ATOM      7  N   UNL     1       8.555   2.213   0.681  0.00  0.00    -0.286 N 
ATOM      8  C   UNL     1       7.467   3.054   0.709  0.00  0.00    +0.019 C 
ATOM      9  C   UNL     1       7.589   4.398   0.764  0.00  0.00    +0.024 C 
ATOM     10  C   UNL     1       8.938   5.088   0.792  0.00  0.00    +0.091 C 
ATOM     11  C   UNL     1       6.453   5.227   0.792  0.00  0.00    +0.162 C 
ATOM     12  O   UNL     1       6.599   6.431   0.869  0.00  0.00    -0.292 OA
ATOM     13  C   UNL     1       5.063   4.658   0.731  0.00  0.00    +0.088 C 
ATOM     14  C   UNL     1       5.106   3.325  -0.024  0.00  0.00    +0.032 C 
ATOM     15  C   UNL     1       6.102   2.404   0.683  0.00  0.00    +0.059 C 
ATOM     16  H   UNL     1       8.453   1.153   0.407  0.00  0.00    +0.155 HD
ENDROOT
BRANCH  10  17
ATOM     17  C   UNL     1       9.197   5.740  -0.541  0.00  0.00    -0.028 A 
ATOM     18  C   UNL     1       9.243   4.970  -1.689  0.00  0.00    +0.054 A 
ATOM     19  C   UNL     1       9.475   5.568  -2.918  0.00  0.00    +0.165 A 
ATOM     20  C   UNL     1       9.673   6.941  -2.995  0.00  0.00    +0.204 A 
ATOM     21  C   UNL     1       9.632   7.711  -1.839  0.00  0.00    +0.165 A 
ATOM     22  C   UNL     1       9.393   7.107  -0.614  0.00  0.00    +0.054 A 
BRANCH  21  23
ATOM     23  O   UNL     1       9.826   9.056  -1.908  0.00  0.00    -0.491 OA
ATOM     24  C   UNL     1       9.770   9.784  -0.680  0.00  0.00    +0.277 C 
ENDBRANCH  21  23
BRANCH  20  25
ATOM     25  O   UNL     1       9.908   7.531  -4.199  0.00  0.00    -0.488 OA
ATOM     26  C   UNL     1      11.271   7.639  -4.614  0.00  0.00    +0.277 C 
ENDBRANCH  20  25
BRANCH  19  27
ATOM     27  O   UNL     1       9.514   4.810  -4.047  0.00  0.00    -0.491 OA
ATOM     28  C   UNL     1       9.302   3.405  -3.893  0.00  0.00    +0.277 C 
ENDBRANCH  19  27
ENDBRANCH  10  17
BRANCH  14  29
ATOM     29  C   UNL     1       3.738   2.693  -0.018  0.00  0.00    -0.040 A 
ATOM     30  C   UNL     1       3.120   2.397   1.183  0.00  0.00    +0.008 A 
ATOM     31  C   UNL     1       1.863   1.823   1.193  0.00  0.00    +0.049 A 
ATOM     32  C   UNL     1       1.224   1.533  -0.001  0.00  0.00    +0.158 A 
ATOM     33  C   UNL     1       1.845   1.831  -1.210  0.00  0.00    +0.162 A 
ATOM     34  C   UNL     1       3.103   2.412  -1.214  0.00  0.00    +0.053 A 
BRANCH  33  35
ATOM     35  O   UNL     1       1.219   1.555  -2.385  0.00  0.00    -0.491 OA
ATOM     36  C   UNL     1       1.917   1.889  -3.587  0.00  0.00    +0.277 C 
ENDBRANCH  33  35
BRANCH  32  37
ATOM     37  O   UNL     1      -0.011   0.963   0.007  0.00  0.00    -0.503 OA
ATOM     38  H   UNL     1      -0.517   0.733  -0.942  0.00  0.00    +0.292 HD
ENDBRANCH  32  37
ENDBRANCH  14  29
TORSDOF 7
