REMARK  Name = ZINC40986363
REMARK  9 active torsions:
REMARK  status: ('A' for Active; 'I' for Inactive)
REMARK    1  A    between atoms: C_1  and  C_2
REMARK    2  A    between atoms: C_5  and  C_8
REMARK    3  A    between atoms: C_8  and  S_9
REMARK    4  A    between atoms: S_9  and  C_12
REMARK    5  A    between atoms: C_15  and  C_19
REMARK    6  A    between atoms: N_21  and  C_22
REMARK    7  A    between atoms: C_22  and  C_23
REMARK    8  A    between atoms: C_23  and  C_25
REMARK    9  A    between atoms: C_23  and  N_30
REMARK                            x       y       z     vdW  Elec       q    Type
REMARK                         _______ _______ _______ _____ _____    ______ ____
ROOT
ATOM      1  C   UNL     1       1.155  -6.588   0.016  0.00  0.00    +0.272 A 
ATOM      2  N   UNL     1       1.107  -7.244   1.159  0.00  0.00    -0.219 NA
ATOM      3  C   UNL     1       1.146  -8.565   1.188  0.00  0.00    +0.130 A 
ATOM      4  C   UNL     1       1.239  -9.266  -0.019  0.00  0.00    +0.092 A 
ATOM      5  C   UNL     1       1.286  -8.528  -1.210  0.00  0.00    +0.146 A 
ATOM      6  N   UNL     1       1.238  -7.207  -1.145  0.00  0.00    -0.199 NA
ATOM      7 CL   UNL     1       1.402  -9.333  -2.743  0.00  0.00    -0.061 Cl
ENDROOT
BRANCH   4   8
ATOM      8  C   UNL     1       1.285 -10.743  -0.039  0.00  0.00    +0.248 C 
ATOM      9  O   UNL     1       1.366 -11.335  -1.098  0.00  0.00    -0.270 OA
ATOM     10  N   UNL     1       1.238 -11.434   1.117  0.00  0.00    -0.312 N 
ATOM     11  H   UNL     1       1.174 -10.962   1.962  0.00  0.00    +0.149 HD
BRANCH  10  12
ATOM     12  C   UNL     1       1.284 -12.898   1.098  0.00  0.00    +0.094 C 
BRANCH  12  13
ATOM     13  C   UNL     1       1.331 -13.426   2.534  0.00  0.00    -0.013 C 
BRANCH  13  14
ATOM     14  N   UNL     1       1.474 -14.888   2.513  0.00  0.00    +0.386 N 
ATOM     15  C   UNL     1       1.434 -15.401   3.888  0.00  0.00    -0.078 C 
ATOM     16  C   UNL     1       1.500 -16.929   3.868  0.00  0.00    -0.019 C 
ATOM     17  C   UNL     1       2.804 -17.369   3.195  0.00  0.00    -0.004 C 
ATOM     18  C   UNL     1       2.869 -16.767   1.788  0.00  0.00    -0.019 C 
ATOM     19  C   UNL     1       2.752 -15.245   1.885  0.00  0.00    -0.078 C 
ATOM     20  H   UNL     1       0.716 -15.291   1.984  0.00  0.00    -0.081 HD
ENDBRANCH  13  14
BRANCH  13  21
ATOM     21  C   UNL     1       0.057 -13.055   3.247  0.00  0.00    -0.022 A 
ATOM     22  C   UNL     1      -0.173 -12.036   4.111  0.00  0.00    +0.009 A 
ATOM     23  C   UNL     1      -1.437 -11.886   4.649  0.00  0.00    +0.008 A 
ATOM     24  C   UNL     1      -2.410 -12.762   4.298  0.00  0.00    +0.045 A 
ATOM     25  S   UNL     1      -1.545 -13.840   3.168  0.00  0.00    -0.103 S 
ENDBRANCH  13  21
ENDBRANCH  12  13
ENDBRANCH  10  12
ENDBRANCH   4   8
BRANCH   1  26
ATOM     26  S   UNL     1       1.099  -4.827   0.041  0.00  0.00    +0.036 S 
ATOM     27  O   UNL     1       1.756  -4.427  -1.154  0.00  0.00    -0.166 OA
ATOM     28  O   UNL     1       1.623  -4.466   1.312  0.00  0.00    -0.166 OA
BRANCH  26  29
ATOM     29  C   UNL     1      -0.665  -4.415  -0.048  0.00  0.00    +0.210 C 
BRANCH  29  34
ATOM     30  C   UNL     1      -1.311   1.327   0.008  0.00  0.00    +0.044 C 
ATOM     31  C   UNL     1      -1.142  -0.170  -0.006  0.00  0.00    -0.050 A 
ATOM     32  C   UNL     1      -0.999  -0.838  -1.208  0.00  0.00    +0.003 A 
ATOM     33  C   UNL     1      -0.845  -2.212  -1.222  0.00  0.00    +0.005 A 
ATOM     34  C   UNL     1      -0.833  -2.918  -0.033  0.00  0.00    -0.026 A 
ATOM     35  C   UNL     1      -0.975  -2.250   1.169  0.00  0.00    +0.005 A 
ATOM     36  C   UNL     1      -1.125  -0.876   1.182  0.00  0.00    +0.003 A 
ENDBRANCH  29  34
ENDBRANCH  26  29
ENDBRANCH   1  26
TORSDOF 8
