REMARK  Name = ZINC65968232
REMARK  7 active torsions:
REMARK  status: ('A' for Active; 'I' for Inactive)
REMARK    1  A    between atoms: C_1  and  C_2
REMARK    2  A    between atoms: C_2  and  C_3
REMARK    3  A    between atoms: C_8  and  N_9
REMARK    4  A    between atoms: C_10  and  C_12
REMARK    5  A    between atoms: C_12  and  N_13
REMARK    6  A    between atoms: C_14  and  C_16
REMARK    7  A    between atoms: C_16  and  N_17
REMARK                            x       y       z     vdW  Elec       q    Type
REMARK                         _______ _______ _______ _____ _____    ______ ____
ROOT
ATOM      1  N   UNL     1      -2.353  -0.595  -5.972  0.00  0.00    -0.308 N 
ATOM      2  C   UNL     1      -1.942  -0.432  -7.245  0.00  0.00    +0.197 C 
ATOM      3  O   UNL     1      -0.825  -0.018  -7.473  0.00  0.00    -0.278 OA
ATOM      4  H   UNL     1      -3.246  -0.926  -5.789  0.00  0.00    +0.149 HD
ENDROOT
BRANCH   1   5
ATOM      5  C   UNL     1      -1.451  -0.272  -4.864  0.00  0.00    +0.200 C 
BRANCH   5   7
ATOM      6  N   UNL     1      -1.505  -0.315  -2.391  0.00  0.00    -0.284 N 
ATOM      7  C   UNL     1      -2.147  -0.541  -3.555  0.00  0.00    +0.234 C 
ATOM      8  O   UNL     1      -3.285  -0.961  -3.548  0.00  0.00    -0.274 OA
ATOM      9  H   UNL     1      -0.620   0.082  -2.395  0.00  0.00    +0.155 HD
BRANCH   6  15
ATOM     10  C   UNL     1      -1.349  -1.119  -0.119  0.00  0.00    -0.026 A 
ATOM     11  C   UNL     1      -1.954  -1.445   1.079  0.00  0.00    +0.005 A 
ATOM     12  C   UNL     1      -3.322  -1.313   1.222  0.00  0.00    +0.000 A 
ATOM     13  C   UNL     1      -4.090  -0.854   0.168  0.00  0.00    +0.002 A 
ATOM     14  C   UNL     1      -3.491  -0.525  -1.033  0.00  0.00    +0.023 A 
ATOM     15  C   UNL     1      -2.116  -0.652  -1.178  0.00  0.00    +0.037 A 
BRANCH  10  17
ATOM     16  C   UNL     1       0.819   0.078   0.019  0.00  0.00    +0.009 C 
ATOM     17  C   UNL     1       0.143  -1.263  -0.275  0.00  0.00    +0.033 C 
ENDBRANCH  10  17
ENDBRANCH   6  15
ENDBRANCH   5   7
ENDBRANCH   1   5
BRANCH   2  18
ATOM     18  C   UNL     1      -2.870  -0.764  -8.385  0.00  0.00    +0.019 C 
BRANCH  18  19
ATOM     19  N   UNL     1      -2.192  -0.502  -9.661  0.00  0.00    +0.387 N 
ATOM     20  C   UNL     1      -1.801   0.876  -9.682  0.00  0.00    -0.074 C 
ATOM     21  C   UNL     1      -1.568   1.461 -11.040  0.00  0.00    -0.027 C 
ATOM     22  C   UNL     1      -0.822   0.557 -11.998  0.00  0.00    +0.005 C 
ATOM     23  C   UNL     1      -1.716  -0.407 -12.759  0.00  0.00    -0.012 C 
ATOM     24  C   UNL     1      -2.905   0.327 -13.383  0.00  0.00    +0.007 C 
ATOM     25  C   UNL     1      -3.681   1.015 -12.258  0.00  0.00    -0.012 C 
ATOM     26  C   UNL     1      -2.789   2.106 -11.657  0.00  0.00    +0.005 C 
ATOM     27  C   UNL     1      -4.103   0.032 -11.187  0.00  0.00    -0.012 C 
ATOM     28  C   UNL     1      -3.057  -0.939 -10.725  0.00  0.00    -0.067 C 
ATOM     29  C   UNL     1      -2.243  -1.529 -11.872  0.00  0.00    -0.012 C 
ATOM     30  H   UNL     1      -1.354  -1.065  -9.689  0.00  0.00    -0.081 HD
ENDBRANCH  18  19
ENDBRANCH   2  18
TORSDOF 6
