REMARK  Name = ZINC08993815
REMARK  13 active torsions:
REMARK  status: ('A' for Active; 'I' for Inactive)
REMARK    1  A    between atoms: C_1  and  C_2
REMARK    2  A    between atoms: C_2  and  C_4
REMARK    3  A    between atoms: C_2  and  N_10
REMARK    4  A    between atoms: C_11  and  C_13
REMARK    5  A    between atoms: C_13  and  N_60
REMARK    6  A    between atoms: C_14  and  C_15
REMARK    7  A    between atoms: C_14  and  N_60
REMARK    8  A    between atoms: N_17  and  C_18
REMARK    9  A    between atoms: C_19  and  C_20
REMARK   10  A    between atoms: C_19  and  N_60
REMARK   11  A    between atoms: N_22  and  C_23
REMARK   12  A    between atoms: C_23  and  C_25
REMARK   13  A    between atoms: C_23  and  C_26
REMARK                            x       y       z     vdW  Elec       q    Type
REMARK                         _______ _______ _______ _____ _____    ______ ____
ROOT
ATOM      1  N   UNL     1       2.189   1.090   0.065  0.00  0.00    +0.397 N 
ATOM      2  H   UNL     1       1.911   0.593  -0.790  0.00  0.00    -0.080 HD
ENDROOT
BRANCH   1   3
ATOM      3  C   UNL     1       1.169   2.112   0.380  0.00  0.00    +0.020 C 
BRANCH   3   5
ATOM      4  N   UNL     1      -0.085   3.846  -0.862  0.00  0.00    -0.310 N 
ATOM      5  C   UNL     1       0.758   2.794  -0.899  0.00  0.00    +0.197 C 
ATOM      6  O   UNL     1       1.189   2.400  -1.962  0.00  0.00    -0.278 OA
ATOM      7  H   UNL     1      -0.430   4.160  -0.012  0.00  0.00    +0.149 HD
BRANCH   4   9
ATOM      8  C   UNL     1       0.574   5.557  -2.479  0.00  0.00    +0.033 C 
ATOM      9  C   UNL     1      -0.479   4.513  -2.105  0.00  0.00    +0.100 C 
BRANCH   9  10
ATOM     10  C   UNL     1      -1.811   5.190  -1.910  0.00  0.00    -0.027 A 
ATOM     11  C   UNL     1      -2.090   5.839  -0.722  0.00  0.00    +0.005 A 
ATOM     12  C   UNL     1      -3.310   6.464  -0.545  0.00  0.00    +0.000 A 
ATOM     13  C   UNL     1      -4.255   6.432  -1.554  0.00  0.00    +0.000 A 
ATOM     14  C   UNL     1      -3.979   5.779  -2.740  0.00  0.00    +0.000 A 
ATOM     15  C   UNL     1      -2.757   5.157  -2.918  0.00  0.00    +0.005 A 
ENDBRANCH   9  10
ENDBRANCH   4   9
ENDBRANCH   3   5
ENDBRANCH   1   3
BRANCH   1  16
ATOM     16  C   UNL     1       2.289   0.117   1.174  0.00  0.00    +0.020 C 
BRANCH  16  17
ATOM     17  C   UNL     1       1.125  -0.835   1.087  0.00  0.00    +0.196 C 
ATOM     18  O   UNL     1       0.347  -0.760   0.160  0.00  0.00    -0.278 OA
ATOM     19  N   UNL     1       0.947  -1.771   2.041  0.00  0.00    -0.320 N 
ATOM     20  C   UNL     1      -0.185  -2.697   1.957  0.00  0.00    +0.128 C 
ATOM     21  H   UNL     1       1.569  -1.831   2.783  0.00  0.00    +0.148 HD
ENDBRANCH  16  17
ENDBRANCH   1  16
BRANCH   1  22
ATOM     22  C   UNL     1       3.499   1.736  -0.160  0.00  0.00    +0.020 C 
BRANCH  22  23
ATOM     23  C   UNL     1       4.463   0.708  -0.692  0.00  0.00    +0.197 C 
ATOM     24  O   UNL     1       4.102  -0.439  -0.848  0.00  0.00    -0.278 OA
ATOM     25  N   UNL     1       5.728   1.062  -0.993  0.00  0.00    -0.310 N 
ATOM     26  H   UNL     1       6.017   1.980  -0.869  0.00  0.00    +0.149 HD
BRANCH  25  27
ATOM     27  C   UNL     1       6.666   0.063  -1.510  0.00  0.00    +0.100 C 
ATOM     28  C   UNL     1       7.311  -0.684  -0.341  0.00  0.00    +0.033 C 
BRANCH  27  29
ATOM     29  C   UNL     1       7.737   0.749  -2.319  0.00  0.00    -0.027 A 
ATOM     30  C   UNL     1       8.261   1.954  -1.890  0.00  0.00    +0.005 A 
ATOM     31  C   UNL     1       9.246   2.581  -2.630  0.00  0.00    +0.000 A 
ATOM     32  C   UNL     1       9.700   2.008  -3.803  0.00  0.00    +0.000 A 
ATOM     33  C   UNL     1       9.172   0.805  -4.234  0.00  0.00    +0.000 A 
ATOM     34  C   UNL     1       8.190   0.176  -3.493  0.00  0.00    +0.005 A 
ENDBRANCH  27  29
ENDBRANCH  25  27
ENDBRANCH  22  23
ENDBRANCH   1  22
TORSDOF 10
