REMARK  Name = ZINC63853472
REMARK  8 active torsions:
REMARK  status: ('A' for Active; 'I' for Inactive)
REMARK    1  A    between atoms: C_1  and  O_2
REMARK    2  A    between atoms: O_2  and  C_3
REMARK    3  A    between atoms: C_6  and  C_9
REMARK    4  A    between atoms: C_9  and  C_11
REMARK    5  A    between atoms: C_9  and  C_27
REMARK    6  A    between atoms: C_11  and  N_12
REMARK    7  A    between atoms: C_13  and  C_15
REMARK    8  A    between atoms: C_15  and  N_16
REMARK                            x       y       z     vdW  Elec       q    Type
REMARK                         _______ _______ _______ _____ _____    ______ ____
ROOT
ATOM      1  C   UNL     1      -4.981  -2.629   0.035  0.00  0.00    +0.064 C 
ENDROOT
BRANCH   1   2
ATOM      2  C   UNL     1      -5.103  -3.490  -1.196  0.00  0.00    -0.033 C 
ATOM      3  C   UNL     1      -6.039  -3.392  -2.167  0.00  0.00    -0.000 A 
ATOM      4  C   UNL     1      -7.180  -2.489  -2.362  0.00  0.00    +0.010 A 
ATOM      5  C   UNL     1      -7.956  -2.639  -3.459  0.00  0.00    +0.001 A 
ATOM      6  C   UNL     1      -7.699  -3.633  -4.413  0.00  0.00    +0.002 A 
ATOM      7  C   UNL     1      -6.670  -4.500  -4.304  0.00  0.00    +0.026 A 
ATOM      8  C   UNL     1      -5.789  -4.433  -3.190  0.00  0.00    +0.043 A 
ATOM      9  N   UNL     1      -4.739  -5.147  -2.862  0.00  0.00    -0.380 N 
ATOM     10  C   UNL     1      -4.201  -4.636  -1.597  0.00  0.00    +0.145 C 
ATOM     11  H   UNL     1      -4.377  -5.888  -3.374  0.00  0.00    +0.160 HD
ENDBRANCH   1   2
BRANCH   1  15
ATOM     12  C   UNL     1      -1.200  -0.637   0.010  0.00  0.00    +0.120 A 
ATOM     13  C   UNL     1      -2.375   0.101   0.019  0.00  0.00    +0.046 A 
ATOM     14  C   UNL     1      -3.596  -0.545   0.027  0.00  0.00    +0.008 A 
ATOM     15  C   UNL     1      -3.648  -1.927   0.026  0.00  0.00    -0.038 A 
ATOM     16  C   UNL     1      -2.479  -2.665   0.017  0.00  0.00    +0.008 A 
ATOM     17  C   UNL     1      -1.255  -2.024   0.003  0.00  0.00    +0.046 A 
BRANCH  12  19
ATOM     18  C   UNL     1      -0.017   1.425   0.010  0.00  0.00    +0.277 C 
ATOM     19  O   UNL     1       0.002  -0.004   0.002  0.00  0.00    -0.495 OA
ENDBRANCH  12  19
ENDBRANCH   1  15
BRANCH   1  20
ATOM     20  C   UNL     1      -5.087  -3.506   1.284  0.00  0.00    +0.116 C 
BRANCH  20  21
ATOM     21  N   UNL     1      -6.427  -4.096   1.355  0.00  0.00    -0.313 N 
ATOM     22  C   UNL     1      -6.751  -4.910   2.378  0.00  0.00    +0.231 C 
ATOM     23  O   UNL     1      -5.934  -5.156   3.240  0.00  0.00    -0.274 OA
ATOM     24  H   UNL     1      -7.080  -3.899   0.665  0.00  0.00    +0.149 HD
BRANCH  22  25
ATOM     25  C   UNL     1      -8.129  -5.516   2.451  0.00  0.00    +0.213 C 
BRANCH  25  26
ATOM     26  N   UNL     1      -8.230  -6.356   3.647  0.00  0.00    -0.215 N 
ATOM     27  C   UNL     1      -7.922  -7.671   3.680  0.00  0.00    +0.247 C 
ATOM     28  O   UNL     1      -7.524  -8.356   2.763  0.00  0.00    -0.273 OA
ATOM     29  C   UNL     1      -8.178  -8.104   5.101  0.00  0.00    +0.113 C 
ATOM     30  C   UNL     1      -6.898  -8.645   5.752  0.00  0.00    +0.035 C 
ATOM     31  C   UNL     1      -7.401  -9.783   6.678  0.00  0.00    +0.003 C 
ATOM     32  C   UNL     1      -8.549 -10.417   5.853  0.00  0.00    +0.003 C 
ATOM     33  C   UNL     1      -9.230  -9.214   5.163  0.00  0.00    +0.035 C 
ATOM     34  N   UNL     1      -8.642  -6.890   5.776  0.00  0.00    -0.285 N 
ATOM     35  C   UNL     1      -8.635  -5.915   4.845  0.00  0.00    +0.310 C 
ATOM     36  O   UNL     1      -8.963  -4.766   5.067  0.00  0.00    -0.252 OA
ATOM     37  H   UNL     1      -8.900  -6.804   6.707  0.00  0.00    +0.151 HD
ENDBRANCH  25  26
ENDBRANCH  22  25
ENDBRANCH  20  21
ENDBRANCH   1  20
TORSDOF 7
