REMARK  Name = ZINC60343230
REMARK  9 active torsions:
REMARK  status: ('A' for Active; 'I' for Inactive)
REMARK    1  A    between atoms: C_3  and  C_8
REMARK    2  A    between atoms: C_5  and  O_7
REMARK    3  A    between atoms: C_8  and  N_9
REMARK    4  A    between atoms: N_9  and  C_10
REMARK    5  A    between atoms: N_9  and  C_23
REMARK    6  A    between atoms: C_10  and  C_11
REMARK    7  A    between atoms: N_16  and  C_17
REMARK    8  A    between atoms: C_17  and  C_18
REMARK    9  A    between atoms: C_26  and  O_29
REMARK                            x       y       z     vdW  Elec       q    Type
REMARK                         _______ _______ _______ _____ _____    ______ ____
ROOT
ATOM      1  N   UNL     1       4.249   2.322   1.370  0.00  0.00    +0.390 N 
ATOM      2  H   UNL     1       3.642   2.441   2.167  0.00  0.00    -0.080 HD
ENDROOT
BRANCH   1   3
ATOM      3  C   UNL     1       4.899   1.007   1.441  0.00  0.00    -0.067 C 
ATOM      4  C   UNL     1       5.765   0.933   2.701  0.00  0.00    -0.013 C 
ATOM      5  C   UNL     1       6.441  -0.437   2.775  0.00  0.00    +0.030 C 
ATOM      6  C   UNL     1       7.320  -0.639   1.539  0.00  0.00    +0.114 C 
ATOM      7  C   UNL     1       6.455  -0.566   0.280  0.00  0.00    +0.030 C 
ATOM      8  C   UNL     1       5.778   0.805   0.205  0.00  0.00    -0.013 C 
BRANCH   6   9
ATOM      9  O   UNL     1       7.952  -1.919   1.608  0.00  0.00    -0.392 OA
ATOM     10  H   UNL     1       8.527  -2.115   0.855  0.00  0.00    +0.210 HD
ENDBRANCH   6   9
ENDBRANCH   1   3
BRANCH   1  11
ATOM     11  C   UNL     1       3.459   2.412   0.135  0.00  0.00    -0.042 C 
BRANCH  11  14
ATOM     12  C   UNL     1       0.099   0.862   0.886  0.00  0.00    +0.004 A 
ATOM     13  C   UNL     1       1.144   1.765   0.831  0.00  0.00    +0.002 A 
ATOM     14  C   UNL     1       2.322   1.425   0.193  0.00  0.00    -0.060 A 
ATOM     15  C   UNL     1       2.458   0.181  -0.392  0.00  0.00    +0.047 A 
ATOM     16  C   UNL     1       1.411  -0.727  -0.339  0.00  0.00    +0.117 A 
ATOM     17  C   UNL     1       0.229  -0.384   0.303  0.00  0.00    +0.045 A 
BRANCH  16  18
ATOM     18  O   UNL     1       1.542  -1.952  -0.913  0.00  0.00    -0.507 OA
ATOM     19  H   UNL     1       1.898  -2.628  -0.321  0.00  0.00    +0.292 HD
ENDBRANCH  16  18
ENDBRANCH  11  14
ENDBRANCH   1  11
BRANCH   1  20
ATOM     20  C   UNL     1       5.274   3.375   1.374  0.00  0.00    +0.020 C 
BRANCH  20  21
ATOM     21  C   UNL     1       5.664   3.691   2.795  0.00  0.00    +0.204 C 
ATOM     22  O   UNL     1       5.049   3.199   3.716  0.00  0.00    -0.277 OA
ATOM     23  N   UNL     1       6.698   4.520   3.041  0.00  0.00    -0.242 N 
ATOM     24  C   UNL     1       7.047   4.802   4.312  0.00  0.00    +0.306 C 
ATOM     25  O   UNL     1       6.430   4.309   5.236  0.00  0.00    -0.252 OA
ATOM     26  N   UNL     1       8.081   5.631   4.558  0.00  0.00    -0.294 N 
ATOM     27  H   UNL     1       7.191   4.913   2.304  0.00  0.00    +0.159 HD
ATOM     28  H   UNL     1       8.574   6.024   3.821  0.00  0.00    +0.151 HD
BRANCH  26  29
ATOM     29  C   UNL     1       8.461   5.938   5.939  0.00  0.00    +0.148 C 
BRANCH  29  30
ATOM     30  C   UNL     1       9.637   6.880   5.940  0.00  0.00    +0.007 A 
ATOM     31  C   UNL     1       9.644   8.236   5.944  0.00  0.00    +0.013 A 
ATOM     32  C   UNL     1      10.857   8.899   5.944  0.00  0.00    +0.008 A 
ATOM     33  C   UNL     1      12.003   8.175   5.939  0.00  0.00    +0.045 A 
ATOM     34  S   UNL     1      11.381   6.501   5.942  0.00  0.00    -0.100 S 
ENDBRANCH  29  30
ENDBRANCH  26  29
ENDBRANCH  20  21
ENDBRANCH   1  20
TORSDOF 9
