REMARK  Name = ZINC21582034
REMARK  7 active torsions:
REMARK  status: ('A' for Active; 'I' for Inactive)
REMARK    1  A    between atoms: C_4  and  C_7
REMARK    2  A    between atoms: C_7  and  N_8
REMARK    3  A    between atoms: N_8  and  C_9
REMARK    4  A    between atoms: N_8  and  C_15
REMARK    5  A    between atoms: C_9  and  C_10
REMARK    6  A    between atoms: C_15  and  C_16
REMARK    7  A    between atoms: C_18  and  C_21
REMARK                            x       y       z     vdW  Elec       q    Type
REMARK                         _______ _______ _______ _____ _____    ______ ____
ROOT
ATOM      1  N   UNL     1      -0.898   1.794   1.228  0.00  0.00    +0.393 N 
ATOM      2  H   UNL     1      -1.135   2.868   1.238  0.00  0.00    -0.080 HD
ENDROOT
BRANCH   1   3
ATOM      3  C   UNL     1      -0.088   1.521   0.034  0.00  0.00    -0.042 C 
BRANCH   3   7
ATOM      4  C   UNL     1      -2.065   3.086  -3.415  0.00  0.00    +0.000 A 
ATOM      5  C   UNL     1      -1.176   3.876  -2.709  0.00  0.00    +0.000 A 
ATOM      6  C   UNL     1      -0.537   3.370  -1.593  0.00  0.00    +0.002 A 
ATOM      7  C   UNL     1      -0.786   2.074  -1.183  0.00  0.00    -0.064 A 
ATOM      8  C   UNL     1      -1.670   1.282  -1.891  0.00  0.00    +0.002 A 
ATOM      9  C   UNL     1      -2.313   1.790  -3.005  0.00  0.00    +0.000 A 
ENDBRANCH   3   7
ENDBRANCH   1   3
BRANCH   1  10
ATOM     10  C   UNL     1      -2.166   1.053   1.186  0.00  0.00    -0.002 C 
BRANCH  10  11
ATOM     11  C   UNL     1      -3.120   1.631   2.198  0.00  0.00    +0.089 A 
ATOM     12  C   UNL     1      -3.990   2.633   1.976  0.00  0.00    +0.042 A 
ATOM     13  C   UNL     1      -4.681   2.852   3.190  0.00  0.00    +0.041 A 
ATOM     14  C   UNL     1      -4.191   1.972   4.082  0.00  0.00    +0.195 A 
ATOM     15  O   UNL     1      -3.250   1.231   3.473  0.00  0.00    -0.470 OA
ENDBRANCH  10  11
ENDBRANCH   1  10
BRANCH   1  16
ATOM     16  C   UNL     1      -0.149   1.486   2.454  0.00  0.00    +0.023 C 
BRANCH  16  17
ATOM     17  C   UNL     1       0.867   2.570   2.708  0.00  0.00    +0.211 A 
ATOM     18  N   UNL     1       0.654   3.707   3.322  0.00  0.00    -0.193 NA
ATOM     19  C   UNL     1       1.842   4.352   3.315  0.00  0.00    +0.202 A 
ATOM     20  N   UNL     1       2.699   3.576   2.703  0.00  0.00    -0.056 NA
ATOM     21  O   UNL     1       2.155   2.549   2.354  0.00  0.00    -0.340 OA
BRANCH  19  22
ATOM     22  C   UNL     1       2.122   5.689   3.893  0.00  0.00    +0.023 A 
ATOM     23  C   UNL     1       1.134   6.362   4.609  0.00  0.00    +0.014 A 
ATOM     24  C   UNL     1       1.400   7.604   5.148  0.00  0.00    +0.039 A 
ATOM     25  C   UNL     1       2.644   8.186   4.971  0.00  0.00    +0.123 A 
ATOM     26  C   UNL     1       3.628   7.523   4.255  0.00  0.00    +0.039 A 
ATOM     27  C   UNL     1       3.372   6.279   3.716  0.00  0.00    +0.014 A 
ATOM     28  F   UNL     1       2.899   9.404   5.497  0.00  0.00    -0.205 F 
ENDBRANCH  19  22
ENDBRANCH  16  17
ENDBRANCH   1  16
TORSDOF 7
