REMARK  Name = ZINC10695845
REMARK  8 active torsions:
REMARK  status: ('A' for Active; 'I' for Inactive)
REMARK    1  A    between atoms: C_1  and  C_2
REMARK    2  A    between atoms: C_5  and  C_7
REMARK    3  A    between atoms: C_11  and  N_12
REMARK    4  A    between atoms: C_13  and  C_15
REMARK    5  A    between atoms: C_18  and  S_21
REMARK    6  A    between atoms: S_21  and  N_24
REMARK    7  A    between atoms: C_26  and  C_33
REMARK    8  A    between atoms: C_29  and  C_32
REMARK                            x       y       z     vdW  Elec       q    Type
REMARK                         _______ _______ _______ _____ _____    ______ ____
ROOT
ATOM      1  C   UNL     1       6.123   1.224  -0.051  0.00  0.00    +0.037 A 
ATOM      2  C   UNL     1       6.430   2.586  -0.052  0.00  0.00    +0.015 A 
ATOM      3  C   UNL     1       7.748   2.993  -0.058  0.00  0.00    +0.029 A 
ATOM      4  C   UNL     1       8.765   2.054  -0.073  0.00  0.00    +0.106 A 
ATOM      5  C   UNL     1       8.467   0.703  -0.077  0.00  0.00    +0.029 A 
ATOM      6  C   UNL     1       7.153   0.282  -0.065  0.00  0.00    +0.015 A 
ENDROOT
BRANCH   1   8
ATOM      7  N   UNL     1       3.720   1.692  -0.025  0.00  0.00    -0.275 N 
ATOM      8  C   UNL     1       4.713   0.781  -0.039  0.00  0.00    +0.249 C 
ATOM      9  O   UNL     1       4.449  -0.406  -0.043  0.00  0.00    -0.270 OA
ATOM     10  H   UNL     1       3.931   2.639  -0.022  0.00  0.00    +0.156 HD
BRANCH   7  15
ATOM     11  C   UNL     1       1.240   2.045   0.001  0.00  0.00    +0.036 A 
ATOM     12  C   UNL     1      -0.016   1.343   0.009  0.00  0.00    +0.020 A 
ATOM     13  C   UNL     1       0.002  -0.004   0.002  0.00  0.00    +0.048 A 
ATOM     14  S   UNL     1       1.743  -0.385  -0.017  0.00  0.00    -0.081 S 
ATOM     15  C   UNL     1       2.393   1.275  -0.014  0.00  0.00    +0.082 A 
BRANCH  11  20
ATOM     16  C   UNL     1      -0.598   6.674   0.042  0.00  0.00    +0.066 C 
ATOM     17  C   UNL     1       0.547   5.695   0.026  0.00  0.00    +0.046 A 
ATOM     18  C   UNL     1       1.827   6.146   0.016  0.00  0.00    +0.070 A 
ATOM     19  S   UNL     1       2.724   4.598   0.007  0.00  0.00    -0.075 S 
ATOM     20  C   UNL     1       1.299   3.519   0.008  0.00  0.00    +0.111 A 
ATOM     21  N   UNL     1       0.307   4.402   0.022  0.00  0.00    -0.244 NA
ENDBRANCH  11  20
ENDBRANCH   7  15
ENDBRANCH   1   8
BRANCH   4  22
ATOM     22  S   UNL     1      10.445   2.582  -0.087  0.00  0.00    +0.061 S 
ATOM     23  O   UNL     1      10.465   3.889   0.470  0.00  0.00    -0.153 OA
ATOM     24  O   UNL     1      11.212   1.513   0.451  0.00  0.00    -0.153 OA
BRANCH  22  25
ATOM     25  N   UNL     1      10.896   2.737  -1.673  0.00  0.00    -0.176 NA
ATOM     26  C   UNL     1      11.485   1.603  -2.398  0.00  0.00    +0.112 C 
ATOM     27  C   UNL     1      10.679   1.375  -3.686  0.00  0.00    +0.002 C 
ATOM     28  C   UNL     1      10.631   2.677  -4.488  0.00  0.00    +0.009 C 
ATOM     29  C   UNL     1       9.929   3.760  -3.666  0.00  0.00    +0.002 C 
ATOM     30  C   UNL     1      10.722   4.013  -2.380  0.00  0.00    +0.112 C 
ATOM     31  C   UNL     1       9.853   5.052  -4.482  0.00  0.00    +0.009 C 
ATOM     32  C   UNL     1       9.255   0.942  -3.331  0.00  0.00    +0.009 C 
ENDBRANCH  22  25
ENDBRANCH   4  22
TORSDOF 5
