REMARK  Name = ZINC04073614
REMARK  10 active torsions:
REMARK  status: ('A' for Active; 'I' for Inactive)
REMARK    1  A    between atoms: C_1  and  C_2
REMARK    2  A    between atoms: C_2  and  C_3
REMARK    3  A    between atoms: C_10  and  O_15
REMARK    4  A    between atoms: C_12  and  C_14
REMARK    5  A    between atoms: O_15  and  C_16
REMARK    6  A    between atoms: C_18  and  O_31
REMARK    7  A    between atoms: C_20  and  O_30
REMARK    8  A    between atoms: C_22  and  O_29
REMARK    9  A    between atoms: C_24  and  C_27
REMARK   10  A    between atoms: C_27  and  O_28
REMARK                            x       y       z     vdW  Elec       q    Type
REMARK                         _______ _______ _______ _____ _____    ______ ____
ROOT
ATOM      1  O   UNL     1      -1.195  -2.077   0.004  0.00  0.00    -0.460 OA
ENDROOT
BRANCH   1   9
ATOM      2  C   UNL     1       1.291  -0.697  -0.015  0.00  0.00    -0.027 A 
ATOM      3  C   UNL     1       2.423   0.054  -0.022  0.00  0.00    +0.096 A 
ATOM      4  C   UNL     1       2.331   1.461  -0.013  0.00  0.00    +0.337 A 
ATOM      5  O   UNL     1       3.354   2.122  -0.020  0.00  0.00    -0.245 OA
ATOM      6  O   UNL     1       1.145   2.090   0.002  0.00  0.00    -0.422 OA
ATOM      7  C   UNL     1      -0.017   1.402   0.010  0.00  0.00    +0.143 A 
ATOM      8  C   UNL     1       0.002  -0.004   0.002  0.00  0.00    +0.062 A 
ATOM      9  C   UNL     1      -1.205  -0.720   0.011  0.00  0.00    +0.135 A 
ATOM     10  C   UNL     1      -2.405  -0.031   0.027  0.00  0.00    +0.050 A 
ATOM     11  C   UNL     1      -2.415   1.353   0.034  0.00  0.00    -0.043 A 
ATOM     12  C   UNL     1      -1.234   2.068   0.031  0.00  0.00    +0.050 A 
ATOM     13  C   UNL     1      -3.731   2.088   0.051  0.00  0.00    +0.044 C 
BRANCH   2  15
ATOM     14  C   UNL     1       1.244  -2.711  -1.461  0.00  0.00    +0.009 C 
ATOM     15  C   UNL     1       1.360  -2.203  -0.023  0.00  0.00    +0.033 C 
ENDBRANCH   2  15
ENDBRANCH   1   9
BRANCH   1  16
ATOM     16  C   UNL     1      -2.464  -2.735   0.013  0.00  0.00    +0.339 C 
ATOM     17  C   UNL     1      -2.256  -4.246  -0.122  0.00  0.00    +0.214 C 
ATOM     18  C   UNL     1      -3.616  -4.948  -0.050  0.00  0.00    +0.180 C 
ATOM     19  C   UNL     1      -4.304  -4.571   1.265  0.00  0.00    +0.177 C 
ATOM     20  C   UNL     1      -4.433  -3.048   1.346  0.00  0.00    +0.179 C 
ATOM     21  O   UNL     1      -3.136  -2.456   1.243  0.00  0.00    -0.331 OA
BRANCH  19  22
ATOM     22  O   UNL     1      -5.604  -5.163   1.310  0.00  0.00    -0.386 OA
ATOM     23  H   UNL     1      -5.599  -6.129   1.258  0.00  0.00    +0.210 HD
ENDBRANCH  19  22
BRANCH  18  24
ATOM     24  O   UNL     1      -3.426  -6.364  -0.104  0.00  0.00    -0.386 OA
ATOM     25  H   UNL     1      -2.988  -6.672  -0.909  0.00  0.00    +0.210 HD
ENDBRANCH  18  24
BRANCH  17  26
ATOM     26  O   UNL     1      -1.636  -4.532  -1.377  0.00  0.00    -0.383 OA
ATOM     27  H   UNL     1      -0.772  -4.115  -1.493  0.00  0.00    +0.210 HD
ENDBRANCH  17  26
BRANCH  20  28
ATOM     28  C   UNL     1      -5.066  -2.660   2.684  0.00  0.00    +0.190 C 
BRANCH  28  29
ATOM     29  O   UNL     1      -5.292  -1.249   2.712  0.00  0.00    -0.392 OA
ATOM     30  H   UNL     1      -5.693  -0.932   3.533  0.00  0.00    +0.210 HD
ENDBRANCH  28  29
ENDBRANCH  20  28
ENDBRANCH   1  16
TORSDOF 8
