REMARK  Name = ZINC16157662
REMARK  8 active torsions:
REMARK  status: ('A' for Active; 'I' for Inactive)
REMARK    1  A    between atoms: C_4  and  C_7
REMARK    2  A    between atoms: C_7  and  C_8
REMARK    3  A    between atoms: C_7  and  C_14
REMARK    4  A    between atoms: C_7  and  O_33
REMARK    5  A    between atoms: N_16  and  N_17
REMARK    6  A    between atoms: C_18  and  C_19
REMARK    7  A    between atoms: C_23  and  N_30
REMARK    8  A    between atoms: C_28  and  O_29
REMARK                            x       y       z     vdW  Elec       q    Type
REMARK                         _______ _______ _______ _____ _____    ______ ____
ROOT
ATOM      1  C   UNL     1       4.324  -1.025  -1.377  0.00  0.00    +0.273 C 
ATOM      2  O   UNL     1       4.221  -2.141  -1.841  0.00  0.00    -0.270 OA
ATOM      3  N   UNL     1       4.986  -0.070  -2.059  0.00  0.00    -0.204 N 
ATOM      4  H   UNL     1       5.068   0.823  -1.688  0.00  0.00    +0.177 HD
ENDROOT
BRANCH   3   5
ATOM      5  N   UNL     1       5.556  -0.365  -3.305  0.00  0.00    -0.187 NA
ATOM      6  C   UNL     1       6.194   0.556  -3.962  0.00  0.00    +0.142 C 
BRANCH   6   7
ATOM      7  C   UNL     1       6.792   0.246  -5.269  0.00  0.00    +0.044 A 
ATOM      8  C   UNL     1       7.518   1.269  -6.019  0.00  0.00    -0.006 A 
ATOM      9  C   UNL     1       7.669   2.569  -5.524  0.00  0.00    +0.011 A 
ATOM     10  C   UNL     1       8.355   3.493  -6.255  0.00  0.00    +0.033 A 
ATOM     11  C   UNL     1       8.906   3.162  -7.490  0.00  0.00    +0.127 A 
ATOM     12  C   UNL     1       8.778   1.907  -8.002  0.00  0.00    +0.041 A 
ATOM     13  C   UNL     1       8.078   0.928  -7.275  0.00  0.00    -0.015 A 
ATOM     14  C   UNL     1       7.926  -0.379  -7.770  0.00  0.00    +0.012 A 
ATOM     15  C   UNL     1       7.247  -1.317  -7.059  0.00  0.00    +0.046 A 
ATOM     16  C   UNL     1       6.683  -1.032  -5.817  0.00  0.00    +0.126 A 
BRANCH  11  17
ATOM     17  N   UNL     1       9.644   4.190  -8.258  0.00  0.00    +0.056 N 
ATOM     18  O   UNL     1       9.764   5.308  -7.813  0.00  0.00    -0.126 OA
ATOM     19  O   UNL     1      10.127   3.912  -9.332  0.00  0.00    -0.126 OA
ENDBRANCH  11  17
BRANCH  16  20
ATOM     20  O   UNL     1       6.019  -2.002  -5.138  0.00  0.00    -0.506 OA
ATOM     21  H   UNL     1       5.074  -2.048  -5.341  0.00  0.00    +0.292 HD
ENDBRANCH  16  20
ENDBRANCH   6   7
ENDBRANCH   3   5
BRANCH   1  22
ATOM     22  C   UNL     1       3.711  -0.707  -0.038  0.00  0.00    +0.194 C 
BRANCH  22  26
ATOM     23  C   UNL     1      -0.165   0.994  -0.614  0.00  0.00    +0.000 A 
ATOM     24  C   UNL     1       0.674   1.499   0.362  0.00  0.00    +0.000 A 
ATOM     25  C   UNL     1       1.928   0.949   0.549  0.00  0.00    +0.007 A 
ATOM     26  C   UNL     1       2.344  -0.107  -0.240  0.00  0.00    -0.003 A 
ATOM     27  C   UNL     1       1.505  -0.613  -1.216  0.00  0.00    +0.007 A 
ATOM     28  C   UNL     1       0.251  -0.061  -1.404  0.00  0.00    +0.000 A 
ENDBRANCH  22  26
BRANCH  22  29
ATOM     29  C   UNL     1       3.590  -1.972   0.772  0.00  0.00    -0.003 A 
ATOM     30  C   UNL     1       4.326  -2.123   1.933  0.00  0.00    +0.007 A 
ATOM     31  C   UNL     1       4.215  -3.284   2.676  0.00  0.00    +0.000 A 
ATOM     32  C   UNL     1       3.367  -4.293   2.259  0.00  0.00    +0.000 A 
ATOM     33  C   UNL     1       2.631  -4.141   1.099  0.00  0.00    +0.000 A 
ATOM     34  C   UNL     1       2.739  -2.979   0.358  0.00  0.00    +0.007 A 
ENDBRANCH  22  29
BRANCH  22  35
ATOM     35  O   UNL     1       4.542   0.225   0.657  0.00  0.00    -0.371 OA
ATOM     36  H   UNL     1       5.439  -0.095   0.822  0.00  0.00    +0.212 HD
ENDBRANCH  22  35
ENDBRANCH   1  22
TORSDOF 8
