REMARK  Name = ZINC22241483
REMARK  6 active torsions:
REMARK  status: ('A' for Active; 'I' for Inactive)
REMARK    1  A    between atoms: C_1  and  C_2
REMARK    2  A    between atoms: C_2  and  C_18
REMARK    3  A    between atoms: N_5  and  C_9
REMARK    4  A    between atoms: C_9  and  C_10
REMARK    5  A    between atoms: C_14  and  C_16
REMARK    6  A    between atoms: C_16  and  N_17
REMARK                            x       y       z     vdW  Elec       q    Type
REMARK                         _______ _______ _______ _____ _____    ______ ____
ROOT
ATOM      1  C   UNL     1       2.076   5.057  -4.548  0.00  0.00    +0.050 C 
ATOM      2  C   UNL     1       3.141   5.124  -3.452  0.00  0.00    +0.168 C 
ATOM      3  C   UNL     1       2.496   5.284  -2.090  0.00  0.00    +0.254 C 
ATOM      4  O   UNL     1       1.801   6.203  -1.713  0.00  0.00    -0.272 OA
ATOM      5  N   UNL     1       2.857   4.194  -1.385  0.00  0.00    -0.219 N 
ATOM      6  C   UNL     1       3.636   3.377  -2.103  0.00  0.00    +0.310 C 
ATOM      7  O   UNL     1       4.090   2.332  -1.681  0.00  0.00    -0.252 OA
ATOM      8  N   UNL     1       3.858   3.841  -3.347  0.00  0.00    -0.279 N 
ATOM      9  H   UNL     1       4.428   3.457  -4.206  0.00  0.00    +0.152 HD
ENDROOT
BRANCH   2  10
ATOM     10  C   UNL     1       4.107   6.250  -3.717  0.00  0.00    +0.137 A 
ATOM     11  C   UNL     1       5.218   6.172  -4.471  0.00  0.00    +0.047 A 
ATOM     12  C   UNL     1       5.818   7.452  -4.450  0.00  0.00    +0.041 A 
ATOM     13  C   UNL     1       5.042   8.234  -3.678  0.00  0.00    +0.195 A 
ATOM     14  O   UNL     1       4.007   7.500  -3.237  0.00  0.00    -0.465 OA
ENDBRANCH   2  10
BRANCH   5  15
ATOM     15  C   UNL     1       2.451   3.937  -0.001  0.00  0.00    +0.153 C 
BRANCH  15  16
ATOM     16  C   UNL     1       1.156   3.166   0.008  0.00  0.00    -0.029 A 
ATOM     17  C   UNL     1       1.175   1.783   0.000  0.00  0.00    +0.005 A 
ATOM     18  C   UNL     1      -0.013   1.076   0.008  0.00  0.00    +0.001 A 
ATOM     19  C   UNL     1      -1.219   1.751   0.017  0.00  0.00    +0.002 A 
ATOM     20  C   UNL     1      -1.238   3.133   0.030  0.00  0.00    -0.065 A 
ATOM     21  C   UNL     1      -0.050   3.840   0.022  0.00  0.00    +0.007 A 
BRANCH  20  22
ATOM     22  C   UNL     1      -2.553   3.868   0.045  0.00  0.00    -0.051 C 
BRANCH  22  23
ATOM     23  N   UNL     1      -2.993   4.114  -1.335  0.00  0.00    +0.381 N 
ATOM     24  H   UNL     1      -3.953   4.651  -1.323  0.00  0.00    -0.090 HD
ATOM     25  H   UNL     1      -3.116   3.154  -1.857  0.00  0.00    -0.090 HD
ATOM     26  H   UNL     1      -2.239   4.721  -1.857  0.00  0.00    -0.090 HD
ENDBRANCH  22  23
ENDBRANCH  20  22
ENDBRANCH  15  16
ENDBRANCH   5  15
TORSDOF 5
