REMARK  Name = ZINC67080788
REMARK  5 active torsions:
REMARK  status: ('A' for Active; 'I' for Inactive)
REMARK    1  A    between atoms: C_1  and  C_2
REMARK    2  A    between atoms: C_2  and  C_3
REMARK    3  A    between atoms: C_3  and  C_5
REMARK    4  A    between atoms: C_3  and  N_15
REMARK    5  A    between atoms: N_18  and  C_19
REMARK                            x       y       z     vdW  Elec       q    Type
REMARK                         _______ _______ _______ _____ _____    ______ ____
ROOT
ATOM      1  N   UNL     1      -2.001  -0.127   1.308  0.00  0.00    -0.290 N 
ATOM      2  C   UNL     1      -2.583   1.082   1.435  0.00  0.00    +0.301 C 
ATOM      3  O   UNL     1      -2.497   1.896   0.536  0.00  0.00    -0.253 OA
ATOM      4  N   UNL     1      -3.260   1.389   2.559  0.00  0.00    -0.292 N 
ATOM      5  H   UNL     1      -2.069  -0.776   2.026  0.00  0.00    +0.151 HD
ATOM      6  H   UNL     1      -3.329   0.740   3.277  0.00  0.00    +0.151 HD
ENDROOT
BRANCH   4   7
ATOM      7  C   UNL     1      -3.893   2.703   2.698  0.00  0.00    +0.108 C 
ATOM      8  C   UNL     1      -2.876   3.708   3.238  0.00  0.00    +0.030 C 
ATOM      9  C   UNL     1      -1.945   3.048   4.245  0.00  0.00    +0.043 C 
ATOM     10  C   UNL     1      -2.637   2.639   5.528  0.00  0.00    +0.229 C 
ATOM     11  O   UNL     1      -3.605   1.613   5.279  0.00  0.00    -0.492 OA
ATOM     12  C   UNL     1      -4.842   2.047   4.916  0.00  0.00    +0.125 A 
ATOM     13  C   UNL     1      -5.053   2.609   3.671  0.00  0.00    +0.014 A 
ATOM     14  C   UNL     1      -6.299   3.080   3.310  0.00  0.00    +0.009 A 
ATOM     15  C   UNL     1      -7.355   2.969   4.197  0.00  0.00    +0.001 A 
ATOM     16  C   UNL     1      -7.160   2.389   5.437  0.00  0.00    +0.004 A 
ATOM     17  C   UNL     1      -5.902   1.928   5.806  0.00  0.00    +0.046 A 
ENDBRANCH   4   7
BRANCH   1  18
ATOM     18  C   UNL     1      -1.264  -0.460   0.086  0.00  0.00    +0.140 C 
BRANCH  18  19
ATOM     19  C   UNL     1      -1.247  -1.956  -0.097  0.00  0.00    +0.129 A 
ATOM     20  N   UNL     1      -1.912  -2.845   0.688  0.00  0.00    -0.340 N 
ATOM     21  H   UNL     1      -2.472  -2.632   1.451  0.00  0.00    +0.167 HD
ATOM     22  C   UNL     1      -1.644  -4.107   0.197  0.00  0.00    +0.066 A 
ATOM     23  C   UNL     1      -2.027  -5.390   0.567  0.00  0.00    +0.028 A 
ATOM     24  C   UNL     1      -1.570  -6.473  -0.154  0.00  0.00    +0.002 A 
ATOM     25  C   UNL     1      -0.731  -6.289  -1.244  0.00  0.00    +0.002 A 
ATOM     26  C   UNL     1      -0.344  -5.034  -1.622  0.00  0.00    +0.030 A 
ATOM     27  C   UNL     1      -0.795  -3.922  -0.907  0.00  0.00    +0.089 A 
ATOM     28  N   UNL     1      -0.598  -2.584  -1.034  0.00  0.00    -0.231 NA
ENDBRANCH  18  19
BRANCH  18  30
ATOM     29  C   UNL     1       0.160   1.585   0.260  0.00  0.00    +0.006 C 
ATOM     30  C   UNL     1       0.171   0.057   0.199  0.00  0.00    +0.027 C 
ENDBRANCH  18  30
ENDBRANCH   1  18
TORSDOF 4
