REMARK  Name = ZINC20906281
REMARK  7 active torsions:
REMARK  status: ('A' for Active; 'I' for Inactive)
REMARK    1  A    between atoms: C_1  and  C_2
REMARK    2  A    between atoms: C_7  and  C_8
REMARK    3  A    between atoms: C_8  and  S_9
REMARK    4  A    between atoms: S_9  and  C_10
REMARK    5  A    between atoms: N_16  and  N_17
REMARK    6  A    between atoms: C_18  and  C_19
REMARK    7  A    between atoms: C_23  and  O_25
REMARK                            x       y       z     vdW  Elec       q    Type
REMARK                         _______ _______ _______ _____ _____    ______ ____
ROOT
ATOM      1  C   UNL     1      -1.513   1.192   4.568  0.00  0.00    +0.191 A 
ATOM      2  N   UNL     1      -2.535   1.622   5.366  0.00  0.00    -0.303 N 
ATOM      3  H   UNL     1      -3.482   1.501   5.194  0.00  0.00    +0.171 HD
ATOM      4  C   UNL     1      -1.989   2.251   6.450  0.00  0.00    +0.235 A 
ATOM      5  N   UNL     1      -0.684   2.212   6.326  0.00  0.00    -0.111 NA
ATOM      6  N   UNL     1      -0.382   1.537   5.136  0.00  0.00    -0.121 NA
ATOM      7  N   UNL     1      -2.692   2.830   7.497  0.00  0.00    -0.205 N 
ATOM      8  H   UNL     1      -3.662   2.808   7.500  0.00  0.00    +0.177 HD
ENDROOT
BRANCH   7   9
ATOM      9  N   UNL     1      -2.001   3.445   8.549  0.00  0.00    -0.188 NA
ATOM     10  C   UNL     1      -2.659   3.987   9.529  0.00  0.00    +0.138 C 
BRANCH  10  11
ATOM     11  C   UNL     1      -1.932   4.634  10.636  0.00  0.00    -0.002 A 
ATOM     12  C   UNL     1      -0.535   4.672  10.631  0.00  0.00    +0.010 A 
ATOM     13  C   UNL     1       0.142   5.278  11.669  0.00  0.00    +0.004 A 
ATOM     14  C   UNL     1      -0.558   5.850  12.716  0.00  0.00    +0.045 A 
ATOM     15  C   UNL     1      -1.946   5.818  12.730  0.00  0.00    +0.117 A 
ATOM     16  C   UNL     1      -2.636   5.217  11.691  0.00  0.00    +0.054 A 
BRANCH  15  17
ATOM     17  O   UNL     1      -2.628   6.381  13.763  0.00  0.00    -0.507 OA
ATOM     18  H   UNL     1      -2.848   7.313  13.627  0.00  0.00    +0.292 HD
ENDBRANCH  15  17
ENDBRANCH  10  11
ENDBRANCH   7   9
BRANCH   1  19
ATOM     19  S   UNL     1      -1.684   0.321   3.046  0.00  0.00    -0.081 S 
BRANCH  19  20
ATOM     20  C   UNL     1       0.025   0.045   2.504  0.00  0.00    +0.112 C 
BRANCH  20  27
ATOM     21  C   UNL     1      -0.018   1.503   0.010  0.00  0.00    +0.044 C 
ATOM     22  C   UNL     1       0.002  -0.004   0.002  0.00  0.00    -0.046 A 
ATOM     23  C   UNL     1       0.006  -0.689  -1.199  0.00  0.00    +0.003 A 
ATOM     24  C   UNL     1       0.025  -2.071  -1.207  0.00  0.00    +0.000 A 
ATOM     25  C   UNL     1       0.040  -2.768  -0.013  0.00  0.00    +0.000 A 
ATOM     26  C   UNL     1       0.037  -2.084   1.188  0.00  0.00    +0.005 A 
ATOM     27  C   UNL     1       0.023  -0.702   1.195  0.00  0.00    -0.034 A 
ENDBRANCH  20  27
ENDBRANCH  19  20
ENDBRANCH   1  19
TORSDOF 6
