REMARK  Name = ZINC64015328
REMARK  7 active torsions:
REMARK  status: ('A' for Active; 'I' for Inactive)
REMARK    1  A    between atoms: C_1  and  C_2
REMARK    2  A    between atoms: C_2  and  O_3
REMARK    3  A    between atoms: O_3  and  C_4
REMARK    4  A    between atoms: C_7  and  C_10
REMARK    5  A    between atoms: C_25  and  C_27
REMARK    6  A    between atoms: C_27  and  C_28
REMARK    7  A    between atoms: C_28  and  N_29
REMARK                            x       y       z     vdW  Elec       q    Type
REMARK                         _______ _______ _______ _____ _____    ______ ____
ROOT
ATOM      1  C   UNL     1       1.099  -6.038  -1.868  0.00  0.00    +0.133 C 
ATOM      2  C   UNL     1      -0.021  -6.558  -2.775  0.00  0.00    +0.131 C 
ATOM      3  C   UNL     1       0.334  -7.998  -3.123  0.00  0.00    -0.035 C 
ATOM      4  C   UNL     1      -0.702  -8.740  -2.752  0.00  0.00    -0.001 A 
ATOM      5  C   UNL     1      -0.976 -10.180  -2.891  0.00  0.00    +0.010 A 
ATOM      6  C   UNL     1      -2.156 -10.618  -2.378  0.00  0.00    +0.001 A 
ATOM      7  C   UNL     1      -3.080  -9.778  -1.749  0.00  0.00    +0.002 A 
ATOM      8  C   UNL     1      -2.913  -8.442  -1.581  0.00  0.00    +0.026 A 
ATOM      9  C   UNL     1      -1.711  -7.863  -2.084  0.00  0.00    +0.043 A 
ATOM     10  N   UNL     1      -1.308  -6.604  -2.079  0.00  0.00    -0.375 N 
ATOM     11  C   UNL     1       1.674  -8.385  -3.700  0.00  0.00    +0.052 C 
ATOM     12  C   UNL     1       2.746  -7.755  -2.792  0.00  0.00    +0.113 C 
ATOM     13  N   UNL     1       2.385  -6.363  -2.505  0.00  0.00    -0.292 N 
ATOM     14  C   UNL     1       3.238  -5.372  -2.830  0.00  0.00    +0.218 C 
ATOM     15  O   UNL     1       2.996  -4.230  -2.499  0.00  0.00    -0.276 OA
ATOM     16  H   UNL     1      -1.768  -5.846  -1.686  0.00  0.00    +0.160 HD
ENDROOT
BRANCH   1  20
ATOM     17  C   UNL     1       0.742  -1.804  -1.410  0.00  0.00    +0.121 A 
ATOM     18  C   UNL     1       1.199  -2.581  -0.356  0.00  0.00    +0.046 A 
ATOM     19  C   UNL     1       1.313  -3.949  -0.506  0.00  0.00    +0.009 A 
ATOM     20  C   UNL     1       0.973  -4.545  -1.707  0.00  0.00    -0.025 A 
ATOM     21  C   UNL     1       0.518  -3.773  -2.759  0.00  0.00    +0.009 A 
ATOM     22  C   UNL     1       0.396  -2.405  -2.612  0.00  0.00    +0.046 A 
BRANCH  17  23
ATOM     23  O   UNL     1       0.628  -0.458  -1.265  0.00  0.00    -0.492 OA
BRANCH  23  25
ATOM     24  C   UNL     1       0.808   1.609  -0.026  0.00  0.00    +0.048 C 
ATOM     25  C   UNL     1       1.002   0.092  -0.000  0.00  0.00    +0.225 C 
ENDBRANCH  23  25
ENDBRANCH  17  23
ENDBRANCH   1  20
BRANCH  14  26
ATOM     26  C   UNL     1       4.494  -5.682  -3.603  0.00  0.00    +0.119 C 
BRANCH  26  27
ATOM     27  C   UNL     1       5.280  -4.390  -3.839  0.00  0.00    +0.152 C 
BRANCH  27  28
ATOM     28  N   UNL     1       6.500  -4.692  -4.591  0.00  0.00    -0.271 N 
ATOM     29  C   UNL     1       6.880  -4.117  -5.752  0.00  0.00    +0.108 A 
ATOM     30  C   UNL     1       8.060  -4.668  -6.118  0.00  0.00    +0.041 A 
ATOM     31  C   UNL     1       8.413  -5.613  -5.149  0.00  0.00    +0.134 A 
ATOM     32  N   UNL     1       7.482  -5.623  -4.230  0.00  0.00    -0.180 NA
ENDBRANCH  27  28
ENDBRANCH  26  27
ENDBRANCH  14  26
TORSDOF 6
