REMARK  Name = ZINC40330439
REMARK  4 active torsions:
REMARK  status: ('A' for Active; 'I' for Inactive)
REMARK    1  A    between atoms: C_1  and  C_2
REMARK    2  A    between atoms: C_6  and  C_20
REMARK    3  A    between atoms: C_10  and  C_12
REMARK    4  A    between atoms: C_17  and  N_18
REMARK                            x       y       z     vdW  Elec       q    Type
REMARK                         _______ _______ _______ _____ _____    ______ ____
ROOT
ATOM      1  C   UNL     1      -0.034   1.530   0.023  0.00  0.00    +0.028 C 
ATOM      2  C   UNL     1      -0.009   0.001   0.011  0.00  0.00    +0.073 C 
ATOM      3  C   UNL     1       0.596  -0.493  -1.307  0.00  0.00    +0.023 C 
ATOM      4  C   UNL     1       0.746  -2.015  -1.256  0.00  0.00    +0.016 C 
ATOM      5  C   UNL     1       1.693  -2.398  -0.117  0.00  0.00    +0.092 C 
ATOM      6  C   UNL     1       1.100  -1.927   1.215  0.00  0.00    +0.121 C 
ATOM      7  N   UNL     1       0.815  -0.488   1.125  0.00  0.00    -0.294 N 
ATOM      8  C   UNL     1       1.302   0.368   2.045  0.00  0.00    +0.249 C 
ATOM      9  O   UNL     1       0.992   1.543   2.007  0.00  0.00    -0.270 OA
ENDROOT
BRANCH   8  10
ATOM     10  C   UNL     1       2.211  -0.121   3.098  0.00  0.00    +0.059 A 
ATOM     11  C   UNL     1       1.825  -1.180   3.924  0.00  0.00    +0.035 A 
ATOM     12  C   UNL     1       2.680  -1.632   4.906  0.00  0.00    +0.042 A 
ATOM     13  C   UNL     1       3.923  -1.041   5.080  0.00  0.00    +0.022 A 
ATOM     14  C   UNL     1       4.317   0.006   4.273  0.00  0.00    +0.025 A 
ATOM     15  C   UNL     1       3.471   0.471   3.273  0.00  0.00    +0.037 A 
ATOM     16 CL   UNL     1       2.199  -2.948   5.931  0.00  0.00    -0.084 Cl
BRANCH  15  17
ATOM     17  N   UNL     1       3.869   1.521   2.455  0.00  0.00    -0.357 N 
ATOM     18  H   UNL     1       3.308   1.798   1.714  0.00  0.00    +0.142 HD
ATOM     19  H   UNL     1       4.708   1.978   2.625  0.00  0.00    +0.142 HD
ENDBRANCH  15  17
ENDBRANCH   8  10
BRANCH   5  20
ATOM     20  C   UNL     1       1.866  -3.895  -0.089  0.00  0.00    +0.215 C 
ATOM     21  O   UNL     1       1.289  -4.588  -0.900  0.00  0.00    -0.276 OA
ATOM     22  N   UNL     1       2.662  -4.464   0.838  0.00  0.00    -0.329 N 
ATOM     23  H   UNL     1       3.123  -3.910   1.488  0.00  0.00    +0.145 HD
ATOM     24  H   UNL     1       2.773  -5.428   0.857  0.00  0.00    +0.145 HD
ENDBRANCH   5  20
TORSDOF 3
