REMARK  Name = ZINC09292965
REMARK  12 active torsions:
REMARK  status: ('A' for Active; 'I' for Inactive)
REMARK    1  A    between atoms: C_1  and  C_2
REMARK    2  A    between atoms: C_2  and  O_3
REMARK    3  A    between atoms: O_3  and  C_4
REMARK    4  A    between atoms: C_7  and  C_12
REMARK    5  A    between atoms: C_9  and  O_10
REMARK    6  A    between atoms: O_10  and  C_11
REMARK    7  A    between atoms: C_19  and  N_34
REMARK    8  A    between atoms: C_20  and  C_32
REMARK    9  A    between atoms: C_21  and  C_23
REMARK   10  A    between atoms: C_26  and  C_29
REMARK   11  A    between atoms: C_29  and  C_30
REMARK   12  A    between atoms: C_29  and  C_31
REMARK                            x       y       z     vdW  Elec       q    Type
REMARK                         _______ _______ _______ _____ _____    ______ ____
ROOT
ATOM      1  C   UNL     1       1.106  -6.025  -1.841  0.00  0.00    +0.100 A 
ATOM      2  C   UNL     1       1.274  -6.964  -0.818  0.00  0.00    +0.054 A 
ATOM      3  C   UNL     1       1.333  -8.203  -1.388  0.00  0.00    +0.223 A 
ATOM      4  N   UNL     1       1.210  -8.047  -2.722  0.00  0.00    -0.246 N 
ATOM      5  H   UNL     1       1.217  -8.758  -3.382  0.00  0.00    +0.192 HD
ATOM      6  N   UNL     1       1.062  -6.677  -2.987  0.00  0.00    -0.171 NA
ATOM      7  O   UNL     1       1.490  -9.337  -0.660  0.00  0.00    -0.423 OA
ATOM      8  C   UNL     1       1.313  -9.252   0.674  0.00  0.00    +0.200 C 
ATOM      9  C   UNL     1       1.250  -8.084   1.352  0.00  0.00    +0.098 C 
ATOM     10  C   UNL     1       1.380  -6.745   0.669  0.00  0.00    +0.102 C 
ENDROOT
BRANCH   1  14
ATOM     11  C   UNL     1       0.777  -1.811  -1.336  0.00  0.00    +0.162 A 
ATOM     12  C   UNL     1       0.242  -2.667  -0.386  0.00  0.00    +0.050 A 
ATOM     13  C   UNL     1       0.348  -4.034  -0.547  0.00  0.00    +0.014 A 
ATOM     14  C   UNL     1       0.992  -4.556  -1.667  0.00  0.00    +0.006 A 
ATOM     15  C   UNL     1       1.530  -3.696  -2.623  0.00  0.00    +0.059 A 
ATOM     16  C   UNL     1       1.417  -2.327  -2.460  0.00  0.00    +0.162 A 
BRANCH  16  17
ATOM     17  O   UNL     1       1.936  -1.486  -3.394  0.00  0.00    -0.491 OA
ATOM     18  C   UNL     1       2.578  -2.085  -4.521  0.00  0.00    +0.277 C 
ENDBRANCH  16  17
BRANCH  11  19
ATOM     19  O   UNL     1       0.671  -0.465  -1.174  0.00  0.00    -0.489 OA
BRANCH  19  21
ATOM     20  C   UNL     1      -0.019   1.526   0.010  0.00  0.00    +0.048 C 
ATOM     21  C   UNL     1       0.002  -0.004   0.002  0.00  0.00    +0.226 C 
ENDBRANCH  19  21
ENDBRANCH  11  19
ENDBRANCH   1  14
BRANCH  10  22
ATOM     22  C   UNL     1       2.717  -6.134   0.999  0.00  0.00    -0.035 A 
ATOM     23  C   UNL     1       3.882  -6.803   0.674  0.00  0.00    +0.005 A 
ATOM     24  C   UNL     1       5.109  -6.242   0.977  0.00  0.00    +0.004 A 
ATOM     25  C   UNL     1       5.170  -5.011   1.603  0.00  0.00    -0.045 A 
ATOM     26  C   UNL     1       4.005  -4.341   1.927  0.00  0.00    +0.004 A 
ATOM     27  C   UNL     1       2.778  -4.901   1.620  0.00  0.00    +0.005 A 
BRANCH  25  28
ATOM     28  C   UNL     1       6.507  -4.400   1.934  0.00  0.00    +0.013 C 
ATOM     29  C   UNL     1       6.644  -3.054   1.218  0.00  0.00    +0.012 C 
ATOM     30  C   UNL     1       6.611  -4.186   3.445  0.00  0.00    +0.012 C 
ENDBRANCH  25  28
ENDBRANCH  10  22
BRANCH   8  31
ATOM     31  N   UNL     1       1.188 -10.419   1.385  0.00  0.00    -0.328 N 
ATOM     32  H   UNL     1       1.228 -11.273   0.927  0.00  0.00    +0.145 HD
ATOM     33  H   UNL     1       1.059 -10.391   2.346  0.00  0.00    +0.145 HD
ENDBRANCH   8  31
BRANCH   9  34
ATOM     34  C   UNL     1       1.054  -8.119   2.770  0.00  0.00    +0.101 C 
ATOM     35  N   UNL     1       0.898  -8.146   3.895  0.00  0.00    -0.191 NA
ENDBRANCH   9  34
TORSDOF 8
