REMARK  Name = ZINC39452383
REMARK  8 active torsions:
REMARK  status: ('A' for Active; 'I' for Inactive)
REMARK    1  A    between atoms: C_1  and  C_2
REMARK    2  A    between atoms: C_2  and  C_3
REMARK    3  A    between atoms: C_2  and  S_4
REMARK    4  A    between atoms: S_4  and  C_7
REMARK    5  A    between atoms: C_17  and  S_20
REMARK    6  A    between atoms: S_20  and  C_21
REMARK    7  A    between atoms: N_24  and  S_25
REMARK    8  A    between atoms: S_25  and  C_28
REMARK                            x       y       z     vdW  Elec       q    Type
REMARK                         _______ _______ _______ _____ _____    ______ ____
ROOT
ATOM      1  C   UNL     1       1.925  -0.022  -1.345  0.00  0.00    +0.222 C 
ATOM      2  C   UNL     1       2.809  -0.506  -2.499  0.00  0.00    +0.127 C 
ATOM      3  C   UNL     1       2.480   0.276  -3.743  0.00  0.00    +0.186 C 
ATOM      4  O   UNL     1       2.617  -0.243  -4.833  0.00  0.00    -0.290 OA
ATOM      5  C   UNL     1       2.014   1.605  -3.655  0.00  0.00    +0.134 A 
ATOM      6  C   UNL     1       1.800   2.179  -2.414  0.00  0.00    +0.084 A 
ATOM      7  C   UNL     1       1.323   3.563  -2.323  0.00  0.00    +0.099 A 
ATOM      8  C   UNL     1       1.085   4.268  -3.524  0.00  0.00    +0.069 A 
ATOM      9  C   UNL     1       0.630   5.583  -3.465  0.00  0.00    +0.031 A 
ATOM     10  C   UNL     1       0.430   6.148  -2.208  0.00  0.00    +0.026 A 
ATOM     11  C   UNL     1       0.687   5.388  -1.065  0.00  0.00    +0.126 A 
ATOM     12  N   UNL     1       1.115   4.149  -1.149  0.00  0.00    -0.252 NA
ATOM     13  C   UNL     1       1.326   3.589  -4.806  0.00  0.00    +0.281 A 
ATOM     14  O   UNL     1       1.125   4.178  -5.853  0.00  0.00    -0.265 OA
ATOM     15  N   UNL     1       1.768   2.319  -4.823  0.00  0.00    -0.170 N 
ATOM     16  N   UNL     1       2.032   1.443  -1.266  0.00  0.00    -0.319 N 
ATOM     17  H   UNL     1       2.259   1.882  -0.431  0.00  0.00    +0.148 HD
ENDROOT
BRANCH   1  18
ATOM     18  S   UNL     1       0.201  -0.494  -1.655  0.00  0.00    -0.010 S 
ATOM     19  O   UNL     1       0.109  -1.911  -1.616  0.00  0.00    -0.172 OA
ATOM     20  O   UNL     1      -0.253   0.197  -2.811  0.00  0.00    -0.172 OA
BRANCH  18  22
ATOM     21  C   UNL     1      -0.468   1.694  -0.155  0.00  0.00    +0.031 C 
ATOM     22  C   UNL     1      -0.665   0.177  -0.209  0.00  0.00    +0.126 C 
ATOM     23  C   UNL     1      -2.158  -0.140  -0.316  0.00  0.00    +0.031 C 
ENDBRANCH  18  22
ENDBRANCH   1  18
BRANCH  15  24
ATOM     24  S   UNL     1       2.028   1.581  -6.282  0.00  0.00    +0.087 S 
ATOM     25  O   UNL     1       1.916   2.592  -7.274  0.00  0.00    -0.148 OA
ATOM     26  O   UNL     1       3.197   0.786  -6.133  0.00  0.00    -0.148 OA
BRANCH  24  27
ATOM     27  C   UNL     1       0.691   0.464  -6.548  0.00  0.00    +0.111 A 
ATOM     28  C   UNL     1       0.780  -0.840  -6.098  0.00  0.00    +0.029 A 
ATOM     29  C   UNL     1      -0.269  -1.716  -6.306  0.00  0.00    +0.002 A 
ATOM     30  C   UNL     1      -1.407  -1.287  -6.963  0.00  0.00    +0.000 A 
ATOM     31  C   UNL     1      -1.496   0.017  -7.412  0.00  0.00    +0.002 A 
ATOM     32  C   UNL     1      -0.449   0.894  -7.200  0.00  0.00    +0.029 A 
ENDBRANCH  24  27
ENDBRANCH  15  24
BRANCH  10  33
ATOM     33  S   UNL     1      -0.143   7.808  -2.061  0.00  0.00    -0.127 S 
ATOM     34  C   UNL     1      -0.245   8.080  -0.271  0.00  0.00    +0.090 C 
ENDBRANCH  10  33
TORSDOF 5
