REMARK  Name = ZINC03672137
REMARK  5 active torsions:
REMARK  status: ('A' for Active; 'I' for Inactive)
REMARK    1  A    between atoms: C_4  and  C_7
REMARK    2  A    between atoms: N_8  and  N_9
REMARK    3  A    between atoms: C_10  and  C_12
REMARK    4  A    between atoms: C_12  and  N_13
REMARK    5  A    between atoms: C_20  and  C_25
REMARK                            x       y       z     vdW  Elec       q    Type
REMARK                         _______ _______ _______ _____ _____    ______ ____
ROOT
ATOM      1  N   UNL     1       3.920  -0.714  -0.016  0.00  0.00    -0.260 N 
ATOM      2  C   UNL     1       2.688  -0.103  -0.197  0.00  0.00    +0.046 A 
ATOM      3  C   UNL     1       1.581  -0.934  -0.381  0.00  0.00    +0.025 A 
ATOM      4  C   UNL     1       0.325  -0.401  -0.569  0.00  0.00    +0.017 A 
ATOM      5  C   UNL     1       0.148   0.974  -0.579  0.00  0.00    +0.019 A 
ATOM      6  C   UNL     1       1.228   1.808  -0.400  0.00  0.00    +0.027 A 
ATOM      7  C   UNL     1       2.513   1.279  -0.205  0.00  0.00    +0.023 A 
ATOM      8  C   UNL     1       3.621   2.229  -0.015  0.00  0.00    +0.075 C 
ATOM      9  N   UNL     1       4.582   2.080   0.827  0.00  0.00    -0.273 NA
ATOM     10  C   UNL     1       4.670   0.910   1.698  0.00  0.00    +0.238 C 
ATOM     11  C   UNL     1       4.851  -0.318   0.848  0.00  0.00    +0.242 C 
ATOM     12  O   UNL     1       5.872  -0.964   0.953  0.00  0.00    -0.273 OA
ATOM     13 BR   UNL     1      -1.575   1.704  -0.848  0.00  0.00    -0.050 Br
ENDROOT
BRANCH   8  14
ATOM     14  C   UNL     1       3.630   3.449  -0.857  0.00  0.00    +0.001 A 
ATOM     15  C   UNL     1       2.960   3.460  -2.080  0.00  0.00    +0.010 A 
ATOM     16  C   UNL     1       2.968   4.600  -2.857  0.00  0.00    +0.001 A 
ATOM     17  C   UNL     1       3.648   5.727  -2.430  0.00  0.00    +0.000 A 
ATOM     18  C   UNL     1       4.319   5.720  -1.220  0.00  0.00    +0.001 A 
ATOM     19  C   UNL     1       4.314   4.588  -0.432  0.00  0.00    +0.010 A 
ENDBRANCH   8  14
BRANCH   1  20
ATOM     20  C   UNL     1       4.219  -1.887  -0.841  0.00  0.00    +0.211 C 
BRANCH  20  22
ATOM     21  N   UNL     1       5.254  -2.361  -3.037  0.00  0.00    -0.206 N 
ATOM     22  C   UNL     1       4.886  -1.446  -2.119  0.00  0.00    +0.250 C 
ATOM     23  O   UNL     1       5.091  -0.268  -2.320  0.00  0.00    -0.272 OA
ATOM     24  H   UNL     1       5.090  -3.304  -2.876  0.00  0.00    +0.177 HD
BRANCH  21  26
ATOM     25  C   UNL     1       6.229  -2.832  -5.109  0.00  0.00    +0.138 C 
ATOM     26  N   UNL     1       5.874  -1.951  -4.225  0.00  0.00    -0.188 NA
BRANCH  25  30
ATOM     27  C   UNL     1       8.106  -1.590  -8.707  0.00  0.00    +0.000 A 
ATOM     28  C   UNL     1       7.874  -2.935  -8.480  0.00  0.00    +0.001 A 
ATOM     29  C   UNL     1       7.265  -3.346  -7.313  0.00  0.00    +0.009 A 
ATOM     30  C   UNL     1       6.881  -2.401  -6.359  0.00  0.00    -0.005 A 
ATOM     31  C   UNL     1       7.114  -1.044  -6.597  0.00  0.00    +0.009 A 
ATOM     32  C   UNL     1       7.730  -0.648  -7.766  0.00  0.00    +0.001 A 
ENDBRANCH  25  30
ENDBRANCH  21  26
ENDBRANCH  20  22
ENDBRANCH   1  20
TORSDOF 5
