REMARK  Name = ZINC23859226
REMARK  10 active torsions:
REMARK  status: ('A' for Active; 'I' for Inactive)
REMARK    1  A    between atoms: C_1  and  N_2
REMARK    2  A    between atoms: C_10  and  C_12
REMARK    3  A    between atoms: C_12  and  C_14
REMARK    4  A    between atoms: C_12  and  N_29
REMARK    5  A    between atoms: C_14  and  N_15
REMARK    6  A    between atoms: C_16  and  C_18
REMARK    7  A    between atoms: N_20  and  C_21
REMARK    8  A    between atoms: C_21  and  C_22
REMARK    9  A    between atoms: N_29  and  C_30
REMARK   10  A    between atoms: N_29  and  C_31
REMARK                            x       y       z     vdW  Elec       q    Type
REMARK                         _______ _______ _______ _____ _____    ______ ____
ROOT
ATOM      1  C   UNL     1      -1.905   1.199  -1.251  0.00  0.00    +0.094 C 
ENDROOT
BRANCH   1   2
ATOM      2  N   UNL     1      -2.466   2.138  -0.276  0.00  0.00    -0.309 N 
ATOM      3  C   UNL     1      -2.975   3.315  -0.691  0.00  0.00    +0.299 C 
ATOM      4  O   UNL     1      -2.969   3.597  -1.871  0.00  0.00    -0.265 OA
ATOM      5  H   UNL     1      -2.471   1.883   0.794  0.00  0.00    +0.149 HD
BRANCH   3   6
ATOM      6  C   UNL     1      -3.547   4.273   0.304  0.00  0.00    +0.299 C 
ATOM      7  O   UNL     1      -3.554   3.991   1.484  0.00  0.00    -0.265 OA
ATOM      8  N   UNL     1      -4.057   5.450  -0.111  0.00  0.00    -0.303 N 
ATOM      9  H   UNL     1      -4.051   5.705  -1.181  0.00  0.00    +0.149 HD
BRANCH   8  10
ATOM     10  C   UNL     1      -4.618   6.389   0.864  0.00  0.00    +0.140 C 
BRANCH  10  11
ATOM     11  C   UNL     1      -5.116   7.618   0.148  0.00  0.00    -0.030 A 
ATOM     12  C   UNL     1      -4.271   8.694  -0.048  0.00  0.00    +0.006 A 
ATOM     13  C   UNL     1      -4.725   9.819  -0.709  0.00  0.00    +0.020 A 
ATOM     14  C   UNL     1      -6.030   9.873  -1.166  0.00  0.00    +0.041 A 
ATOM     15  C   UNL     1      -6.878   8.798  -0.964  0.00  0.00    +0.020 A 
ATOM     16  C   UNL     1      -6.420   7.671  -0.308  0.00  0.00    +0.006 A 
ATOM     17 CL   UNL     1      -6.604  11.288  -1.991  0.00  0.00    -0.084 Cl
ENDBRANCH  10  11
ENDBRANCH   8  10
ENDBRANCH   3   6
ENDBRANCH   1   2
BRANCH   1  18
ATOM     18  C   UNL     1      -1.271   0.017  -0.514  0.00  0.00    -0.021 C 
BRANCH  18  28
ATOM     19  C   UNL     1       2.035  -3.933  -4.171  0.00  0.00    +0.129 C 
ATOM     20  N   UNL     1       0.581  -3.777  -4.306  0.00  0.00    -0.333 N 
ATOM     21  C   UNL     1      -0.092  -5.077  -4.268  0.00  0.00    +0.105 C 
ATOM     22  C   UNL     1      -1.605  -4.851  -4.385  0.00  0.00    +0.024 C 
ATOM     23  C   UNL     1      -2.079  -4.161  -3.104  0.00  0.00    +0.038 C 
ATOM     24  C   UNL     1      -1.161  -3.010  -2.778  0.00  0.00    -0.026 A 
ATOM     25  C   UNL     1       0.085  -2.876  -3.365  0.00  0.00    +0.033 A 
ATOM     26  C   UNL     1       0.895  -1.794  -3.015  0.00  0.00    +0.023 A 
ATOM     27  C   UNL     1       0.455  -0.861  -2.101  0.00  0.00    +0.004 A 
ATOM     28  C   UNL     1      -0.790  -1.000  -1.516  0.00  0.00    -0.059 A 
ATOM     29  C   UNL     1      -1.594  -2.070  -1.856  0.00  0.00    +0.007 A 
ENDBRANCH  18  28
BRANCH  18  30
ATOM     30  N   UNL     1      -0.134   0.492   0.286  0.00  0.00    +0.382 N 
ATOM     31  C   UNL     1       0.478   1.681  -0.322  0.00  0.00    -0.096 C 
ATOM     32  C   UNL     1      -0.541   0.760   1.672  0.00  0.00    -0.096 C 
ATOM     33  H   UNL     1       0.623  -0.306   0.305  0.00  0.00    -0.082 HD
ENDBRANCH  18  30
ENDBRANCH   1  18
TORSDOF 7
