REMARK  Name = ZINC64623222
REMARK  8 active torsions:
REMARK  status: ('A' for Active; 'I' for Inactive)
REMARK    1  A    between atoms: C_1  and  C_2
REMARK    2  A    between atoms: C_5  and  C_8
REMARK    3  A    between atoms: C_15  and  O_20
REMARK    4  A    between atoms: O_20  and  C_21
REMARK    5  A    between atoms: N_27  and  C_28
REMARK    6  A    between atoms: C_33  and  C_34
REMARK    7  A    between atoms: C_34  and  O_36
REMARK    8  A    between atoms: O_36  and  C_37
REMARK                            x       y       z     vdW  Elec       q    Type
REMARK                         _______ _______ _______ _____ _____    ______ ____
ROOT
ATOM      1  C   UNL     1       0.056  -4.278  -0.003  0.00  0.00    +0.134 C 
ATOM      2  C   UNL     1      -1.322  -4.829   0.380  0.00  0.00    +0.131 C 
ATOM      3  C   UNL     1      -1.503  -4.552   1.867  0.00  0.00    -0.035 C 
ATOM      4  C   UNL     1      -2.627  -3.856   1.985  0.00  0.00    +0.003 A 
ATOM      5  C   UNL     1      -3.356  -3.359   3.162  0.00  0.00    +0.055 A 
ATOM      6  C   UNL     1      -4.496  -2.654   2.922  0.00  0.00    +0.121 A 
ATOM      7  C   UNL     1      -4.995  -2.385   1.639  0.00  0.00    +0.047 A 
ATOM      8  C   UNL     1      -4.407  -2.798   0.488  0.00  0.00    +0.029 A 
ATOM      9  C   UNL     1      -3.167  -3.575   0.619  0.00  0.00    +0.043 A 
ATOM     10  N   UNL     1      -2.402  -4.120  -0.309  0.00  0.00    -0.375 N 
ATOM     11  C   UNL     1      -0.485  -4.972   2.900  0.00  0.00    +0.052 C 
ATOM     12  C   UNL     1       0.882  -4.464   2.405  0.00  0.00    +0.114 C 
ATOM     13  N   UNL     1       1.031  -4.777   0.979  0.00  0.00    -0.276 N 
ATOM     14  C   UNL     1       2.070  -5.529   0.565  0.00  0.00    +0.307 C 
ATOM     15  O   UNL     1       2.252  -5.712  -0.623  0.00  0.00    -0.252 OA
ATOM     16  N   UNL     1       2.908  -6.077   1.467  0.00  0.00    -0.269 N 
ATOM     17  H   UNL     1       2.725  -5.987   2.416  0.00  0.00    +0.156 HD
ATOM     18  H   UNL     1      -2.521  -4.064  -1.270  0.00  0.00    +0.160 HD
ENDROOT
BRANCH   1  23
ATOM     19  C   UNL     1      -0.052   1.499   0.106  0.00  0.00    +0.044 C 
ATOM     20  C   UNL     1      -0.024  -0.007   0.078  0.00  0.00    -0.050 A 
ATOM     21  C   UNL     1       0.256  -0.671  -1.102  0.00  0.00    +0.004 A 
ATOM     22  C   UNL     1       0.282  -2.053  -1.128  0.00  0.00    +0.006 A 
ATOM     23  C   UNL     1       0.028  -2.771   0.026  0.00  0.00    -0.025 A 
ATOM     24  C   UNL     1      -0.251  -2.107   1.206  0.00  0.00    +0.006 A 
ATOM     25  C   UNL     1      -0.273  -0.725   1.233  0.00  0.00    +0.004 A 
ENDBRANCH   1  23
BRANCH  16  26
ATOM     26  C   UNL     1       4.035  -6.772   1.038  0.00  0.00    +0.049 A 
ATOM     27  C   UNL     1       3.984  -7.540  -0.117  0.00  0.00    +0.024 A 
ATOM     28  C   UNL     1       5.103  -8.228  -0.541  0.00  0.00    +0.002 A 
ATOM     29  C   UNL     1       6.284  -8.159   0.181  0.00  0.00    +0.001 A 
ATOM     30  C   UNL     1       6.354  -7.402   1.330  0.00  0.00    +0.017 A 
ATOM     31  C   UNL     1       5.231  -6.695   1.768  0.00  0.00    +0.080 A 
BRANCH  31  32
ATOM     32  C   UNL     1       5.301  -5.878   2.993  0.00  0.00    +0.341 C 
ATOM     33  O   UNL     1       4.300  -5.337   3.420  0.00  0.00    -0.245 OA
BRANCH  32  34
ATOM     34  O   UNL     1       6.474  -5.731   3.639  0.00  0.00    -0.464 OA
ATOM     35  C   UNL     1       6.469  -4.925   4.819  0.00  0.00    +0.280 C 
ENDBRANCH  32  34
ENDBRANCH  31  32
ENDBRANCH  16  26
BRANCH   6  36
ATOM     36  O   UNL     1      -5.192  -2.182   3.990  0.00  0.00    -0.495 OA
ATOM     37  C   UNL     1      -6.384  -1.445   3.713  0.00  0.00    +0.277 C 
ENDBRANCH   6  36
TORSDOF 5
