REMARK  Name = ZINC34791844
REMARK  8 active torsions:
REMARK  status: ('A' for Active; 'I' for Inactive)
REMARK    1  A    between atoms: C_1  and  C_2
REMARK    2  A    between atoms: C_2  and  C_3
REMARK    3  A    between atoms: C_2  and  N_4
REMARK    4  A    between atoms: C_5  and  C_7
REMARK    5  A    between atoms: C_7  and  N_8
REMARK    6  A    between atoms: C_14  and  C_23
REMARK    7  A    between atoms: N_19  and  C_20
REMARK    8  A    between atoms: C_20  and  C_21
REMARK                            x       y       z     vdW  Elec       q    Type
REMARK                         _______ _______ _______ _____ _____    ______ ____
ROOT
ATOM      1  N   UNL     1      -2.739  -3.615  -0.695  0.00  0.00    -0.283 N 
ATOM      2  C   UNL     1      -3.008  -3.775  -2.131  0.00  0.00    +0.160 C 
ATOM      3  C   UNL     1      -3.095  -5.270  -2.346  0.00  0.00    +0.043 C 
ATOM      4  C   UNL     1      -2.892  -5.839  -1.141  0.00  0.00    +0.058 C 
ATOM      5  C   UNL     1      -2.675  -4.849  -0.161  0.00  0.00    +0.247 C 
ATOM      6  O   UNL     1      -2.461  -5.080   1.015  0.00  0.00    -0.270 OA
ATOM      7  C   UNL     1      -2.927  -7.352  -1.062  0.00  0.00    +0.143 C 
ATOM      8  N   UNL     1      -3.181  -8.080  -2.317  0.00  0.00    -0.288 N 
ATOM      9  C   UNL     1      -3.366  -7.368  -3.446  0.00  0.00    +0.307 C 
ATOM     10  O   UNL     1      -3.577  -7.960  -4.486  0.00  0.00    -0.252 OA
ATOM     11  N   UNL     1      -3.325  -6.029  -3.458  0.00  0.00    -0.253 N 
ATOM     12  H   UNL     1      -3.215  -9.049  -2.330  0.00  0.00    +0.151 HD
ENDROOT
BRANCH   7  13
ATOM     13  C   UNL     1      -3.997  -7.741  -0.074  0.00  0.00    -0.004 A 
ATOM     14  C   UNL     1      -4.971  -6.829   0.284  0.00  0.00    +0.007 A 
ATOM     15  C   UNL     1      -5.953  -7.186   1.190  0.00  0.00    +0.000 A 
ATOM     16  C   UNL     1      -5.960  -8.455   1.737  0.00  0.00    +0.001 A 
ATOM     17  C   UNL     1      -4.987  -9.368   1.379  0.00  0.00    +0.020 A 
ATOM     18  C   UNL     1      -4.008  -9.014   0.468  0.00  0.00    +0.046 A 
ATOM     19 CL   UNL     1      -2.788 -10.162   0.013  0.00  0.00    -0.083 Cl
ENDBRANCH   7  13
BRANCH   1  20
ATOM     20  C   UNL     1      -2.566  -2.349   0.021  0.00  0.00    +0.204 C 
BRANCH  20  22
ATOM     21  N   UNL     1      -0.713  -0.819   0.606  0.00  0.00    -0.312 N 
ATOM     22  C   UNL     1      -1.111  -1.957   0.004  0.00  0.00    +0.231 C 
ATOM     23  O   UNL     1      -0.298  -2.666  -0.551  0.00  0.00    -0.274 OA
ATOM     24  H   UNL     1      -1.362  -0.252   1.051  0.00  0.00    +0.149 HD
BRANCH  21  26
ATOM     25  C   UNL     1       0.823   1.079   0.747  0.00  0.00    +0.027 C 
ATOM     26  C   UNL     1       0.702  -0.438   0.590  0.00  0.00    +0.067 C 
ATOM     27  C   UNL     1       1.430  -1.130   1.743  0.00  0.00    +0.027 C 
ENDBRANCH  21  26
ENDBRANCH  20  22
ENDBRANCH   1  20
BRANCH  11  28
ATOM     28  C   UNL     1      -3.538  -5.342  -4.734  0.00  0.00    +0.141 C 
BRANCH  28  29
ATOM     29  C   UNL     1      -2.214  -5.151  -5.429  0.00  0.00    -0.015 C 
ATOM     30  C   UNL     1      -2.045  -5.593  -6.651  0.00  0.00    +0.005 C 
ENDBRANCH  28  29
ENDBRANCH  11  28
TORSDOF 6
