REMARK  Name = ZINC31164510
REMARK  14 active torsions:
REMARK  status: ('A' for Active; 'I' for Inactive)
REMARK    1  A    between atoms: C_1  and  C_2
REMARK    2  A    between atoms: C_3  and  C_4
REMARK    3  A    between atoms: C_3  and  C_5
REMARK    4  A    between atoms: C_5  and  O_7
REMARK    5  A    between atoms: O_7  and  C_8
REMARK    6  A    between atoms: C_11  and  C_34
REMARK    7  A    between atoms: C_17  and  C_33
REMARK    8  A    between atoms: C_24  and  C_28
REMARK    9  A    between atoms: C_28  and  O_29
REMARK   10  A    between atoms: O_29  and  C_30
REMARK   11  A    between atoms: C_30  and  C_32
REMARK   12  A    between atoms: C_34  and  O_35
REMARK   13  A    between atoms: O_35  and  C_36
REMARK   14  A    between atoms: C_36  and  C_38
REMARK                            x       y       z     vdW  Elec       q    Type
REMARK                         _______ _______ _______ _____ _____    ______ ____
ROOT
ATOM      1  C   UNL     1      -0.873  -0.380   3.011  0.00  0.00    +0.210 C 
ATOM      2  C   UNL     1      -0.612   0.877   3.803  0.00  0.00    +0.090 C 
ATOM      3  C   UNL     1       0.551   1.702   3.289  0.00  0.00    +0.137 C 
ATOM      4  C   UNL     1       1.628   1.197   2.341  0.00  0.00    +0.177 C 
ATOM      5  O   UNL     1       1.859   1.340   3.748  0.00  0.00    -0.357 OA
ATOM      6  C   UNL     1       1.752  -0.168   1.765  0.00  0.00    +0.006 C 
ATOM      7  C   UNL     1       1.122  -0.667   0.744  0.00  0.00    +0.008 C 
ATOM      8  C   UNL     1       0.002  -0.004   0.002  0.00  0.00    +0.115 C 
ATOM      9  C   UNL     1      -1.314  -0.793   0.138  0.00  0.00    +0.200 C 
ATOM     10  O   UNL     1      -0.690  -0.567  -1.112  0.00  0.00    -0.357 OA
ATOM     11  C   UNL     1      -2.410  -0.038   0.854  0.00  0.00    +0.239 C 
ATOM     12  C   UNL     1      -2.213  -0.360   2.328  0.00  0.00    +0.026 C 
ATOM     13  C   UNL     1      -3.419  -0.603   2.824  0.00  0.00    +0.080 C 
ATOM     14  C   UNL     1      -4.391  -0.627   1.723  0.00  0.00    +0.339 C 
ATOM     15  O   UNL     1      -5.592  -0.753   1.858  0.00  0.00    -0.245 OA
ATOM     16  O   UNL     1      -3.756  -0.488   0.536  0.00  0.00    -0.451 OA
ATOM     17  C   UNL     1      -0.019   1.528   0.010  0.00  0.00    +0.049 C 
ENDROOT
BRANCH   1  18
ATOM     18  O   UNL     1      -0.821  -1.520   3.908  0.00  0.00    -0.453 OA
BRANCH  18  19
ATOM     19  C   UNL     1      -0.413  -2.693   3.384  0.00  0.00    +0.335 C 
ATOM     20  O   UNL     1      -0.111  -2.761   2.209  0.00  0.00    -0.245 OA
BRANCH  19  23
ATOM     21  C   UNL     1       0.147  -6.276   4.586  0.00  0.00    +0.036 C 
ATOM     22  C   UNL     1       0.067  -5.048   3.715  0.00  0.00    -0.020 C 
ATOM     23  C   UNL     1      -0.335  -3.890   4.233  0.00  0.00    +0.029 C 
ATOM     24  C   UNL     1      -0.710  -3.806   5.690  0.00  0.00    +0.051 C 
ENDBRANCH  19  23
ENDBRANCH  18  19
ENDBRANCH   1  18
BRANCH  13  25
ATOM     25  C   UNL     1      -3.740  -0.822   4.280  0.00  0.00    +0.275 C 
BRANCH  25  26
ATOM     26  O   UNL     1      -2.521  -0.724   5.064  0.00  0.00    -0.460 OA
BRANCH  26  27
ATOM     27  C   UNL     1      -2.635  -0.896   6.390  0.00  0.00    +0.304 C 
ATOM     28  O   UNL     1      -3.716  -1.119   6.880  0.00  0.00    -0.251 OA
ATOM     29  C   UNL     1      -1.413  -0.809   7.268  0.00  0.00    +0.136 C 
ENDBRANCH  26  27
ENDBRANCH  25  26
ENDBRANCH  13  25
BRANCH   3  30
ATOM     30  C   UNL     1       0.267   3.222   3.253  0.00  0.00    +0.270 C 
BRANCH  30  31
ATOM     31  O   UNL     1      -0.779   3.541   4.208  0.00  0.00    -0.462 OA
BRANCH  31  32
ATOM     32  C   UNL     1      -1.147   4.828   4.301  0.00  0.00    +0.304 C 
ATOM     33  O   UNL     1      -0.613   5.661   3.608  0.00  0.00    -0.251 OA
ATOM     34  C   UNL     1      -2.227   5.235   5.271  0.00  0.00    +0.136 C 
ENDBRANCH  31  32
ENDBRANCH  30  31
ENDBRANCH   3  30
TORSDOF 9
