REMARK  Name = ZINC09741772
REMARK  11 active torsions:
REMARK  status: ('A' for Active; 'I' for Inactive)
REMARK    1  A    between atoms: C_1  and  C_2
REMARK    2  A    between atoms: C_3  and  C_32
REMARK    3  A    between atoms: N_4  and  C_26
REMARK    4  A    between atoms: C_5  and  N_9
REMARK    5  A    between atoms: C_6  and  C_7
REMARK    6  A    between atoms: C_10  and  C_12
REMARK    7  A    between atoms: C_12  and  N_63
REMARK    8  A    between atoms: C_13  and  N_63
REMARK    9  A    between atoms: C_14  and  C_16
REMARK   10  A    between atoms: C_14  and  C_17
REMARK   11  A    between atoms: C_14  and  N_63
REMARK                            x       y       z     vdW  Elec       q    Type
REMARK                         _______ _______ _______ _____ _____    ______ ____
ROOT
ATOM      1  N   UNL     1      -0.417   3.425   1.875  0.00  0.00    -0.272 N 
ATOM      2  C   UNL     1       0.796   3.988   1.709  0.00  0.00    +0.202 C 
ATOM      3  O   UNL     1       1.197   4.812   2.504  0.00  0.00    -0.278 OA
ATOM      4  H   UNL     1      -0.731   2.756   1.248  0.00  0.00    +0.156 HD
ENDROOT
BRANCH   1   9
ATOM      5  C   UNL     1      -3.151   6.118   5.164  0.00  0.00    +0.047 C 
ATOM      6  C   UNL     1      -2.458   4.989   4.446  0.00  0.00    -0.011 A 
ATOM      7  C   UNL     1      -2.464   3.692   4.796  0.00  0.00    +0.022 A 
ATOM      8  N   UNL     1      -1.724   2.976   3.894  0.00  0.00    -0.329 N 
ATOM      9  C   UNL     1      -1.216   3.803   2.944  0.00  0.00    +0.123 A 
ATOM     10  C   UNL     1      -1.643   5.092   3.229  0.00  0.00    +0.095 A 
ATOM     11  C   UNL     1      -3.179   3.115   5.991  0.00  0.00    +0.064 C 
BRANCH   8  12
ATOM     12  C   UNL     1      -1.509   1.528   3.947  0.00  0.00    +0.089 C 
ATOM     13  C   UNL     1      -0.009   1.232   3.879  0.00  0.00    +0.025 C 
ATOM     14  C   UNL     1       0.216  -0.280   3.935  0.00  0.00    +0.002 C 
ATOM     15  C   UNL     1      -0.490  -0.945   2.750  0.00  0.00    +0.000 C 
ATOM     16  C   UNL     1      -1.989  -0.649   2.819  0.00  0.00    +0.002 C 
ATOM     17  C   UNL     1      -2.214   0.863   2.763  0.00  0.00    +0.025 C 
ENDBRANCH   8  12
BRANCH  10  18
ATOM     18  C   UNL     1      -1.349   6.281   2.488  0.00  0.00    +0.103 C 
ATOM     19  N   UNL     1      -1.115   7.225   1.900  0.00  0.00    -0.191 NA
ENDBRANCH  10  18
ENDBRANCH   1   9
BRANCH   2  20
ATOM     20  C   UNL     1       1.656   3.593   0.536  0.00  0.00    +0.019 C 
BRANCH  20  22
ATOM     21  C   UNL     1       2.779   5.723   0.285  0.00  0.00    -0.095 C 
ATOM     22  N   UNL     1       2.951   4.298   0.637  0.00  0.00    +0.389 N 
ATOM     23  H   UNL     1       3.291   4.233   1.604  0.00  0.00    -0.081 HD
BRANCH  22  24
ATOM     24  C   UNL     1       3.940   3.671  -0.264  0.00  0.00    -0.014 C 
ATOM     25  C   UNL     1       4.153   2.219   0.168  0.00  0.00    -0.006 C 
BRANCH  24  26
ATOM     26  C   UNL     1       5.242   4.422  -0.161  0.00  0.00    +0.066 A 
ATOM     27  N   UNL     1       5.843   4.856   0.911  0.00  0.00    -0.246 NA
ATOM     28  C   UNL     1       7.019   5.516   0.867  0.00  0.00    +0.078 A 
ATOM     29  C   UNL     1       7.787   6.039   1.930  0.00  0.00    +0.029 A 
ATOM     30  C   UNL     1       8.958   6.688   1.688  0.00  0.00    +0.002 A 
ATOM     31  C   UNL     1       9.441   6.861   0.398  0.00  0.00    +0.001 A 
ATOM     32  C   UNL     1       8.718   6.364  -0.670  0.00  0.00    +0.017 A 
ATOM     33  C   UNL     1       7.534   5.707  -0.436  0.00  0.00    +0.039 A 
ATOM     34  S   UNL     1       6.300   4.924  -1.443  0.00  0.00    -0.074 S 
ENDBRANCH  24  26
ENDBRANCH  22  24
ENDBRANCH  20  22
ENDBRANCH   2  20
TORSDOF 7
