REMARK  Name = ZINC40404320
REMARK  10 active torsions:
REMARK  status: ('A' for Active; 'I' for Inactive)
REMARK    1  A    between atoms: C_1  and  C_2
REMARK    2  A    between atoms: C_2  and  C_3
REMARK    3  A    between atoms: C_2  and  C_4
REMARK    4  A    between atoms: C_4  and  N_5
REMARK    5  A    between atoms: C_6  and  C_8
REMARK    6  A    between atoms: C_8  and  C_10
REMARK    7  A    between atoms: C_8  and  N_26
REMARK    8  A    between atoms: N_13  and  S_16
REMARK    9  A    between atoms: S_16  and  C_19
REMARK   10  A    between atoms: C_27  and  C_29
REMARK                            x       y       z     vdW  Elec       q    Type
REMARK                         _______ _______ _______ _____ _____    ______ ____
ROOT
ATOM      1  C   UNL     1      -2.558  -4.183  -0.262  0.00  0.00    +0.162 C 
ENDROOT
BRANCH   1   2
ATOM      2  C   UNL     1      -1.881  -4.571  -1.578  0.00  0.00    +0.021 C 
ATOM      3  C   UNL     1      -2.656  -3.963  -2.749  0.00  0.00    +0.023 C 
ATOM      4  C   UNL     1      -1.956  -4.325  -4.062  0.00  0.00    +0.110 C 
ATOM      5  N   UNL     1      -1.805  -5.785  -4.131  0.00  0.00    -0.177 NA
ATOM      6  C   UNL     1      -1.154  -6.482  -3.013  0.00  0.00    +0.110 C 
ATOM      7  C   UNL     1      -1.863  -6.096  -1.712  0.00  0.00    +0.023 C 
BRANCH   5   8
ATOM      8  S   UNL     1      -2.359  -6.630  -5.444  0.00  0.00    +0.061 S 
ATOM      9  O   UNL     1      -2.589  -7.961  -5.002  0.00  0.00    -0.153 OA
ATOM     10  O   UNL     1      -3.379  -5.837  -6.035  0.00  0.00    -0.153 OA
BRANCH   8  11
ATOM     11  C   UNL     1      -1.040  -6.706  -6.609  0.00  0.00    +0.106 A 
ATOM     12  C   UNL     1      -0.899  -5.711  -7.559  0.00  0.00    +0.030 A 
ATOM     13  C   UNL     1       0.135  -5.771  -8.474  0.00  0.00    +0.022 A 
ATOM     14  C   UNL     1       1.030  -6.825  -8.438  0.00  0.00    +0.041 A 
ATOM     15  C   UNL     1       0.889  -7.820  -7.487  0.00  0.00    +0.022 A 
ATOM     16  C   UNL     1      -0.143  -7.757  -6.569  0.00  0.00    +0.030 A 
ATOM     17 CL   UNL     1       2.329  -6.900  -9.587  0.00  0.00    -0.084 Cl
ENDBRANCH   8  11
ENDBRANCH   5   8
ENDBRANCH   1   2
BRANCH   1  19
ATOM     18  N   UNL     1      -1.416  -1.993  -0.116  0.00  0.00    -0.314 N 
ATOM     19  C   UNL     1      -2.575  -2.682  -0.130  0.00  0.00    +0.234 C 
ATOM     20  O   UNL     1      -3.631  -2.093  -0.036  0.00  0.00    -0.274 OA
ATOM     21  H   UNL     1      -0.572  -2.463  -0.190  0.00  0.00    +0.149 HD
BRANCH  18  22
ATOM     22  C   UNL     1      -1.433  -0.534   0.013  0.00  0.00    +0.107 C 
BRANCH  22  24
ATOM     23  C   UNL     1      -0.019   1.526   0.010  0.00  0.00    +0.009 C 
ATOM     24  C   UNL     1       0.002  -0.004   0.002  0.00  0.00    -0.000 C 
ATOM     25  C   UNL     1       0.742  -0.511   1.242  0.00  0.00    +0.009 C 
ENDBRANCH  22  24
ENDBRANCH  18  22
ENDBRANCH   1  19
BRANCH   1  26
ATOM     26  N   UNL     1      -3.932  -4.690  -0.251  0.00  0.00    -0.300 N 
ATOM     27  C   UNL     1      -4.553  -4.929   0.921  0.00  0.00    +0.245 C 
ATOM     28  O   UNL     1      -3.973  -4.725   1.969  0.00  0.00    -0.270 OA
ATOM     29  H   UNL     1      -4.395  -4.853  -1.088  0.00  0.00    +0.150 HD
BRANCH  27  30
ATOM     30  C   UNL     1      -5.939  -5.441   0.931  0.00  0.00    +0.037 A 
ATOM     31  C   UNL     1      -6.606  -5.682  -0.272  0.00  0.00    +0.016 A 
ATOM     32  C   UNL     1      -7.899  -6.159  -0.256  0.00  0.00    +0.039 A 
ATOM     33  C   UNL     1      -8.538  -6.399   0.951  0.00  0.00    +0.123 A 
ATOM     34  C   UNL     1      -7.880  -6.161   2.148  0.00  0.00    +0.039 A 
ATOM     35  C   UNL     1      -6.585  -5.690   2.144  0.00  0.00    +0.016 A 
ATOM     36  F   UNL     1      -9.805  -6.866   0.960  0.00  0.00    -0.205 F 
ENDBRANCH  27  30
ENDBRANCH   1  26
TORSDOF 8
