REMARK  Name = ZINC57840139
REMARK  11 active torsions:
REMARK  status: ('A' for Active; 'I' for Inactive)
REMARK    1  A    between atoms: C_1  and  C_2
REMARK    2  A    between atoms: C_2  and  C_23
REMARK    3  A    between atoms: N_5  and  C_9
REMARK    4  A    between atoms: C_9  and  C_10
REMARK    5  A    between atoms: C_10  and  C_11
REMARK    6  A    between atoms: C_11  and  O_12
REMARK    7  A    between atoms: O_12  and  C_13
REMARK    8  A    between atoms: C_16  and  C_19
REMARK    9  A    between atoms: C_19  and  C_20
REMARK   10  A    between atoms: C_19  and  C_21
REMARK   11  A    between atoms: C_19  and  C_22
REMARK                            x       y       z     vdW  Elec       q    Type
REMARK                         _______ _______ _______ _____ _____    ______ ____
ROOT
ATOM      1  C   UNL     1      -0.019   1.526   0.010  0.00  0.00    +0.047 C 
ATOM      2  C   UNL     1       0.002  -0.004   0.002  0.00  0.00    +0.135 C 
ATOM      3  C   UNL     1       0.815  -0.520  -1.169  0.00  0.00    +0.251 C 
ATOM      4  O   UNL     1       0.595  -0.342  -2.348  0.00  0.00    -0.272 OA
ATOM      5  N   UNL     1       1.833  -1.217  -0.627  0.00  0.00    -0.224 N 
ATOM      6  C   UNL     1       1.777  -1.214   0.710  0.00  0.00    +0.310 C 
ATOM      7  O   UNL     1       2.586  -1.776   1.421  0.00  0.00    -0.252 OA
ATOM      8  N   UNL     1       0.724  -0.519   1.178  0.00  0.00    -0.281 N 
ATOM      9  H   UNL     1       0.487  -0.383   2.109  0.00  0.00    +0.152 HD
ENDROOT
BRANCH   2  10
ATOM     10  C   UNL     1      -1.401  -0.551  -0.040  0.00  0.00    -0.012 A 
ATOM     11  C   UNL     1      -2.003  -0.814  -1.256  0.00  0.00    +0.010 A 
ATOM     12  C   UNL     1      -3.291  -1.315  -1.299  0.00  0.00    +0.050 A 
ATOM     13  C   UNL     1      -3.982  -1.556  -0.121  0.00  0.00    +0.162 A 
ATOM     14  C   UNL     1      -3.376  -1.294   1.102  0.00  0.00    +0.162 A 
ATOM     15  C   UNL     1      -2.082  -0.795   1.138  0.00  0.00    +0.055 A 
ATOM     16  O   UNL     1      -4.033  -1.531   2.270  0.00  0.00    -0.485 OA
ATOM     17  C   UNL     1      -5.455  -1.683   2.189  0.00  0.00    +0.270 C 
ATOM     18  C   UNL     1      -5.771  -2.627   1.021  0.00  0.00    +0.270 C 
ATOM     19  O   UNL     1      -5.251  -2.045  -0.179  0.00  0.00    -0.485 OA
ENDBRANCH   2  10
BRANCH   5  20
ATOM     20  C   UNL     1       2.871  -1.896  -1.406  0.00  0.00    +0.121 C 
BRANCH  20  21
ATOM     21  C   UNL     1       4.037  -0.936  -1.647  0.00  0.00    +0.060 C 
BRANCH  21  22
ATOM     22  C   UNL     1       5.122  -1.645  -2.460  0.00  0.00    +0.230 C 
BRANCH  22  23
ATOM     23  O   UNL     1       6.211  -0.747  -2.686  0.00  0.00    -0.492 OA
BRANCH  23  24
ATOM     24  C   UNL     1       7.266  -1.224  -3.398  0.00  0.00    +0.121 A 
ATOM     25  C   UNL     1       7.250  -2.526  -3.875  0.00  0.00    +0.046 A 
ATOM     26  C   UNL     1       8.324  -3.008  -4.600  0.00  0.00    +0.008 A 
ATOM     27  C   UNL     1       9.413  -2.194  -4.849  0.00  0.00    -0.042 A 
ATOM     28  C   UNL     1       9.431  -0.895  -4.374  0.00  0.00    +0.008 A 
ATOM     29  C   UNL     1       8.358  -0.407  -3.654  0.00  0.00    +0.046 A 
BRANCH  27  30
ATOM     30  C   UNL     1      10.582  -2.722  -5.639  0.00  0.00    -0.013 C 
ATOM     31  C   UNL     1      10.109  -3.143  -7.031  0.00  0.00    +0.015 C 
ATOM     32  C   UNL     1      11.645  -1.629  -5.770  0.00  0.00    +0.015 C 
ATOM     33  C   UNL     1      11.181  -3.931  -4.916  0.00  0.00    +0.015 C 
ENDBRANCH  27  30
ENDBRANCH  23  24
ENDBRANCH  22  23
ENDBRANCH  21  22
ENDBRANCH  20  21
ENDBRANCH   5  20
TORSDOF 7
