REMARK  Name = ZINC39943922
REMARK  9 active torsions:
REMARK  status: ('A' for Active; 'I' for Inactive)
REMARK    1  A    between atoms: C_4  and  C_7
REMARK    2  A    between atoms: C_7  and  C_8
REMARK    3  A    between atoms: C_8  and  N_9
REMARK    4  A    between atoms: N_9  and  C_10
REMARK    5  A    between atoms: C_10  and  C_11
REMARK    6  A    between atoms: C_17  and  C_19
REMARK    7  A    between atoms: C_19  and  S_20
REMARK    8  A    between atoms: S_20  and  C_21
REMARK    9  A    between atoms: C_26  and  C_31
REMARK                            x       y       z     vdW  Elec       q    Type
REMARK                         _______ _______ _______ _____ _____    ______ ____
ROOT
ATOM      1  N   UNL     1       5.490  -1.726   1.517  0.00  0.00    -0.296 N 
ATOM      2  C   UNL     1       5.314  -3.062   1.490  0.00  0.00    +0.226 C 
ATOM      3  O   UNL     1       4.198  -3.529   1.577  0.00  0.00    -0.275 OA
ENDROOT
BRANCH   1   4
ATOM      4  C   UNL     1       4.348  -0.842   1.762  0.00  0.00    +0.113 C 
BRANCH   4   5
ATOM      5  C   UNL     1       3.693  -0.472   0.430  0.00  0.00    +0.054 C 
BRANCH   5   9
ATOM      6  C   UNL     1       0.363   2.106   1.143  0.00  0.00    +0.000 A 
ATOM      7  C   UNL     1       1.621   2.642   0.941  0.00  0.00    +0.000 A 
ATOM      8  C   UNL     1       2.698   1.807   0.710  0.00  0.00    +0.004 A 
ATOM      9  C   UNL     1       2.518   0.437   0.682  0.00  0.00    -0.046 A 
ATOM     10  C   UNL     1       1.261  -0.099   0.886  0.00  0.00    +0.004 A 
ATOM     11  C   UNL     1       0.182   0.735   1.115  0.00  0.00    +0.000 A 
ENDBRANCH   5   9
ENDBRANCH   4   5
ENDBRANCH   1   4
BRANCH   1  12
ATOM     12  C   UNL     1       6.822  -1.158   1.300  0.00  0.00    +0.142 C 
BRANCH  12  13
ATOM     13  C   UNL     1       7.476  -0.889   2.631  0.00  0.00    -0.030 A 
ATOM     14  C   UNL     1       7.200   0.281   3.314  0.00  0.00    +0.005 A 
ATOM     15  C   UNL     1       7.799   0.527   4.535  0.00  0.00    +0.000 A 
ATOM     16  C   UNL     1       8.675  -0.397   5.074  0.00  0.00    +0.000 A 
ATOM     17  C   UNL     1       8.951  -1.567   4.392  0.00  0.00    +0.000 A 
ATOM     18  C   UNL     1       8.348  -1.816   3.173  0.00  0.00    +0.005 A 
ENDBRANCH  12  13
ENDBRANCH   1  12
BRANCH   2  19
ATOM     19  C   UNL     1       6.504  -3.976   1.351  0.00  0.00    +0.173 C 
BRANCH  19  20
ATOM     20  S   UNL     1       5.959  -5.702   1.473  0.00  0.00    -0.079 S 
BRANCH  20  21
ATOM     21  C   UNL     1       7.445  -6.632   1.294  0.00  0.00    +0.182 C 
ATOM     22  N   UNL     1       8.588  -5.986   1.126  0.00  0.00    -0.151 NA
ATOM     23  C   UNL     1       9.746  -6.630   0.985  0.00  0.00    +0.272 C 
ATOM     24  O   UNL     1      10.789  -6.013   0.831  0.00  0.00    -0.268 OA
ATOM     25  C   UNL     1       9.741  -8.120   1.020  0.00  0.00    +0.076 C 
ATOM     26  C   UNL     1      10.832  -8.964   0.893  0.00  0.00    -0.009 C 
ATOM     27  C   UNL     1      10.553 -10.448   0.965  0.00  0.00    +0.113 C 
ATOM     28  S   UNL     1       8.731 -10.459   1.210  0.00  0.00    -0.100 S 
ATOM     29  C   UNL     1       8.457  -8.704   1.206  0.00  0.00    +0.112 C 
ATOM     30  N   UNL     1       7.382  -7.960   1.339  0.00  0.00    -0.217 NA
BRANCH  26  31
ATOM     31  C   UNL     1      12.129  -8.467   0.707  0.00  0.00    +0.017 A 
ATOM     32  C   UNL     1      13.241  -8.565   1.550  0.00  0.00    +0.016 A 
ATOM     33  C   UNL     1      14.386  -7.973   1.090  0.00  0.00    +0.008 A 
ATOM     34  C   UNL     1      14.369  -7.347  -0.118  0.00  0.00    +0.046 A 
ATOM     35  S   UNL     1      12.796  -7.552  -0.671  0.00  0.00    -0.097 S 
ENDBRANCH  26  31
ENDBRANCH  20  21
ENDBRANCH  19  20
ENDBRANCH   2  19
TORSDOF 9
