REMARK  Name = ZINC31154548
REMARK  10 active torsions:
REMARK  status: ('A' for Active; 'I' for Inactive)
REMARK    1  A    between atoms: C_1  and  C_2
REMARK    2  A    between atoms: C_7  and  C_9
REMARK    3  A    between atoms: C_16  and  C_40
REMARK    4  A    between atoms: C_19  and  O_39
REMARK    5  A    between atoms: C_21  and  C_25
REMARK    6  A    between atoms: C_25  and  C_27
REMARK    7  A    between atoms: C_25  and  C_28
REMARK    8  A    between atoms: N_30  and  C_31
REMARK    9  A    between atoms: N_30  and  C_32
REMARK   10  A    between atoms: C_32  and  C_33
REMARK                            x       y       z     vdW  Elec       q    Type
REMARK                         _______ _______ _______ _____ _____    ______ ____
ROOT
ATOM      1  C   UNL     1      -0.687   6.884  -4.207  0.00  0.00    +0.014 C 
ATOM      2  C   UNL     1      -0.377   7.059  -2.719  0.00  0.00    +0.039 C 
ATOM      3  C   UNL     1      -0.833   5.823  -1.958  0.00  0.00    +0.030 A 
ATOM      4  C   UNL     1      -1.450   5.953  -0.754  0.00  0.00    +0.011 A 
ATOM      5  S   UNL     1      -1.765   4.269  -0.299  0.00  0.00    -0.079 S 
ATOM      6  C   UNL     1      -1.062   3.534  -1.709  0.00  0.00    +0.058 A 
ATOM      7  N   UNL     1      -0.664   4.579  -2.394  0.00  0.00    -0.355 N 
ATOM      8  C   UNL     1      -1.773   7.210  -0.028  0.00  0.00    +0.051 C 
ATOM      9  C   UNL     1      -0.982   8.372  -0.662  0.00  0.00    -0.022 C 
ATOM     10  C   UNL     1      -1.116   8.293  -2.184  0.00  0.00    +0.033 C 
ATOM     11  C   UNL     1      -0.479   9.526  -2.834  0.00  0.00    +0.123 C 
ATOM     12  C   UNL     1      -1.135  10.802  -2.310  0.00  0.00    +0.029 C 
ATOM     13  C   UNL     1      -0.923  10.879  -0.795  0.00  0.00    +0.007 C 
ATOM     14  C   UNL     1      -1.599   9.675  -0.143  0.00  0.00    +0.008 C 
ATOM     15  C   UNL     1       0.492   8.281  -0.262  0.00  0.00    +0.012 C 
ATOM     16  H   UNL     1      -0.174   4.397  -3.362  0.00  0.00    +0.166 HD
ENDROOT
BRANCH   6  17
ATOM     17  C   UNL     1      -0.947   2.073  -2.058  0.00  0.00    +0.039 C 
ATOM     18  C   UNL     1      -0.124   1.354  -0.986  0.00  0.00    -0.009 C 
ATOM     19  C   UNL     1      -0.061  -0.139  -1.314  0.00  0.00    -0.082 C 
ATOM     20  N   UNL     1      -1.421  -0.690  -1.363  0.00  0.00    +0.379 N 
ATOM     21  C   UNL     1      -2.216  -0.047  -2.418  0.00  0.00    -0.082 C 
ATOM     22  C   UNL     1      -2.344   1.449  -2.122  0.00  0.00    -0.009 C 
ATOM     23  H   UNL     1      -1.373  -1.769  -1.568  0.00  0.00    -0.086 HD
ATOM     24  H   UNL     1      -1.920  -0.522  -0.397  0.00  0.00    -0.086 HD
ENDBRANCH   6  17
BRANCH  12  25
ATOM     25  C   UNL     1      -0.495  12.020  -2.980  0.00  0.00    +0.078 C 
ATOM     26  C   UNL     1       0.972  12.121  -2.561  0.00  0.00    +0.017 C 
BRANCH  25  27
ATOM     27  C   UNL     1      -1.226  13.268  -2.557  0.00  0.00    +0.219 C 
ATOM     28  O   UNL     1      -0.788  13.950  -1.655  0.00  0.00    -0.275 OA
ATOM     29  N   UNL     1      -2.366  13.626  -3.180  0.00  0.00    -0.300 N 
ATOM     30  C   UNL     1      -2.954  12.746  -4.193  0.00  0.00    +0.132 C 
BRANCH  29  31
ATOM     31  C   UNL     1      -3.018  14.894  -2.844  0.00  0.00    +0.142 C 
BRANCH  31  32
ATOM     32  C   UNL     1      -2.485  15.985  -3.736  0.00  0.00    -0.030 A 
ATOM     33  C   UNL     1      -1.381  16.720  -3.345  0.00  0.00    +0.005 A 
ATOM     34  C   UNL     1      -0.890  17.718  -4.167  0.00  0.00    +0.000 A 
ATOM     35  C   UNL     1      -1.507  17.986  -5.374  0.00  0.00    +0.000 A 
ATOM     36  C   UNL     1      -2.613  17.254  -5.763  0.00  0.00    +0.000 A 
ATOM     37  C   UNL     1      -3.102  16.253  -4.944  0.00  0.00    +0.005 A 
ENDBRANCH  31  32
ENDBRANCH  29  31
ENDBRANCH  25  27
ENDBRANCH  12  25
BRANCH  11  38
ATOM     38  O   UNL     1      -0.649   9.455  -4.251  0.00  0.00    -0.391 OA
ATOM     39  H   UNL     1      -0.255  10.256  -4.893  0.00  0.00    +0.210 HD
ENDBRANCH  11  38
TORSDOF 6
