REMARK  Name = ZINC43096511
REMARK  7 active torsions:
REMARK  status: ('A' for Active; 'I' for Inactive)
REMARK    1  A    between atoms: C_1  and  C_2
REMARK    2  A    between atoms: C_5  and  S_8
REMARK    3  A    between atoms: S_8  and  C_9
REMARK    4  A    between atoms: C_9  and  C_11
REMARK    5  A    between atoms: C_9  and  C_18
REMARK    6  A    between atoms: C_18  and  C_20
REMARK    7  A    between atoms: C_18  and  N_21
REMARK                            x       y       z     vdW  Elec       q    Type
REMARK                         _______ _______ _______ _____ _____    ______ ____
ROOT
ATOM      1  C   UNL     1      -4.916   2.388  -1.509  0.00  0.00    +0.071 C 
ENDROOT
BRANCH   1   2
ATOM      2  C   UNL     1      -6.380   2.737  -1.595  0.00  0.00    -0.022 A 
ATOM      3  C   UNL     1      -7.060   2.576  -2.788  0.00  0.00    +0.006 A 
ATOM      4  C   UNL     1      -8.402   2.897  -2.867  0.00  0.00    +0.000 A 
ATOM      5  C   UNL     1      -9.065   3.378  -1.753  0.00  0.00    +0.001 A 
ATOM      6  C   UNL     1      -8.386   3.539  -0.560  0.00  0.00    +0.015 A 
ATOM      7  C   UNL     1      -7.044   3.213  -0.479  0.00  0.00    +0.022 A 
ATOM      8 BR   UNL     1      -6.116   3.427   1.154  0.00  0.00    -0.050 Br
ENDBRANCH   1   2
BRANCH   1   9
ATOM      9  C   UNL     1      -4.765   0.923  -1.094  0.00  0.00    -0.060 C 
ATOM     10  C   UNL     1      -3.280   0.569  -1.001  0.00  0.00    -0.013 C 
BRANCH   9  11
ATOM     11  N   UNL     1      -5.401   0.716   0.214  0.00  0.00    +0.381 N 
ATOM     12  H   UNL     1      -6.380   0.949   0.153  0.00  0.00    -0.090 HD
ATOM     13  H   UNL     1      -5.301  -0.250   0.487  0.00  0.00    -0.090 HD
ATOM     14  H   UNL     1      -4.957   1.307   0.901  0.00  0.00    -0.090 HD
ENDBRANCH   9  11
ENDBRANCH   1   9
BRANCH   1  15
ATOM     15  S   UNL     1      -4.138   2.641  -3.128  0.00  0.00    -0.080 S 
BRANCH  15  20
ATOM     16  C   UNL     1      -5.027   7.764  -2.355  0.00  0.00    +0.090 C 
ATOM     17  C   UNL     1      -4.532   6.497  -3.003  0.00  0.00    +0.149 A 
ATOM     18  N   UNL     1      -4.715   5.264  -2.530  0.00  0.00    -0.206 NA
ATOM     19  H   UNL     1      -3.110   4.700  -5.114  0.00  0.00    +0.191 HD
ATOM     20  C   UNL     1      -4.155   4.390  -3.340  0.00  0.00    +0.185 A 
ATOM     21  N   UNL     1      -3.595   5.073  -4.362  0.00  0.00    -0.254 N 
ATOM     22  N   UNL     1      -3.859   6.431  -4.120  0.00  0.00    -0.157 NA
ENDBRANCH  15  20
ENDBRANCH   1  15
TORSDOF 5
