REMARK  Name = ZINC63295906
REMARK  9 active torsions:
REMARK  status: ('A' for Active; 'I' for Inactive)
REMARK    1  A    between atoms: C_4  and  C_7
REMARK    2  A    between atoms: C_8  and  C_9
REMARK    3  A    between atoms: C_9  and  N_10
REMARK    4  A    between atoms: N_13  and  C_14
REMARK    5  A    between atoms: C_14  and  C_15
REMARK    6  A    between atoms: C_15  and  C_16
REMARK    7  A    between atoms: C_15  and  O_26
REMARK    8  A    between atoms: C_16  and  O_17
REMARK    9  A    between atoms: O_17  and  C_18
REMARK                            x       y       z     vdW  Elec       q    Type
REMARK                         _______ _______ _______ _____ _____    ______ ____
ROOT
ATOM      1  N   UNL     1       5.723  -3.393  -0.072  0.00  0.00    -0.289 N 
ATOM      2  C   UNL     1       6.761  -4.252  -0.087  0.00  0.00    +0.300 C 
ATOM      3  O   UNL     1       7.900  -3.828  -0.096  0.00  0.00    -0.253 OA
ATOM      4  N   UNL     1       6.536  -5.581  -0.092  0.00  0.00    -0.297 N 
ATOM      5  H   UNL     1       4.813  -3.731  -0.065  0.00  0.00    +0.151 HD
ATOM      6  H   UNL     1       5.627  -5.919  -0.085  0.00  0.00    +0.150 HD
ENDROOT
BRANCH   1   7
ATOM      7  C   UNL     1       5.967  -1.948  -0.067  0.00  0.00    +0.195 C 
BRANCH   7   9
ATOM      8  C   UNL     1       3.655  -0.662  -0.037  0.00  0.00    -0.065 C 
ATOM      9  C   UNL     1       4.681  -1.233  -0.050  0.00  0.00    -0.078 C 
BRANCH   8  13
ATOM     10  C   UNL     1      -0.017   1.379   0.010  0.00  0.00    +0.000 A 
ATOM     11  C   UNL     1       1.168   2.093   0.002  0.00  0.00    +0.001 A 
ATOM     12  C   UNL     1       2.377   1.429  -0.013  0.00  0.00    +0.017 A 
ATOM     13  C   UNL     1       2.403   0.034  -0.021  0.00  0.00    +0.025 A 
ATOM     14  C   UNL     1       1.204  -0.681  -0.013  0.00  0.00    +0.017 A 
ATOM     15  C   UNL     1       0.002  -0.004   0.002  0.00  0.00    +0.001 A 
ENDBRANCH   8  13
ENDBRANCH   7   9
ENDBRANCH   1   7
BRANCH   4  16
ATOM     16  C   UNL     1       7.664  -6.515  -0.108  0.00  0.00    +0.140 C 
BRANCH  16  17
ATOM     17  C   UNL     1       7.138  -7.951  -0.111  0.00  0.00    +0.169 C 
BRANCH  17  18
ATOM     18  O   UNL     1       6.353  -8.173   1.063  0.00  0.00    -0.387 OA
ATOM     19  H   UNL     1       6.838  -8.048   1.890  0.00  0.00    +0.210 HD
ENDBRANCH  17  18
BRANCH  17  20
ATOM     20  C   UNL     1       8.316  -8.927  -0.128  0.00  0.00    +0.262 C 
BRANCH  20  21
ATOM     21  O   UNL     1       7.827 -10.264  -0.247  0.00  0.00    -0.488 OA
BRANCH  21  22
ATOM     22  C   UNL     1       8.751 -11.259  -0.278  0.00  0.00    +0.140 A 
ATOM     23  C   UNL     1      10.102 -10.956  -0.188  0.00  0.00    +0.047 A 
ATOM     24  C   UNL     1      11.041 -11.969  -0.219  0.00  0.00    +0.005 A 
ATOM     25  C   UNL     1      10.636 -13.285  -0.339  0.00  0.00    +0.022 A 
ATOM     26  C   UNL     1       9.290 -13.592  -0.429  0.00  0.00    +0.063 A 
ATOM     27  C   UNL     1       8.346 -12.581  -0.392  0.00  0.00    +0.101 A 
ATOM     28 CL   UNL     1       6.656 -12.966  -0.498  0.00  0.00    -0.078 Cl
ATOM     29 CL   UNL     1       8.785 -15.246  -0.580  0.00  0.00    -0.082 Cl
ENDBRANCH  21  22
ENDBRANCH  20  21
ENDBRANCH  17  20
ENDBRANCH  16  17
ENDBRANCH   4  16
TORSDOF 9
