REMARK  Name = ZINC01559564
REMARK  7 active torsions:
REMARK  status: ('A' for Active; 'I' for Inactive)
REMARK    1  A    between atoms: C_1  and  O_2
REMARK    2  A    between atoms: O_2  and  C_3
REMARK    3  A    between atoms: C_8  and  O_9
REMARK    4  A    between atoms: C_12  and  C_13
REMARK    5  A    between atoms: C_12  and  C_21
REMARK    6  A    between atoms: C_13  and  C_14
REMARK    7  A    between atoms: C_17  and  O_20
REMARK                            x       y       z     vdW  Elec       q    Type
REMARK                         _______ _______ _______ _____ _____    ______ ____
ROOT
ATOM      1  C   UNL     1       0.390  -0.825   1.469  0.00  0.00    +0.162 A 
ATOM      2  C   UNL     1       0.284  -2.199   1.345  0.00  0.00    +0.052 A 
ATOM      3  C   UNL     1       0.175  -2.785   0.092  0.00  0.00    -0.041 A 
ATOM      4  C   UNL     1       0.171  -1.994  -1.038  0.00  0.00    -0.043 A 
ATOM      5  C   UNL     1       0.274  -0.616  -0.919  0.00  0.00    +0.053 A 
ATOM      6  C   UNL     1       0.388  -0.027   0.329  0.00  0.00    +0.159 A 
ATOM      7  C   UNL     1       0.048  -2.587  -2.418  0.00  0.00    +0.016 C 
ATOM      8  C   UNL     1       0.357  -4.084  -2.372  0.00  0.00    -0.076 C 
ATOM      9  C   UNL     1       0.067  -4.285   0.012  0.00  0.00    +0.066 C 
ATOM     10  N   UNL     1      -0.450  -4.697  -1.301  0.00  0.00    +0.393 N 
ATOM     11  H   UNL     1      -0.401  -5.719  -1.381  0.00  0.00    -0.084 HD
ATOM     12  H   UNL     1      -1.426  -4.393  -1.393  0.00  0.00    -0.084 HD
ENDROOT
BRANCH   9  13
ATOM     13  C   UNL     1      -0.871  -4.774   1.085  0.00  0.00    +0.350 C 
ATOM     14  O   UNL     1      -0.435  -5.113   2.160  0.00  0.00    -0.248 OA
ATOM     15  O   UNL     1      -2.191  -4.834   0.847  0.00  0.00    -0.248 OA
ENDBRANCH   9  13
BRANCH   1  17
ATOM     16  C   UNL     1       0.489  -1.138   3.824  0.00  0.00    +0.277 C 
ATOM     17  O   UNL     1       0.494  -0.256   2.700  0.00  0.00    -0.491 OA
ENDBRANCH   1  17
BRANCH   6  18
ATOM     18  O   UNL     1       0.492   1.324   0.440  0.00  0.00    -0.503 OA
ATOM     19  H   UNL     1       1.403   1.651   0.425  0.00  0.00    +0.292 HD
ENDBRANCH   6  18
BRANCH   9  20
ATOM     20  C   UNL     1       1.449  -4.903   0.229  0.00  0.00    +0.038 C 
BRANCH  20  21
ATOM     21  C   UNL     1       1.370  -6.395   0.028  0.00  0.00    -0.048 A 
ATOM     22  C   UNL     1       1.092  -7.222   1.101  0.00  0.00    +0.007 A 
ATOM     23  C   UNL     1       1.013  -8.589   0.918  0.00  0.00    +0.045 A 
ATOM     24  C   UNL     1       1.224  -9.133  -0.341  0.00  0.00    +0.117 A 
ATOM     25  C   UNL     1       1.508  -8.301  -1.414  0.00  0.00    +0.045 A 
ATOM     26  C   UNL     1       1.580  -6.934  -1.227  0.00  0.00    +0.007 A 
BRANCH  24  27
ATOM     27  O   UNL     1       1.152 -10.478  -0.522  0.00  0.00    -0.507 OA
ATOM     28  H   UNL     1       1.994 -10.937  -0.400  0.00  0.00    +0.292 HD
ENDBRANCH  24  27
ENDBRANCH  20  21
ENDBRANCH   9  20
TORSDOF 6
