REMARK  Name = ZINC10440089
REMARK  10 active torsions:
REMARK  status: ('A' for Active; 'I' for Inactive)
REMARK    1  A    between atoms: C_1  and  C_2
REMARK    2  A    between atoms: C_2  and  C_3
REMARK    3  A    between atoms: C_10  and  C_12
REMARK    4  A    between atoms: C_15  and  S_18
REMARK    5  A    between atoms: N_16  and  C_17
REMARK    6  A    between atoms: S_18  and  C_19
REMARK    7  A    between atoms: C_19  and  C_20
REMARK    8  A    between atoms: N_22  and  C_23
REMARK    9  A    between atoms: C_25  and  N_30
REMARK   10  A    between atoms: C_28  and  C_29
REMARK                            x       y       z     vdW  Elec       q    Type
REMARK                         _______ _______ _______ _____ _____    ______ ____
ROOT
ATOM      1  C   UNL     1      -7.684   0.871  -1.650  0.00  0.00    +0.171 A 
ATOM      2  N   UNL     1      -7.708   1.465  -2.823  0.00  0.00    -0.128 NA
ATOM      3  N   UNL     1      -8.830   1.238  -3.407  0.00  0.00    -0.122 NA
ATOM      4  C   UNL     1      -9.596   0.495  -2.642  0.00  0.00    +0.192 A 
ATOM      5  N   UNL     1      -8.896   0.235  -1.496  0.00  0.00    -0.305 N 
ATOM      6  C   UNL     1      -9.341  -0.556  -0.347  0.00  0.00    +0.153 C 
ENDROOT
BRANCH   1  13
ATOM      7  C   UNL     1      -2.133   0.972   1.236  0.00  0.00    -0.007 C 
ATOM      8  C   UNL     1      -2.799   1.362   2.558  0.00  0.00    +0.009 C 
ATOM      9  C   UNL     1      -4.135   0.613   2.677  0.00  0.00    +0.043 C 
ATOM     10  C   UNL     1      -4.874   0.766   1.387  0.00  0.00    -0.006 A 
ATOM     11  C   UNL     1      -4.376   1.194   0.191  0.00  0.00    -0.036 A 
ATOM     12  C   UNL     1      -5.270   1.252  -0.872  0.00  0.00    +0.023 A 
ATOM     13  C   UNL     1      -6.576   0.888  -0.682  0.00  0.00    +0.057 A 
ATOM     14  S   UNL     1      -6.583   0.440   1.048  0.00  0.00    -0.090 S 
ATOM     15  C   UNL     1      -2.905   1.580   0.064  0.00  0.00    +0.039 C 
BRANCH   7  17
ATOM     16  C   UNL     1       0.014   0.993  -0.042  0.00  0.00    +0.004 C 
ATOM     17  C   UNL     1      -0.694   1.492   1.219  0.00  0.00    +0.000 C 
ENDBRANCH   7  17
ENDBRANCH   1  13
BRANCH   4  18
ATOM     18  S   UNL     1     -11.224  -0.062  -3.020  0.00  0.00    -0.077 S 
BRANCH  18  19
ATOM     19  C   UNL     1     -11.436   0.676  -4.659  0.00  0.00    +0.173 C 
BRANCH  19  20
ATOM     20  C   UNL     1     -12.798   0.322  -5.197  0.00  0.00    +0.227 C 
ATOM     21  O   UNL     1     -13.552  -0.361  -4.537  0.00  0.00    -0.275 OA
ATOM     22  N   UNL     1     -13.179   0.765  -6.412  0.00  0.00    -0.285 N 
ATOM     23  H   UNL     1     -12.610   1.377  -6.905  0.00  0.00    +0.155 HD
BRANCH  22  24
ATOM     24  C   UNL     1     -14.395   0.343  -6.961  0.00  0.00    +0.038 A 
ATOM     25  C   UNL     1     -14.958  -0.862  -6.562  0.00  0.00    +0.056 A 
ATOM     26  C   UNL     1     -16.160  -1.273  -7.102  0.00  0.00    +0.128 A 
ATOM     27  C   UNL     1     -16.799  -0.491  -8.047  0.00  0.00    +0.033 A 
ATOM     28  C   UNL     1     -16.239   0.707  -8.450  0.00  0.00    +0.007 A 
ATOM     29  C   UNL     1     -15.039   1.127  -7.910  0.00  0.00    -0.029 A 
ATOM     30  C   UNL     1     -14.429   2.433  -8.349  0.00  0.00    +0.045 C 
BRANCH  26  31
ATOM     31  N   UNL     1     -16.763  -2.555  -6.674  0.00  0.00    +0.056 N 
ATOM     32  O   UNL     1     -17.822  -2.921  -7.153  0.00  0.00    -0.126 OA
ATOM     33  O   UNL     1     -16.201  -3.245  -5.843  0.00  0.00    -0.126 OA
ENDBRANCH  26  31
ENDBRANCH  22  24
ENDBRANCH  19  20
ENDBRANCH  18  19
ENDBRANCH   4  18
TORSDOF 7
