REMARK  Name = ZINC34740860
REMARK  13 active torsions:
REMARK  status: ('A' for Active; 'I' for Inactive)
REMARK    1  A    between atoms: C_1  and  C_2
REMARK    2  A    between atoms: C_7  and  C_8
REMARK    3  A    between atoms: N_11  and  C_25
REMARK    4  A    between atoms: C_13  and  C_15
REMARK    5  A    between atoms: C_15  and  N_16
REMARK    6  A    between atoms: N_16  and  C_17
REMARK    7  A    between atoms: C_17  and  C_18
REMARK    8  A    between atoms: C_17  and  C_19
REMARK    9  A    between atoms: C_20  and  C_22
REMARK   10  A    between atoms: C_22  and  C_23
REMARK   11  A    between atoms: C_22  and  C_24
REMARK   12  A    between atoms: C_25  and  C_26
REMARK   13  A    between atoms: C_31  and  O_32
REMARK                            x       y       z     vdW  Elec       q    Type
REMARK                         _______ _______ _______ _____ _____    ______ ____
ROOT
ATOM      1  C   UNL     1      -0.247   2.530   3.671  0.00  0.00    +0.005 C 
ATOM      2  C   UNL     1      -1.119   3.014   4.857  0.00  0.00    -0.070 C 
ATOM      3  N   UNL     1      -0.121   3.297   5.920  0.00  0.00    +0.383 N 
ATOM      4  C   UNL     1       0.889   2.221   5.821  0.00  0.00    -0.073 C 
ATOM      5  C   UNL     1       0.862   1.706   4.366  0.00  0.00    -0.005 C 
ATOM      6  H   UNL     1       0.310   4.195   5.763  0.00  0.00    -0.081 HD
ENDROOT
BRANCH   1  13
ATOM      7  C   UNL     1      -0.446   3.217   0.872  0.00  0.00    +0.044 C 
ATOM      8  C   UNL     1      -1.145   1.990   1.399  0.00  0.00    -0.047 A 
ATOM      9  C   UNL     1      -1.877   1.190   0.541  0.00  0.00    +0.003 A 
ATOM     10  C   UNL     1      -2.519   0.065   1.024  0.00  0.00    +0.000 A 
ATOM     11  C   UNL     1      -2.428  -0.261   2.364  0.00  0.00    +0.000 A 
ATOM     12  C   UNL     1      -1.695   0.538   3.221  0.00  0.00    +0.004 A 
ATOM     13  C   UNL     1      -1.050   1.662   2.738  0.00  0.00    -0.043 A 
ENDBRANCH   1  13
BRANCH   5  14
ATOM     14  C   UNL     1       2.211   1.951   3.687  0.00  0.00    +0.110 C 
BRANCH  14  15
ATOM     15  N   UNL     1       3.219   1.063   4.269  0.00  0.00    -0.299 N 
ATOM     16  C   UNL     1       4.038   1.517   5.239  0.00  0.00    +0.218 C 
ATOM     17  O   UNL     1       3.976   2.676   5.591  0.00  0.00    -0.275 OA
BRANCH  15  18
ATOM     18  C   UNL     1       3.339  -0.319   3.797  0.00  0.00    +0.070 C 
ATOM     19  C   UNL     1       4.793  -0.604   3.417  0.00  0.00    +0.028 C 
ATOM     20  C   UNL     1       2.905  -1.276   4.909  0.00  0.00    +0.028 C 
ENDBRANCH  15  18
BRANCH  16  21
ATOM     21  C   UNL     1       5.030   0.585   5.885  0.00  0.00    +0.069 C 
ATOM     22  C   UNL     1       6.413   0.806   5.270  0.00  0.00    +0.017 C 
ATOM     23  C   UNL     1       5.089   0.866   7.388  0.00  0.00    +0.017 C 
ENDBRANCH  16  21
ENDBRANCH  14  15
ENDBRANCH   5  14
BRANCH   3  24
ATOM     24  C   UNL     1      -0.765   3.266   7.240  0.00  0.00    -0.039 C 
BRANCH  24  25
ATOM     25  C   UNL     1      -1.742   4.409   7.349  0.00  0.00    -0.022 A 
ATOM     26  C   UNL     1      -1.383   5.563   8.019  0.00  0.00    +0.005 A 
ATOM     27  C   UNL     1      -2.279   6.611   8.120  0.00  0.00    +0.000 A 
ATOM     28  C   UNL     1      -3.535   6.508   7.551  0.00  0.00    +0.004 A 
ATOM     29  C   UNL     1      -3.898   5.357   6.879  0.00  0.00    +0.045 A 
ATOM     30  C   UNL     1      -2.999   4.305   6.772  0.00  0.00    +0.118 A 
BRANCH  30  31
ATOM     31  O   UNL     1      -3.352   3.174   6.107  0.00  0.00    -0.507 OA
ATOM     32  H   UNL     1      -3.770   2.504   6.665  0.00  0.00    +0.292 HD
ENDBRANCH  30  31
ENDBRANCH  24  25
ENDBRANCH   3  24
TORSDOF 8
