REMARK  Name = ZINC39380483
REMARK  7 active torsions:
REMARK  status: ('A' for Active; 'I' for Inactive)
REMARK    1  A    between atoms: C_1  and  C_2
REMARK    2  A    between atoms: C_2  and  C_4
REMARK    3  A    between atoms: C_2  and  N_14
REMARK    4  A    between atoms: N_14  and  C_15
REMARK    5  A    between atoms: N_14  and  C_16
REMARK    6  A    between atoms: C_16  and  C_17
REMARK    7  A    between atoms: C_21  and  C_23
REMARK                            x       y       z     vdW  Elec       q    Type
REMARK                         _______ _______ _______ _____ _____    ______ ____
ROOT
ATOM      1  N   UNL     1       0.713  -0.491   1.192  0.00  0.00    +0.385 N 
ATOM      2  C   UNL     1       0.025  -0.017   2.401  0.00  0.00    -0.095 C 
ATOM      3  H   UNL     1       1.659  -0.141   1.185  0.00  0.00    -0.081 HD
ENDROOT
BRANCH   1   5
ATOM      4  C   UNL     1      -0.019   1.526   0.010  0.00  0.00    -0.008 C 
ATOM      5  C   UNL     1       0.002  -0.004   0.002  0.00  0.00    -0.041 C 
BRANCH   5   6
ATOM      6  C   UNL     1       0.707  -0.490  -1.238  0.00  0.00    -0.057 A 
ATOM      7  C   UNL     1       2.089  -0.510  -1.283  0.00  0.00    +0.006 A 
ATOM      8  C   UNL     1       2.740  -0.954  -2.418  0.00  0.00    +0.049 A 
ATOM      9  C   UNL     1       2.007  -1.381  -3.517  0.00  0.00    +0.162 A 
ATOM     10  C   UNL     1       0.619  -1.363  -3.471  0.00  0.00    +0.162 A 
ATOM     11  C   UNL     1      -0.028  -0.920  -2.326  0.00  0.00    +0.051 A 
ATOM     12  O   UNL     1      -0.119  -1.784  -4.534  0.00  0.00    -0.485 OA
ATOM     13  C   UNL     1       0.559  -1.874  -5.792  0.00  0.00    +0.270 C 
ATOM     14  C   UNL     1       1.901  -2.582  -5.566  0.00  0.00    +0.270 C 
ATOM     15  O   UNL     1       2.662  -1.811  -4.629  0.00  0.00    -0.485 OA
ENDBRANCH   5   6
ENDBRANCH   1   5
BRANCH   1  16
ATOM     16  C   UNL     1       0.733  -1.960   1.184  0.00  0.00    -0.043 C 
BRANCH  16  17
ATOM     17  C   UNL     1       1.565  -2.457   2.337  0.00  0.00    -0.033 C 
ATOM     18  C   UNL     1       1.151  -2.835   3.548  0.00  0.00    +0.134 C 
ATOM     19  N   UNL     1       2.195  -3.221   4.315  0.00  0.00    -0.162 NA
ATOM     20  N   UNL     1       3.293  -3.148   3.758  0.00  0.00    -0.172 NA
ATOM     21  C   UNL     1       3.070  -2.651   2.390  0.00  0.00    +0.219 C 
BRANCH  21  22
ATOM     22  C   UNL     1       3.784  -1.340   2.179  0.00  0.00    +0.136 A 
ATOM     23  C   UNL     1       4.324  -0.938   1.021  0.00  0.00    +0.055 A 
ATOM     24  C   UNL     1       4.906   0.385   1.278  0.00  0.00    +0.020 A 
ATOM     25  C   UNL     1       5.597   1.314   0.501  0.00  0.00    +0.011 A 
ATOM     26  C   UNL     1       6.015   2.489   1.062  0.00  0.00    +0.001 A 
ATOM     27  C   UNL     1       5.758   2.761   2.398  0.00  0.00    +0.004 A 
ATOM     28  C   UNL     1       5.076   1.854   3.182  0.00  0.00    +0.047 A 
ATOM     29  C   UNL     1       4.641   0.655   2.631  0.00  0.00    +0.135 A 
ATOM     30  O   UNL     1       3.965  -0.402   3.125  0.00  0.00    -0.457 OA
ENDBRANCH  21  22
ENDBRANCH  16  17
ENDBRANCH   1  16
TORSDOF 5
