REMARK  Name = ZINC63634475
REMARK  5 active torsions:
REMARK  status: ('A' for Active; 'I' for Inactive)
REMARK    1  A    between atoms: C_6  and  C_7
REMARK    2  A    between atoms: C_7  and  N_8
REMARK    3  A    between atoms: C_9  and  C_11
REMARK    4  A    between atoms: N_14  and  S_17
REMARK    5  A    between atoms: S_17  and  C_20
REMARK                            x       y       z     vdW  Elec       q    Type
REMARK                         _______ _______ _______ _____ _____    ______ ____
ROOT
ATOM      1  C   UNL     1      -3.312  -1.942  -3.025  0.00  0.00    +0.077 C 
ATOM      2  C   UNL     1      -3.518  -0.604  -3.738  0.00  0.00    +0.030 C 
ATOM      3  C   UNL     1      -3.937  -0.861  -5.189  0.00  0.00    +0.110 C 
ATOM      4  N   UNL     1      -5.119  -1.734  -5.192  0.00  0.00    -0.177 NA
ATOM      5  C   UNL     1      -5.059  -3.006  -4.459  0.00  0.00    +0.110 C 
ATOM      6  C   UNL     1      -4.627  -2.725  -3.017  0.00  0.00    +0.030 C 
ENDROOT
BRANCH   1   8
ATOM      7  N   UNL     1      -1.726  -1.017  -1.368  0.00  0.00    -0.311 N 
ATOM      8  C   UNL     1      -2.867  -1.693  -1.607  0.00  0.00    +0.216 C 
ATOM      9  O   UNL     1      -3.535  -2.101  -0.681  0.00  0.00    -0.276 OA
ATOM     10  H   UNL     1      -1.191  -0.691  -2.109  0.00  0.00    +0.149 HD
BRANCH   7  11
ATOM     11  C   UNL     1      -1.293  -0.775   0.010  0.00  0.00    +0.139 C 
BRANCH  11  17
ATOM     12  C   UNL     1      -0.017   1.378   0.010  0.00  0.00    +0.008 A 
ATOM     13  C   UNL     1       1.170   2.086   0.002  0.00  0.00    +0.038 A 
ATOM     14  C   UNL     1       2.379   1.410  -0.013  0.00  0.00    +0.123 A 
ATOM     15  C   UNL     1       2.396   0.026  -0.021  0.00  0.00    +0.038 A 
ATOM     16  C   UNL     1       1.208  -0.680  -0.013  0.00  0.00    +0.008 A 
ATOM     17  C   UNL     1       0.002  -0.004   0.002  0.00  0.00    -0.030 A 
ATOM     18  F   UNL     1       3.540   2.101  -0.021  0.00  0.00    -0.205 F 
ENDBRANCH  11  17
ENDBRANCH   7  11
ENDBRANCH   1   8
BRANCH   4  19
ATOM     19  S   UNL     1      -6.492  -1.293  -6.005  0.00  0.00    +0.061 S 
ATOM     20  O   UNL     1      -7.568  -1.989  -5.393  0.00  0.00    -0.153 OA
ATOM     21  O   UNL     1      -6.463   0.124  -6.111  0.00  0.00    -0.153 OA
BRANCH  19  22
ATOM     22  C   UNL     1      -6.352  -1.923  -7.644  0.00  0.00    +0.106 C 
ATOM     23  C   UNL     1      -7.157  -2.950  -8.052  0.00  0.00    +0.035 C 
ATOM     24  C   UNL     1      -6.919  -3.411  -9.360  0.00  0.00    -0.013 C 
ATOM     25  C   UNL     1      -7.723  -3.939 -10.300  0.00  0.00    -0.021 C 
ATOM     26  C   UNL     1      -9.152  -4.386 -10.094  0.00  0.00    +0.037 C 
ATOM     27  C   UNL     1      -9.510  -5.451 -11.132  0.00  0.00    +0.005 C 
ATOM     28  C   UNL     1     -10.069  -4.777 -12.379  0.00  0.00    +0.001 C 
ATOM     29  C   UNL     1      -9.028  -3.870 -13.025  0.00  0.00    +0.006 C 
ATOM     30  C   UNL     1      -7.635  -4.473 -12.838  0.00  0.00    +0.055 C 
ATOM     31  C   UNL     1      -7.033  -3.978 -11.540  0.00  0.00    +0.040 C 
ATOM     32  N   UNL     1      -5.796  -3.577 -11.417  0.00  0.00    -0.276 NA
ATOM     33  C   UNL     1      -5.550  -3.312 -10.010  0.00  0.00    +0.159 C 
ATOM     34  C   UNL     1      -4.995  -1.956  -9.695  0.00  0.00    +0.006 C 
ATOM     35  C   UNL     1      -5.380  -1.343  -8.567  0.00  0.00    +0.027 C 
ENDBRANCH  19  22
ENDBRANCH   4  19
TORSDOF 5
