REMARK  Name = ZINC62777364
REMARK  5 active torsions:
REMARK  status: ('A' for Active; 'I' for Inactive)
REMARK    1  A    between atoms: C_1  and  N_2
REMARK    2  A    between atoms: C_6  and  C_13
REMARK    3  A    between atoms: N_9  and  C_12
REMARK    4  A    between atoms: C_13  and  C_15
REMARK    5  A    between atoms: C_13  and  N_21
REMARK                            x       y       z     vdW  Elec       q    Type
REMARK                         _______ _______ _______ _____ _____    ______ ____
ROOT
ATOM      1  C   UNL     1      -0.018   1.461   0.010  0.00  0.00    +0.154 C 
ATOM      2  N   UNL     1       0.002  -0.004   0.002  0.00  0.00    -0.295 N 
ATOM      3  C   UNL     1      -1.116  -0.835   0.003  0.00  0.00    +0.070 A 
ATOM      4  C   UNL     1      -2.481  -0.592   0.010  0.00  0.00    +0.028 A 
ATOM      5  C   UNL     1      -3.368  -1.651   0.009  0.00  0.00    +0.004 A 
ATOM      6  C   UNL     1      -2.899  -2.954  -0.000  0.00  0.00    -0.055 A 
ATOM      7  C   UNL     1      -1.541  -3.205  -0.007  0.00  0.00    +0.030 A 
ATOM      8  C   UNL     1      -0.643  -2.148  -0.007  0.00  0.00    +0.070 A 
ATOM      9  N   UNL     1       0.748  -2.075  -0.013  0.00  0.00    -0.295 N 
ATOM     10  C   UNL     1       1.104  -0.777  -0.013  0.00  0.00    +0.330 A 
ATOM     11  O   UNL     1       2.249  -0.365  -0.022  0.00  0.00    -0.246 OA
ATOM     12  C   UNL     1       1.666  -3.217  -0.023  0.00  0.00    +0.154 C 
ENDROOT
BRANCH   6  13
ATOM     13  C   UNL     1      -3.874  -4.102  -0.001  0.00  0.00    -0.010 C 
BRANCH  13  14
ATOM     14  C   UNL     1      -4.394  -4.318  -1.399  0.00  0.00    -0.020 A 
ATOM     15  C   UNL     1      -3.972  -5.266  -2.268  0.00  0.00    +0.107 A 
ATOM     16  N   UNL     1      -4.684  -5.127  -3.406  0.00  0.00    -0.285 N 
ATOM     17  H   UNL     1      -4.596  -5.671  -4.205  0.00  0.00    +0.188 HD
ATOM     18  N   UNL     1      -5.573  -4.059  -3.231  0.00  0.00    -0.182 NA
ATOM     19  C   UNL     1      -5.403  -3.579  -2.026  0.00  0.00    +0.136 A 
ENDBRANCH  13  14
BRANCH  13  20
ATOM     20  N   UNL     1      -4.996  -3.793   0.896  0.00  0.00    +0.385 N 
ATOM     21  H   UNL     1      -5.461  -2.956   0.577  0.00  0.00    -0.089 HD
ATOM     22  H   UNL     1      -5.649  -4.562   0.895  0.00  0.00    -0.089 HD
ATOM     23  H   UNL     1      -4.648  -3.648   1.832  0.00  0.00    -0.089 HD
ENDBRANCH  13  20
ENDBRANCH   6  13
TORSDOF 3
