REMARK  Name = ZINC06464521
REMARK  9 active torsions:
REMARK  status: ('A' for Active; 'I' for Inactive)
REMARK    1  A    between atoms: C_1  and  C_2
REMARK    2  A    between atoms: C_2  and  O_3
REMARK    3  A    between atoms: O_3  and  C_4
REMARK    4  A    between atoms: C_6  and  C_11
REMARK    5  A    between atoms: C_9  and  O_10
REMARK    6  A    between atoms: C_19  and  O_31
REMARK    7  A    between atoms: C_22  and  C_23
REMARK    8  A    between atoms: C_22  and  N_63
REMARK    9  A    between atoms: C_24  and  C_25
REMARK                            x       y       z     vdW  Elec       q    Type
REMARK                         _______ _______ _______ _____ _____    ______ ____
ROOT
ATOM      1  C   UNL     1      -2.925   1.625  -2.451  0.00  0.00    -0.031 C 
ATOM      2  C   UNL     1      -2.193   1.079  -1.221  0.00  0.00    +0.011 C 
ATOM      3  C   UNL     1      -2.901   1.572   0.043  0.00  0.00    +0.005 C 
ATOM      4  C   UNL     1      -2.161   1.057   1.279  0.00  0.00    +0.000 C 
ATOM      5  C   UNL     1      -0.728   1.579   1.268  0.00  0.00    +0.003 C 
ATOM      6  C   UNL     1      -0.013   1.086   0.008  0.00  0.00    +0.035 C 
ATOM      7  C   UNL     1      -0.751   1.591  -1.231  0.00  0.00    +0.066 C 
ATOM      8  C   UNL     1      -0.765   3.122  -1.236  0.00  0.00    +0.016 C 
ATOM      9  C   UNL     1      -1.540   3.615  -2.460  0.00  0.00    -0.075 C 
ATOM     10  N   UNL     1      -2.925   3.102  -2.388  0.00  0.00    +0.387 N 
ATOM     11  H   UNL     1      -3.343   3.397  -1.497  0.00  0.00    -0.080 HD
ENDROOT
BRANCH   1  14
ATOM     12  C   UNL     1      -6.022  -0.391  -3.236  0.00  0.00    +0.162 A 
ATOM     13  C   UNL     1      -4.714   0.064  -3.242  0.00  0.00    +0.051 A 
ATOM     14  C   UNL     1      -4.350   1.135  -2.446  0.00  0.00    -0.057 A 
ATOM     15  C   UNL     1      -5.292   1.760  -1.651  0.00  0.00    +0.006 A 
ATOM     16  C   UNL     1      -6.601   1.314  -1.643  0.00  0.00    +0.049 A 
ATOM     17  C   UNL     1      -6.971   0.239  -2.435  0.00  0.00    +0.158 A 
BRANCH  17  18
ATOM     18  O   UNL     1      -8.257  -0.202  -2.428  0.00  0.00    -0.503 OA
ATOM     19  H   UNL     1      -8.822   0.224  -3.088  0.00  0.00    +0.292 HD
ENDBRANCH  17  18
BRANCH  12  20
ATOM     20  O   UNL     1      -6.381  -1.446  -4.015  0.00  0.00    -0.489 OA
BRANCH  20  22
ATOM     21  C   UNL     1      -5.943  -3.206  -5.612  0.00  0.00    +0.048 C 
ATOM     22  C   UNL     1      -5.355  -2.043  -4.811  0.00  0.00    +0.226 C 
ENDBRANCH  20  22
ENDBRANCH  12  20
ENDBRANCH   1  14
BRANCH   7  23
ATOM     23  O   UNL     1      -0.087   1.119  -2.405  0.00  0.00    -0.388 OA
ATOM     24  H   UNL     1       0.832   1.410  -2.481  0.00  0.00    +0.210 HD
ENDBRANCH   7  23
BRANCH  10  25
ATOM     25  C   UNL     1      -3.726   3.654  -3.500  0.00  0.00    -0.050 C 
BRANCH  25  26
ATOM     26  C   UNL     1      -3.890   5.137  -3.288  0.00  0.00    -0.045 C 
ATOM     27  C   UNL     1      -3.545   5.986  -4.247  0.00  0.00    +0.002 C 
BRANCH  27  28
ATOM     28  C   UNL     1      -3.707   7.440  -4.040  0.00  0.00    -0.025 A 
ATOM     29  C   UNL     1      -4.228   7.923  -2.839  0.00  0.00    +0.008 A 
ATOM     30  C   UNL     1      -4.371   9.283  -2.650  0.00  0.00    +0.001 A 
ATOM     31  C   UNL     1      -4.011  10.165  -3.652  0.00  0.00    +0.000 A 
ATOM     32  C   UNL     1      -3.498   9.693  -4.847  0.00  0.00    +0.001 A 
ATOM     33  C   UNL     1      -3.345   8.336  -5.047  0.00  0.00    +0.008 A 
ENDBRANCH  27  28
ENDBRANCH  25  26
ENDBRANCH  10  25
TORSDOF 8
