REMARK  Name = ZINC12464298
REMARK  5 active torsions:
REMARK  status: ('A' for Active; 'I' for Inactive)
REMARK    1  A    between atoms: C_1  and  C_2
REMARK    2  A    between atoms: C_2  and  N_3
REMARK    3  A    between atoms: C_7  and  C_8
REMARK    4  A    between atoms: C_9  and  C_18
REMARK    5  A    between atoms: N_21  and  C_22
REMARK                            x       y       z     vdW  Elec       q    Type
REMARK                         _______ _______ _______ _____ _____    ______ ____
ROOT
ATOM      1  N   UNL     1       2.484   4.135   0.016  0.00  0.00    -0.246 N 
ATOM      2  C   UNL     1       1.288   3.574  -0.013  0.00  0.00    +0.259 C 
ATOM      3  O   UNL     1       0.285   4.250  -0.160  0.00  0.00    -0.269 OA
ATOM      4  C   UNL     1       1.200   2.158   0.132  0.00  0.00    +0.078 C 
ATOM      5  C   UNL     1       0.098   1.359   0.135  0.00  0.00    +0.030 C 
ATOM      6  S   UNL     1       2.921   1.713   0.315  0.00  0.00    -0.049 S 
ATOM      7  C   UNL     1       3.611   3.355   0.183  0.00  0.00    +0.168 C 
ATOM      8  N   UNL     1       4.871   3.728   0.238  0.00  0.00    -0.225 NA
ENDROOT
BRANCH   5   9
ATOM      9  C   UNL     1      -1.217   1.924  -0.170  0.00  0.00    +0.004 A 
ATOM     10  C   UNL     1      -2.323   1.903   0.633  0.00  0.00    +0.021 A 
ATOM     11  N   UNL     1      -3.354   2.527   0.007  0.00  0.00    -0.358 N 
ATOM     12  H   UNL     1      -4.242   2.638   0.381  0.00  0.00    +0.166 HD
ATOM     13  C   UNL     1      -2.959   2.982  -1.234  0.00  0.00    +0.047 A 
ATOM     14  C   UNL     1      -1.609   2.634  -1.402  0.00  0.00    +0.007 A 
ATOM     15  C   UNL     1      -0.944   2.965  -2.580  0.00  0.00    +0.010 A 
ATOM     16  C   UNL     1      -1.614   3.646  -3.573  0.00  0.00    +0.001 A 
ATOM     17  C   UNL     1      -2.946   3.995  -3.406  0.00  0.00    +0.002 A 
ATOM     18  C   UNL     1      -3.618   3.669  -2.248  0.00  0.00    +0.026 A 
ATOM     19  C   UNL     1      -2.388   1.281   2.004  0.00  0.00    +0.064 C 
ENDBRANCH   5   9
BRANCH   8  20
ATOM     20  C   UNL     1       5.854   2.792   0.411  0.00  0.00    +0.067 A 
ATOM     21  C   UNL     1       5.706   1.789   1.372  0.00  0.00    +0.028 A 
ATOM     22  C   UNL     1       6.699   0.846   1.538  0.00  0.00    +0.002 A 
ATOM     23  C   UNL     1       7.844   0.898   0.762  0.00  0.00    +0.000 A 
ATOM     24  C   UNL     1       7.999   1.891  -0.189  0.00  0.00    +0.002 A 
ATOM     25  C   UNL     1       7.012   2.838  -0.369  0.00  0.00    +0.028 A 
ENDBRANCH   8  20
BRANCH   1  27
ATOM     26  C   UNL     1       2.553   6.245   1.251  0.00  0.00    +0.025 C 
ATOM     27  C   UNL     1       2.615   5.587  -0.129  0.00  0.00    +0.112 C 
ENDBRANCH   1  27
TORSDOF 3
