REMARK  Name = ZINC40629083
REMARK  10 active torsions:
REMARK  status: ('A' for Active; 'I' for Inactive)
REMARK    1  A    between atoms: C_1  and  C_2
REMARK    2  A    between atoms: C_2  and  C_4
REMARK    3  A    between atoms: C_2  and  N_10
REMARK    4  A    between atoms: C_12  and  N_28
REMARK    5  A    between atoms: C_13  and  N_17
REMARK    6  A    between atoms: N_17  and  C_18
REMARK    7  A    between atoms: C_20  and  C_26
REMARK    8  A    between atoms: C_20  and  C_27
REMARK    9  A    between atoms: C_22  and  C_24
REMARK   10  A    between atoms: C_22  and  C_25
REMARK                            x       y       z     vdW  Elec       q    Type
REMARK                         _______ _______ _______ _____ _____    ______ ____
ROOT
ATOM      1  N   UNL     1       0.744  -0.740   0.924  0.00  0.00    -0.321 N 
ATOM      2  C   UNL     1       2.123  -0.883   0.889  0.00  0.00    +0.155 A 
ATOM      3  C   UNL     1       2.819  -1.288   2.024  0.00  0.00    +0.205 A 
ATOM      4  C   UNL     1       4.202  -1.416   1.938  0.00  0.00    +0.155 A 
ATOM      5  N   UNL     1       4.805  -1.149   0.781  0.00  0.00    -0.218 NA
ATOM      6  C   UNL     1       4.110  -0.768  -0.271  0.00  0.00    +0.225 A 
ATOM      7  N   UNL     1       2.799  -0.639  -0.231  0.00  0.00    -0.218 NA
ATOM      8  H   UNL     1       0.258  -0.919   1.744  0.00  0.00    +0.148 HD
ENDROOT
BRANCH   3   9
ATOM      9  N   UNL     1       2.107  -1.573   3.290  0.00  0.00    +0.063 N 
ATOM     10  O   UNL     1       1.705  -2.691   3.519  0.00  0.00    -0.126 OA
ATOM     11  O   UNL     1       1.927  -0.690   4.096  0.00  0.00    -0.126 OA
ENDBRANCH   3   9
BRANCH   1  13
ATOM     12  C   UNL     1       0.030   1.208  -0.371  0.00  0.00    +0.033 C 
ATOM     13  C   UNL     1       0.021  -0.319  -0.279  0.00  0.00    +0.099 C 
BRANCH  13  14
ATOM     14  C   UNL     1      -1.402  -0.810  -0.207  0.00  0.00    -0.028 A 
ATOM     15  C   UNL     1      -2.090  -0.763   0.991  0.00  0.00    +0.005 A 
ATOM     16  C   UNL     1      -3.395  -1.214   1.057  0.00  0.00    +0.000 A 
ATOM     17  C   UNL     1      -4.013  -1.710  -0.076  0.00  0.00    +0.000 A 
ATOM     18  C   UNL     1      -3.325  -1.756  -1.274  0.00  0.00    +0.000 A 
ATOM     19  C   UNL     1      -2.021  -1.302  -1.341  0.00  0.00    +0.005 A 
ENDBRANCH  13  14
ENDBRANCH   1  13
BRANCH   4  20
ATOM     20  N   UNL     1       4.941  -1.816   3.041  0.00  0.00    -0.324 N 
ATOM     21  H   UNL     1       4.494  -2.008   3.880  0.00  0.00    +0.148 HD
BRANCH  20  22
ATOM     22  C   UNL     1       6.399  -1.948   2.938  0.00  0.00    +0.069 C 
ATOM     23  C   UNL     1       6.742  -3.349   2.427  0.00  0.00    +0.009 C 
ATOM     24  C   UNL     1       8.259  -3.506   2.326  0.00  0.00    -0.072 C 
ATOM     25  N   UNL     1       8.928  -3.190   3.579  0.00  0.00    +0.386 N 
ATOM     26  C   UNL     1       8.531  -1.973   4.268  0.00  0.00    -0.072 C 
ATOM     27  C   UNL     1       7.020  -1.778   4.324  0.00  0.00    +0.009 C 
ATOM     28  C   UNL     1       9.034  -2.081   5.728  0.00  0.00    -0.010 C 
ATOM     29  C   UNL     1       9.195  -0.735   3.658  0.00  0.00    -0.010 C 
ATOM     30  C   UNL     1       8.545  -4.991   2.005  0.00  0.00    -0.010 C 
ATOM     31  C   UNL     1       8.800  -2.679   1.161  0.00  0.00    -0.010 C 
ATOM     32  H   UNL     1       8.799  -3.979   4.219  0.00  0.00    -0.084 HD
ATOM     33  H   UNL     1       9.935  -3.149   3.405  0.00  0.00    -0.084 HD
ENDBRANCH  20  22
ENDBRANCH   4  20
TORSDOF 5
