REMARK  Name = ZINC06980768
REMARK  6 active torsions:
REMARK  status: ('A' for Active; 'I' for Inactive)
REMARK    1  A    between atoms: C_1  and  C_2
REMARK    2  A    between atoms: C_7  and  N_8
REMARK    3  A    between atoms: C_9  and  C_23
REMARK    4  A    between atoms: C_12  and  S_13
REMARK    5  A    between atoms: S_13  and  C_14
REMARK    6  A    between atoms: C_14  and  C_15
REMARK                            x       y       z     vdW  Elec       q    Type
REMARK                         _______ _______ _______ _____ _____    ______ ____
ROOT
ATOM      1  S   UNL     1       2.806   0.187   2.682  0.00  0.00    -0.078 S 
ENDROOT
BRANCH   1   6
ATOM      2  N   UNL     1       0.025  -0.013   2.419  0.00  0.00    -0.274 N 
ATOM      3  C   UNL     1      -1.065   0.377   3.152  0.00  0.00    +0.135 A 
ATOM      4  N   UNL     1      -0.620   0.990   4.212  0.00  0.00    -0.133 NA
ATOM      5  N   UNL     1       0.665   1.016   4.202  0.00  0.00    -0.122 NA
ATOM      6  C   UNL     1       1.116   0.410   3.128  0.00  0.00    +0.197 A 
ATOM      7  C   UNL     1      -2.510   0.140   2.798  0.00  0.00    +0.088 C 
BRANCH   2  14
ATOM      8  C   UNL     1      -0.018   1.503   0.010  0.00  0.00    +0.046 C 
ATOM      9  C   UNL     1       0.002  -0.004   0.002  0.00  0.00    -0.027 A 
ATOM     10  C   UNL     1       0.006  -0.689  -1.198  0.00  0.00    +0.005 A 
ATOM     11  C   UNL     1       0.024  -2.071  -1.206  0.00  0.00    +0.000 A 
ATOM     12  C   UNL     1       0.039  -2.773  -0.014  0.00  0.00    +0.002 A 
ATOM     13  C   UNL     1       0.035  -2.093   1.188  0.00  0.00    +0.026 A 
ATOM     14  C   UNL     1       0.023  -0.705   1.200  0.00  0.00    +0.053 A 
ENDBRANCH   2  14
ENDBRANCH   1   6
BRANCH   1  15
ATOM     15  C   UNL     1       3.724   0.973   4.035  0.00  0.00    +0.153 C 
BRANCH  15  16
ATOM     16  C   UNL     1       5.204   0.852   3.775  0.00  0.00    +0.146 A 
ATOM     17  N   UNL     1       5.868  -0.200   4.223  0.00  0.00    -0.199 NA
ATOM     18  C   UNL     1       7.174  -0.310   3.995  0.00  0.00    +0.217 A 
ATOM     19  N   UNL     1       7.811   0.638   3.316  0.00  0.00    -0.181 NA
ATOM     20  C   UNL     1       7.140   1.693   2.868  0.00  0.00    +0.217 A 
ATOM     21  N   UNL     1       5.833   1.794   3.095  0.00  0.00    -0.199 NA
ATOM     22  N   UNL     1       7.797   2.680   2.162  0.00  0.00    -0.327 N 
ATOM     23  N   UNL     1       7.867  -1.409   4.463  0.00  0.00    -0.327 N 
ATOM     24  H   UNL     1       8.749   2.604   1.993  0.00  0.00    +0.145 HD
ATOM     25  H   UNL     1       7.307   3.451   1.835  0.00  0.00    +0.145 HD
ATOM     26  H   UNL     1       7.401  -2.100   4.959  0.00  0.00    +0.145 HD
ATOM     27  H   UNL     1       8.819  -1.489   4.296  0.00  0.00    +0.145 HD
ENDBRANCH  15  16
ENDBRANCH   1  15
TORSDOF 4
