REMARK  Name = ZINC01794838
REMARK  11 active torsions:
REMARK  status: ('A' for Active; 'I' for Inactive)
REMARK    1  A    between atoms: C_1  and  C_2
REMARK    2  A    between atoms: C_4  and  O_9
REMARK    3  A    between atoms: O_9  and  C_10
REMARK    4  A    between atoms: C_10  and  C_11
REMARK    5  A    between atoms: N_13  and  C_14
REMARK    6  A    between atoms: C_14  and  C_15
REMARK    7  A    between atoms: C_15  and  N_16
REMARK    8  A    between atoms: C_17  and  C_19
REMARK    9  A    between atoms: C_19  and  O_20
REMARK   10  A    between atoms: O_20  and  C_21
REMARK   11  A    between atoms: C_25  and  C_27
REMARK                            x       y       z     vdW  Elec       q    Type
REMARK                         _______ _______ _______ _____ _____    ______ ____
ROOT
ATOM      1  C   UNL     1      -3.014  -2.361   0.018  0.00  0.00    +0.123 C 
ENDROOT
BRANCH   1   4
ATOM      2  C   UNL     1      -1.412  -0.526   0.013  0.00  0.00    +0.251 C 
ATOM      3  O   UNL     1      -2.344   0.250   0.026  0.00  0.00    -0.272 OA
ATOM      4  N   UNL     1      -1.640  -1.854   0.008  0.00  0.00    -0.311 N 
ATOM      5  H   UNL     1      -0.894  -2.474  -0.003  0.00  0.00    +0.149 HD
BRANCH   2   6
ATOM      6  C   UNL     1       0.002  -0.004   0.002  0.00  0.00    +0.324 C 
BRANCH   6   7
ATOM      7  O   UNL     1      -0.017   1.425   0.010  0.00  0.00    -0.483 OA
BRANCH   7  11
ATOM      8  C   UNL     1       2.524   5.592   0.007  0.00  0.00    +0.045 C 
ATOM      9  C   UNL     1       2.463   4.086   0.000  0.00  0.00    -0.033 A 
ATOM     10  C   UNL     1       1.240   3.444   0.009  0.00  0.00    +0.050 A 
ATOM     11  C   UNL     1       1.185   2.058   0.002  0.00  0.00    +0.122 A 
ATOM     12  C   UNL     1       2.360   1.319  -0.008  0.00  0.00    +0.047 A 
ATOM     13  C   UNL     1       3.580   1.965  -0.022  0.00  0.00    +0.019 A 
ATOM     14  C   UNL     1       3.633   3.348  -0.015  0.00  0.00    +0.021 A 
ATOM     15 BR   UNL     1       5.306   4.229  -0.027  0.00  0.00    -0.050 Br
ENDBRANCH   7  11
ENDBRANCH   6   7
ENDBRANCH   2   6
ENDBRANCH   1   4
BRANCH   1  16
ATOM     16  C   UNL     1      -2.994  -3.891   0.010  0.00  0.00    +0.123 C 
BRANCH  16  17
ATOM     17  N   UNL     1      -4.368  -4.398   0.020  0.00  0.00    -0.311 N 
ATOM     18  C   UNL     1      -4.596  -5.726   0.015  0.00  0.00    +0.251 C 
ATOM     19  O   UNL     1      -3.664  -6.502   0.002  0.00  0.00    -0.272 OA
ATOM     20  H   UNL     1      -5.114  -3.778   0.031  0.00  0.00    +0.149 HD
BRANCH  18  21
ATOM     21  C   UNL     1      -6.010  -6.248   0.026  0.00  0.00    +0.324 C 
BRANCH  21  22
ATOM     22  O   UNL     1      -5.991  -7.677   0.018  0.00  0.00    -0.483 OA
BRANCH  22  23
ATOM     23  C   UNL     1      -7.193  -8.310   0.026  0.00  0.00    +0.122 A 
ATOM     24  C   UNL     1      -8.367  -7.571   0.047  0.00  0.00    +0.047 A 
ATOM     25  C   UNL     1      -9.588  -8.217   0.049  0.00  0.00    +0.019 A 
ATOM     26  C   UNL     1      -9.641  -9.600   0.043  0.00  0.00    +0.021 A 
ATOM     27  C   UNL     1      -8.472 -10.338   0.027  0.00  0.00    -0.033 A 
ATOM     28  C   UNL     1      -7.248  -9.696   0.019  0.00  0.00    +0.050 A 
ATOM     29  C   UNL     1      -8.532 -11.844   0.019  0.00  0.00    +0.045 C 
ATOM     30 BR   UNL     1     -11.314 -10.481   0.053  0.00  0.00    -0.050 Br
ENDBRANCH  22  23
ENDBRANCH  21  22
ENDBRANCH  18  21
ENDBRANCH  16  17
ENDBRANCH   1  16
TORSDOF 9
