REMARK  Name = ZINC20291653
REMARK  7 active torsions:
REMARK  status: ('A' for Active; 'I' for Inactive)
REMARK    1  A    between atoms: C_4  and  C_7
REMARK    2  A    between atoms: N_8  and  N_9
REMARK    3  A    between atoms: C_13  and  S_16
REMARK    4  A    between atoms: N_14  and  N_15
REMARK    5  A    between atoms: S_16  and  C_17
REMARK    6  A    between atoms: C_17  and  C_18
REMARK    7  A    between atoms: N_20  and  C_21
REMARK                            x       y       z     vdW  Elec       q    Type
REMARK                         _______ _______ _______ _____ _____    ______ ____
ROOT
ATOM      1  N   UNL     1       4.942  -2.661   0.001  0.00  0.00    -0.204 N 
ATOM      2  C   UNL     1       4.964  -4.048  -0.016  0.00  0.00    +0.254 A 
ATOM      3  N   UNL     1       3.916  -4.836  -0.017  0.00  0.00    -0.109 NA
ATOM      4  N   UNL     1       4.370  -6.161  -0.038  0.00  0.00    -0.119 NA
ATOM      5  C   UNL     1       5.682  -6.139  -0.049  0.00  0.00    +0.210 A 
ATOM      6  N   UNL     1       6.083  -4.834  -0.041  0.00  0.00    -0.211 N 
ATOM      7  H   UNL     1       5.774  -2.163  -0.004  0.00  0.00    +0.177 HD
ENDROOT
BRANCH   6   8
ATOM      8  N   UNL     1       7.375  -4.391  -0.053  0.00  0.00    -0.294 N 
ATOM      9  H   UNL     1       7.730  -4.285   0.885  0.00  0.00    +0.163 HD
ATOM     10  H   UNL     1       7.963  -5.006  -0.595  0.00  0.00    +0.163 HD
ENDBRANCH   6   8
BRANCH   1  12
ATOM     11  C   UNL     1       3.697  -0.682   0.042  0.00  0.00    +0.138 C 
ATOM     12  N   UNL     1       3.718  -1.980   0.026  0.00  0.00    -0.188 NA
BRANCH  11  16
ATOM     13  C   UNL     1      -0.011   1.381   0.117  0.00  0.00    +0.000 A 
ATOM     14  C   UNL     1       1.174   2.095   0.111  0.00  0.00    +0.001 A 
ATOM     15  C   UNL     1       2.383   1.431   0.086  0.00  0.00    +0.009 A 
ATOM     16  C   UNL     1       2.409   0.035   0.069  0.00  0.00    -0.005 A 
ATOM     17  C   UNL     1       1.208  -0.680   0.076  0.00  0.00    +0.009 A 
ATOM     18  C   UNL     1       0.007  -0.003   0.100  0.00  0.00    +0.001 A 
ENDBRANCH  11  16
ENDBRANCH   1  12
BRANCH   5  19
ATOM     19  S   UNL     1       6.740  -7.548  -0.076  0.00  0.00    -0.075 S 
BRANCH  19  20
ATOM     20  C   UNL     1       5.597  -8.956  -0.084  0.00  0.00    +0.173 C 
BRANCH  20  21
ATOM     21  C   UNL     1       6.383 -10.241  -0.107  0.00  0.00    +0.228 C 
ATOM     22  O   UNL     1       7.596 -10.211  -0.117  0.00  0.00    -0.275 OA
ATOM     23  N   UNL     1       5.739 -11.425  -0.117  0.00  0.00    -0.284 N 
ATOM     24  H   UNL     1       4.772 -11.452  -0.044  0.00  0.00    +0.155 HD
BRANCH  23  25
ATOM     25  C   UNL     1       6.465 -12.616  -0.234  0.00  0.00    +0.047 A 
ATOM     26  C   UNL     1       7.720 -12.726   0.351  0.00  0.00    +0.024 A 
ATOM     27  C   UNL     1       8.434 -13.902   0.235  0.00  0.00    +0.002 A 
ATOM     28  C   UNL     1       7.901 -14.971  -0.463  0.00  0.00    +0.001 A 
ATOM     29  C   UNL     1       6.652 -14.865  -1.047  0.00  0.00    +0.017 A 
ATOM     30  C   UNL     1       5.930 -13.693  -0.929  0.00  0.00    +0.039 A 
ATOM     31 BR   UNL     1       4.219 -13.552  -1.721  0.00  0.00    -0.048 Br
ENDBRANCH  23  25
ENDBRANCH  20  21
ENDBRANCH  19  20
ENDBRANCH   5  19
TORSDOF 7
