REMARK  Name = ZINC21537543
REMARK  4 active torsions:
REMARK  status: ('A' for Active; 'I' for Inactive)
REMARK    1  A    between atoms: C_1  and  C_2
REMARK    2  A    between atoms: C_14  and  C_19
REMARK    3  A    between atoms: N_21  and  C_22
REMARK    4  A    between atoms: C_22  and  C_23
REMARK                            x       y       z     vdW  Elec       q    Type
REMARK                         _______ _______ _______ _____ _____    ______ ____
ROOT
ATOM      1  C   UNL     1      -1.435   5.157   0.178  0.00  0.00    +0.009 C 
ATOM      2  C   UNL     1      -1.441   3.629   0.102  0.00  0.00    +0.003 C 
ATOM      3  C   UNL     1      -0.751   3.179  -1.189  0.00  0.00    +0.006 C 
ATOM      4  C   UNL     1      -0.708   1.649  -1.228  0.00  0.00    +0.019 C 
ATOM      5  C   UNL     1       0.023   1.132   0.013  0.00  0.00    +0.107 C 
ATOM      6  N   UNL     1      -0.677   1.588   1.220  0.00  0.00    -0.308 N 
ATOM      7  C   UNL     1      -0.689   3.054   1.304  0.00  0.00    +0.110 C 
ATOM      8  C   UNL     1      -0.120   1.031   2.357  0.00  0.00    +0.184 A 
ATOM      9  N   UNL     1       0.898   0.220   2.460  0.00  0.00    -0.139 NA
ATOM     10  N   UNL     1       1.331  -0.250   3.698  0.00  0.00    -0.169 N 
ATOM     11  C   UNL     1       2.376  -1.096   3.933  0.00  0.00    +0.287 A 
ATOM     12  O   UNL     1       3.041  -1.522   3.004  0.00  0.00    -0.265 OA
ATOM     13  C   UNL     1       2.684  -1.476   5.258  0.00  0.00    +0.121 A 
ATOM     14  C   UNL     1       1.909  -0.976   6.310  0.00  0.00    +0.132 A 
ATOM     15  N   UNL     1       0.907  -0.159   6.026  0.00  0.00    -0.229 NA
ATOM     16  C   UNL     1       0.634   0.185   4.788  0.00  0.00    +0.200 A 
ATOM     17  S   UNL     1      -0.601   1.242   4.064  0.00  0.00    -0.013 S 
ENDROOT
BRANCH  13  18
ATOM     18  C   UNL     1       3.804  -2.385   5.527  0.00  0.00    +0.251 C 
ATOM     19  O   UNL     1       4.131  -2.624   6.675  0.00  0.00    -0.270 OA
ATOM     20  N   UNL     1       4.470  -2.956   4.504  0.00  0.00    -0.307 N 
ATOM     21  H   UNL     1       4.230  -2.677   3.468  0.00  0.00    +0.149 HD
BRANCH  20  22
ATOM     22  C   UNL     1       5.514  -3.949   4.773  0.00  0.00    +0.141 C 
BRANCH  22  23
ATOM     23  C   UNL     1       6.098  -4.428   3.469  0.00  0.00    -0.012 A 
ATOM     24  C   UNL     1       5.693  -5.636   2.933  0.00  0.00    +0.006 A 
ATOM     25  C   UNL     1       6.226  -6.074   1.735  0.00  0.00    +0.000 A 
ATOM     26  C   UNL     1       7.171  -5.309   1.077  0.00  0.00    +0.001 A 
ATOM     27  C   UNL     1       7.581  -4.104   1.615  0.00  0.00    +0.020 A 
ATOM     28  C   UNL     1       7.044  -3.663   2.812  0.00  0.00    +0.046 A 
ATOM     29 CL   UNL     1       7.559  -2.149   3.488  0.00  0.00    -0.083 Cl
ENDBRANCH  22  23
ENDBRANCH  20  22
ENDBRANCH  13  18
TORSDOF 3
