REMARK  Name = ZINC01516027
REMARK  4 active torsions:
REMARK  status: ('A' for Active; 'I' for Inactive)
REMARK    1  A    between atoms: C_4  and  C_7
REMARK    2  A    between atoms: C_7  and  C_9
REMARK    3  A    between atoms: C_12  and  N_15
REMARK    4  A    between atoms: C_17  and  C_30
REMARK                            x       y       z     vdW  Elec       q    Type
REMARK                         _______ _______ _______ _____ _____    ______ ____
ROOT
ATOM      1  N   UNL     1       1.572   7.437  -1.282  0.00  0.00    -0.213 NA
ATOM      2  C   UNL     1       1.389   6.226  -0.791  0.00  0.00    +0.233 A 
ATOM      3  C   UNL     1       0.035   5.679  -0.594  0.00  0.00    +0.099 A 
ATOM      4  C   UNL     1      -0.098   4.292  -0.608  0.00  0.00    +0.030 A 
ATOM      5  C   UNL     1       1.067   3.515  -0.775  0.00  0.00    +0.026 A 
ATOM      6  C   UNL     1       0.980   2.074  -1.017  0.00  0.00    -0.007 A 
ATOM      7  C   UNL     1      -0.250   1.412  -1.066  0.00  0.00    +0.009 A 
ATOM      8  C   UNL     1      -0.285   0.068  -1.300  0.00  0.00    +0.001 A 
ATOM      9  C   UNL     1       0.890  -0.653  -1.491  0.00  0.00    +0.001 A 
ATOM     10  C   UNL     1       2.105  -0.038  -1.448  0.00  0.00    +0.008 A 
ATOM     11  C   UNL     1       2.176   1.344  -1.208  0.00  0.00    -0.017 A 
ATOM     12  C   UNL     1       3.415   2.013  -1.156  0.00  0.00    +0.012 A 
ATOM     13  C   UNL     1       3.482   3.347  -0.917  0.00  0.00    +0.047 A 
ATOM     14  C   UNL     1       2.333   4.117  -0.719  0.00  0.00    +0.138 A 
ATOM     15  O   UNL     1       2.440   5.440  -0.448  0.00  0.00    -0.437 OA
ENDROOT
BRANCH   1  19
ATOM     16  C   UNL     1       5.374   9.025  -1.491  0.00  0.00    +0.022 A 
ATOM     17  C   UNL     1       4.828   8.366  -2.601  0.00  0.00    +0.014 A 
ATOM     18  C   UNL     1       3.571   7.841  -2.532  0.00  0.00    +0.028 A 
ATOM     19  C   UNL     1       2.826   7.960  -1.351  0.00  0.00    +0.068 A 
ATOM     20  C   UNL     1       3.370   8.624  -0.243  0.00  0.00    +0.028 A 
ATOM     21  C   UNL     1       4.629   9.144  -0.311  0.00  0.00    +0.014 A 
BRANCH  16  22
ATOM     22  C   UNL     1       6.730   9.592  -1.566  0.00  0.00    +0.193 C 
ATOM     23  O   UNL     1       6.999  10.607  -0.954  0.00  0.00    -0.287 OA
BRANCH  22  27
ATOM     24  C   UNL     1       9.703   7.680  -3.921  0.00  0.00    +0.000 A 
ATOM     25  C   UNL     1       9.965   8.912  -3.348  0.00  0.00    +0.001 A 
ATOM     26  C   UNL     1       9.004   9.539  -2.583  0.00  0.00    +0.012 A 
ATOM     27  C   UNL     1       7.764   8.926  -2.386  0.00  0.00    +0.022 A 
ATOM     28  C   UNL     1       7.509   7.680  -2.962  0.00  0.00    +0.012 A 
ATOM     29  C   UNL     1       8.477   7.068  -3.730  0.00  0.00    +0.001 A 
ENDBRANCH  22  27
ENDBRANCH  16  22
ENDBRANCH   1  19
BRANCH   3  30
ATOM     30  C   UNL     1      -1.127   6.559  -0.393  0.00  0.00    +0.247 C 
ATOM     31  O   UNL     1      -2.234   6.079  -0.233  0.00  0.00    -0.270 OA
ATOM     32  N   UNL     1      -0.966   7.897  -0.385  0.00  0.00    -0.325 N 
ATOM     33  H   UNL     1      -0.084   8.280  -0.513  0.00  0.00    +0.145 HD
ATOM     34  H   UNL     1      -1.732   8.477  -0.252  0.00  0.00    +0.145 HD
ENDBRANCH   3  30
TORSDOF 4
