REMARK  Name = ZINC39991604
REMARK  14 active torsions:
REMARK  status: ('A' for Active; 'I' for Inactive)
REMARK    1  A    between atoms: C_1  and  C_2
REMARK    2  A    between atoms: C_5  and  S_8
REMARK    3  A    between atoms: S_8  and  C_9
REMARK    4  A    between atoms: C_11  and  C_37
REMARK    5  A    between atoms: C_12  and  C_14
REMARK    6  A    between atoms: C_14  and  C_16
REMARK    7  A    between atoms: N_20  and  C_30
REMARK    8  A    between atoms: C_21  and  C_23
REMARK    9  A    between atoms: C_26  and  O_29
REMARK   10  A    between atoms: C_30  and  C_31
REMARK   11  A    between atoms: C_31  and  C_32
REMARK   12  A    between atoms: C_32  and  N_33
REMARK   13  A    between atoms: N_33  and  C_34
REMARK   14  A    between atoms: N_33  and  C_35
REMARK                            x       y       z     vdW  Elec       q    Type
REMARK                         _______ _______ _______ _____ _____    ______ ____
ROOT
ATOM      1  C   UNL     1       0.629  -8.386   4.515  0.00  0.00    +0.077 C 
ATOM      2  C   UNL     1       0.777  -9.504   5.261  0.00  0.00    +0.249 C 
ATOM      3  C   UNL     1       0.679 -10.688   4.386  0.00  0.00    +0.288 C 
ATOM      4  O   UNL     1       0.771 -11.841   4.760  0.00  0.00    -0.266 OA
ATOM      5  N   UNL     1       0.474 -10.305   3.113  0.00  0.00    -0.284 N 
ATOM      6  C   UNL     1       0.419  -8.838   3.089  0.00  0.00    +0.145 C 
ATOM      7  O   UNL     1       0.982  -9.533   6.599  0.00  0.00    -0.282 OA
ENDROOT
BRANCH   6   8
ATOM      8  C   UNL     1       1.514  -8.296   2.206  0.00  0.00    -0.022 A 
ATOM      9  C   UNL     1       2.781  -8.848   2.261  0.00  0.00    +0.009 A 
ATOM     10  C   UNL     1       3.786  -8.352   1.454  0.00  0.00    +0.046 A 
ATOM     11  C   UNL     1       3.524  -7.301   0.587  0.00  0.00    +0.117 A 
ATOM     12  C   UNL     1       2.252  -6.750   0.534  0.00  0.00    +0.046 A 
ATOM     13  C   UNL     1       1.249  -7.252   1.339  0.00  0.00    +0.009 A 
BRANCH  11  14
ATOM     14  O   UNL     1       4.512  -6.812  -0.208  0.00  0.00    -0.507 OA
ATOM     15  H   UNL     1       4.575  -7.246  -1.070  0.00  0.00    +0.292 HD
ENDBRANCH  11  14
ENDBRANCH   6   8
BRANCH   1  16
ATOM     16  C   UNL     1       0.661  -7.000   4.999  0.00  0.00    +0.203 C 
ATOM     17  O   UNL     1       1.687  -6.543   5.472  0.00  0.00    -0.286 OA
BRANCH  16  21
ATOM     18  C   UNL     1      -2.865  -5.112   4.592  0.00  0.00    +0.140 A 
ATOM     19  N   UNL     1      -1.879  -4.364   5.060  0.00  0.00    -0.237 NA
ATOM     20  C   UNL     1      -0.679  -4.851   5.242  0.00  0.00    +0.058 A 
ATOM     21  C   UNL     1      -0.503  -6.193   4.915  0.00  0.00    +0.083 A 
ATOM     22  S   UNL     1      -2.149  -6.619   4.371  0.00  0.00    -0.057 S 
ATOM     23  C   UNL     1       0.450  -4.006   5.773  0.00  0.00    +0.067 C 
BRANCH  18  24
ATOM     24  S   UNL     1      -4.535  -4.642   4.282  0.00  0.00    -0.063 S 
BRANCH  24  29
ATOM     25  C   UNL     1      -4.620   1.288   5.403  0.00  0.00    +0.044 C 
ATOM     26  C   UNL     1      -4.599  -0.193   5.123  0.00  0.00    -0.050 A 
ATOM     27  C   UNL     1      -4.220  -0.653   3.875  0.00  0.00    +0.004 A 
ATOM     28  C   UNL     1      -4.200  -2.009   3.615  0.00  0.00    +0.015 A 
ATOM     29  C   UNL     1      -4.559  -2.911   4.609  0.00  0.00    +0.015 A 
ATOM     30  C   UNL     1      -4.938  -2.445   5.862  0.00  0.00    +0.015 A 
ATOM     31  C   UNL     1      -4.952  -1.088   6.117  0.00  0.00    +0.004 A 
ENDBRANCH  24  29
ENDBRANCH  18  24
ENDBRANCH  16  21
ENDBRANCH   1  16
BRANCH   5  32
ATOM     32  C   UNL     1       0.325 -11.193   1.958  0.00  0.00    +0.107 C 
BRANCH  32  33
ATOM     33  C   UNL     1      -1.152 -11.545   1.772  0.00  0.00    +0.000 C 
BRANCH  33  34
ATOM     34  C   UNL     1      -1.307 -12.473   0.565  0.00  0.00    -0.078 C 
BRANCH  34  35
ATOM     35  N   UNL     1      -2.726 -12.811   0.387  0.00  0.00    +0.376 N 
ATOM     36  C   UNL     1      -3.479 -11.598   0.044  0.00  0.00    -0.097 C 
ATOM     37  C   UNL     1      -2.862 -13.795  -0.696  0.00  0.00    -0.097 C 
ATOM     38  H   UNL     1      -3.088 -13.201   1.244  0.00  0.00    -0.083 HD
ENDBRANCH  34  35
ENDBRANCH  33  34
ENDBRANCH  32  33
ENDBRANCH   5  32
TORSDOF 10
