REMARK  Name = ZINC04686221
REMARK  10 active torsions:
REMARK  status: ('A' for Active; 'I' for Inactive)
REMARK    1  A    between atoms: C_1  and  C_2
REMARK    2  A    between atoms: C_2  and  C_3
REMARK    3  A    between atoms: C_3  and  C_5
REMARK    4  A    between atoms: C_3  and  N_6
REMARK    5  A    between atoms: C_7  and  C_9
REMARK    6  A    between atoms: C_9  and  S_10
REMARK    7  A    between atoms: S_10  and  C_11
REMARK    8  A    between atoms: C_15  and  C_19
REMARK    9  A    between atoms: N_22  and  C_23
REMARK   10  A    between atoms: C_27  and  C_29
REMARK                            x       y       z     vdW  Elec       q    Type
REMARK                         _______ _______ _______ _____ _____    ______ ____
ROOT
ATOM      1  C   UNL     1      -2.527   7.606   2.991  0.00  0.00    +0.177 A 
ATOM      2  N   UNL     1      -1.476   8.008   2.320  0.00  0.00    -0.201 NA
ATOM      3  C   UNL     1      -1.147   9.304   2.210  0.00  0.00    +0.187 A 
ATOM      4  C   UNL     1      -1.944  10.277   2.827  0.00  0.00    +0.082 A 
ATOM      5  C   UNL     1      -1.370  11.529   2.548  0.00  0.00    +0.046 A 
ATOM      6  N   UNL     1      -0.305  11.340   1.818  0.00  0.00    -0.279 N 
ATOM      7  N   UNL     1      -0.135   9.969   1.588  0.00  0.00    -0.153 NA
ATOM      8  H   UNL     1       0.296  12.200   1.489  0.00  0.00    +0.189 HD
ATOM      9  C   UNL     1      -1.894  12.863   3.014  0.00  0.00    +0.066 C 
ATOM     10  C   UNL     1      -3.125   9.834   3.580  0.00  0.00    +0.124 A 
ATOM     11  N   UNL     1      -3.912  10.692   4.181  0.00  0.00    -0.384 N 
ATOM     12  N   UNL     1      -3.376   8.471   3.626  0.00  0.00    -0.275 N 
ATOM     13  H   UNL     1      -4.790  10.336   4.739  0.00  0.00    +0.157 HD
ATOM     14  H   UNL     1      -3.695  11.769   4.127  0.00  0.00    +0.157 HD
ENDROOT
BRANCH  12  15
ATOM     15  C   UNL     1      -4.488   7.983   4.324  0.00  0.00    +0.051 A 
ATOM     16  C   UNL     1      -5.771   8.296   3.893  0.00  0.00    +0.028 A 
ATOM     17  C   UNL     1      -6.866   7.807   4.579  0.00  0.00    +0.022 A 
ATOM     18  C   UNL     1      -6.686   7.017   5.700  0.00  0.00    +0.044 A 
ATOM     19  C   UNL     1      -5.409   6.709   6.135  0.00  0.00    -0.030 A 
ATOM     20  C   UNL     1      -4.310   7.189   5.449  0.00  0.00    +0.031 A 
ATOM     21  C   UNL     1      -5.216   5.848   7.356  0.00  0.00    +0.045 C 
ATOM     22 CL   UNL     1      -8.064   6.411   6.564  0.00  0.00    -0.083 Cl
ENDBRANCH  12  15
BRANCH   1  23
ATOM     23  S   UNL     1      -2.868   5.878   3.071  0.00  0.00    -0.078 S 
BRANCH  23  24
ATOM     24  C   UNL     1      -1.486   5.240   2.091  0.00  0.00    +0.173 C 
BRANCH  24  26
ATOM     25  N   UNL     1      -0.643   3.040   1.338  0.00  0.00    -0.312 N 
ATOM     26  C   UNL     1      -1.573   3.737   2.021  0.00  0.00    +0.224 C 
ATOM     27  O   UNL     1      -2.479   3.155   2.578  0.00  0.00    -0.275 OA
ATOM     28  H   UNL     1       0.179   3.568   0.832  0.00  0.00    +0.149 HD
BRANCH  25  29
ATOM     29  C   UNL     1      -0.727   1.579   1.269  0.00  0.00    +0.070 C 
ATOM     30  C   UNL     1      -0.063   0.972   2.506  0.00  0.00    +0.028 C 
BRANCH  29  32
ATOM     31  C   UNL     1      -0.750   1.592  -1.229  0.00  0.00    +0.005 C 
ATOM     32  C   UNL     1      -0.010   1.085   0.011  0.00  0.00    +0.018 C 
ENDBRANCH  29  32
ENDBRANCH  25  29
ENDBRANCH  24  26
ENDBRANCH  23  24
ENDBRANCH   1  23
TORSDOF 6
