REMARK  Name = ZINC39851991
REMARK  5 active torsions:
REMARK  status: ('A' for Active; 'I' for Inactive)
REMARK    1  A    between atoms: C_1  and  C_2
REMARK    2  A    between atoms: C_6  and  C_7
REMARK    3  A    between atoms: N_9  and  N_10
REMARK    4  A    between atoms: C_11  and  C_13
REMARK    5  A    between atoms: C_18  and  N_19
REMARK                            x       y       z     vdW  Elec       q    Type
REMARK                         _______ _______ _______ _____ _____    ______ ____
ROOT
ATOM      1  C   UNL     1       1.078  -1.455   2.566  0.00  0.00    +0.296 C 
ATOM      2  O   UNL     1       1.320  -0.267   2.671  0.00  0.00    -0.265 OA
ATOM      3  N   UNL     1       0.724  -2.169   3.652  0.00  0.00    -0.228 N 
ATOM      4  H   UNL     1       0.531  -3.116   3.568  0.00  0.00    +0.173 HD
ENDROOT
BRANCH   1  10
ATOM      5  C   UNL     1       1.872  -0.052  -0.116  0.00  0.00    +0.048 C 
ATOM      6  C   UNL     1       1.517  -1.504   0.080  0.00  0.00    +0.006 A 
ATOM      7  C   UNL     1       1.483  -2.494  -0.904  0.00  0.00    +0.023 A 
ATOM      8  C   UNL     1       1.115  -3.654  -0.296  0.00  0.00    +0.112 A 
ATOM      9  O   UNL     1       0.927  -3.413   1.002  0.00  0.00    -0.454 OA
ATOM     10  C   UNL     1       1.171  -2.109   1.256  0.00  0.00    +0.194 A 
ATOM     11  C   UNL     1       0.962  -4.965  -1.028  0.00  0.00    +0.075 C 
ATOM     12  C   UNL     1       0.829  -4.684  -2.529  0.00  0.00    +0.010 C 
ATOM     13  C   UNL     1       1.965  -3.760  -2.985  0.00  0.00    +0.034 C 
ATOM     14  C   UNL     1       1.781  -2.384  -2.365  0.00  0.00    +0.090 C 
ATOM     15  S   UNL     1       0.469  -1.454  -3.231  0.00  0.00    -0.138 S 
ATOM     16  C   UNL     1       1.316   0.021  -3.908  0.00  0.00    +0.081 C 
ATOM     17  C   UNL     1       2.796  -0.379  -4.135  0.00  0.00    +0.081 C 
ATOM     18  S   UNL     1       3.264  -1.349  -2.647  0.00  0.00    -0.138 S 
ENDBRANCH   1  10
BRANCH   3  19
ATOM     19  N   UNL     1       0.635  -1.544   4.903  0.00  0.00    -0.230 N 
ATOM     20  C   UNL     1       0.282  -2.259   5.990  0.00  0.00    +0.262 C 
ATOM     21  O   UNL     1       0.040  -3.445   5.885  0.00  0.00    -0.269 OA
ATOM     22  H   UNL     1       0.829  -0.597   4.987  0.00  0.00    +0.173 HD
BRANCH  20  23
ATOM     23  C   UNL     1       0.188  -1.599   7.310  0.00  0.00    +0.068 A 
ATOM     24  C   UNL     1       1.278  -0.890   7.818  0.00  0.00    +0.015 A 
ATOM     25  C   UNL     1       1.183  -0.277   9.050  0.00  0.00    +0.001 A 
ATOM     26  C   UNL     1       0.013  -0.364   9.782  0.00  0.00    +0.002 A 
ATOM     27  C   UNL     1      -1.071  -1.066   9.284  0.00  0.00    +0.033 A 
ATOM     28  C   UNL     1      -0.992  -1.679   8.051  0.00  0.00    +0.138 A 
BRANCH  28  29
ATOM     29  N   UNL     1      -2.154  -2.424   7.517  0.00  0.00    +0.057 N 
ATOM     30  O   UNL     1      -3.130  -2.598   8.209  0.00  0.00    -0.126 OA
ATOM     31  O   UNL     1      -2.127  -2.859   6.389  0.00  0.00    -0.126 OA
ENDBRANCH  28  29
ENDBRANCH  20  23
ENDBRANCH   3  19
TORSDOF 4
