REMARK  Name = ZINC18120567
REMARK  7 active torsions:
REMARK  status: ('A' for Active; 'I' for Inactive)
REMARK    1  A    between atoms: C_1  and  C_2
REMARK    2  A    between atoms: C_14  and  C_16
REMARK    3  A    between atoms: C_24  and  C_27
REMARK    4  A    between atoms: C_30  and  O_35
REMARK    5  A    between atoms: C_31  and  O_33
REMARK    6  A    between atoms: O_33  and  C_34
REMARK    7  A    between atoms: O_35  and  C_36
REMARK                            x       y       z     vdW  Elec       q    Type
REMARK                         _______ _______ _______ _____ _____    ______ ____
ROOT
ATOM      1  C   UNL     1      -1.130   5.288  -2.077  0.00  0.00    +0.110 C 
ATOM      2  C   UNL     1      -0.548   5.969  -0.865  0.00  0.00    +0.218 C 
ATOM      3  O   UNL     1      -0.535   7.180  -0.797  0.00  0.00    -0.276 OA
ATOM      4  N   UNL     1      -0.043   5.233   0.144  0.00  0.00    -0.255 N 
ATOM      5  C   UNL     1      -0.063   3.840   0.057  0.00  0.00    +0.058 A 
ATOM      6  C   UNL     1      -1.254   3.131   0.047  0.00  0.00    +0.025 A 
ATOM      7  C   UNL     1      -1.221   1.748   0.017  0.00  0.00    +0.002 A 
ATOM      8  C   UNL     1      -0.013   1.076   0.008  0.00  0.00    +0.002 A 
ATOM      9  C   UNL     1       1.179   1.781   0.000  0.00  0.00    +0.025 A 
ATOM     10  C   UNL     1       1.147   3.165   0.008  0.00  0.00    +0.053 A 
ATOM     11  N   UNL     1       2.299   3.934  -0.101  0.00  0.00    -0.316 N 
ATOM     12  C   UNL     1       2.756   4.789   0.848  0.00  0.00    +0.017 C 
ATOM     13  C   UNL     1       1.994   5.684   1.501  0.00  0.00    +0.040 C 
ATOM     14  C   UNL     1       0.513   5.897   1.304  0.00  0.00    +0.182 C 
ATOM     15  C   UNL     1       2.571   6.533   2.476  0.00  0.00    +0.163 C 
ATOM     16  O   UNL     1       1.863   7.345   3.038  0.00  0.00    -0.292 OA
ATOM     17  C   UNL     1       4.024   6.464   2.840  0.00  0.00    +0.088 C 
ATOM     18  C   UNL     1       4.520   5.034   2.596  0.00  0.00    +0.032 C 
ATOM     19  C   UNL     1       4.245   4.689   1.134  0.00  0.00    +0.059 C 
ATOM     20  H   UNL     1       2.815   3.853  -0.918  0.00  0.00    +0.152 HD
ENDROOT
BRANCH  18  21
ATOM     21  C   UNL     1       6.000   4.953   2.870  0.00  0.00    -0.040 A 
ATOM     22  C   UNL     1       6.877   5.758   2.166  0.00  0.00    +0.008 A 
ATOM     23  C   UNL     1       8.234   5.691   2.417  0.00  0.00    +0.049 A 
ATOM     24  C   UNL     1       8.720   4.809   3.369  0.00  0.00    +0.161 A 
ATOM     25  C   UNL     1       7.839   3.996   4.074  0.00  0.00    +0.162 A 
ATOM     26  C   UNL     1       6.479   4.071   3.821  0.00  0.00    +0.053 A 
BRANCH  25  27
ATOM     27  O   UNL     1       8.311   3.128   5.008  0.00  0.00    -0.491 OA
ATOM     28  C   UNL     1       7.348   2.324   5.692  0.00  0.00    +0.277 C 
ENDBRANCH  25  27
BRANCH  24  29
ATOM     29  O   UNL     1      10.056   4.739   3.613  0.00  0.00    -0.491 OA
ATOM     30  C   UNL     1      10.902   5.604   2.852  0.00  0.00    +0.277 C 
ENDBRANCH  24  29
ENDBRANCH  18  21
BRANCH  14  31
ATOM     31  C   UNL     1      -0.205   5.396   2.531  0.00  0.00    +0.130 A 
ATOM     32  C   UNL     1      -0.577   6.143   3.585  0.00  0.00    +0.047 A 
ATOM     33  C   UNL     1      -1.217   5.274   4.498  0.00  0.00    +0.041 A 
ATOM     34  C   UNL     1      -1.190   4.046   3.951  0.00  0.00    +0.195 A 
ATOM     35  O   UNL     1      -0.576   4.125   2.759  0.00  0.00    -0.466 OA
ENDBRANCH  14  31
TORSDOF 4
