REMARK  Name = ZINC63530974
REMARK  8 active torsions:
REMARK  status: ('A' for Active; 'I' for Inactive)
REMARK    1  A    between atoms: C_1  and  C_2
REMARK    2  A    between atoms: C_7  and  N_12
REMARK    3  A    between atoms: C_9  and  C_11
REMARK    4  A    between atoms: C_13  and  C_15
REMARK    5  A    between atoms: C_17  and  S_27
REMARK    6  A    between atoms: C_21  and  O_25
REMARK    7  A    between atoms: O_25  and  C_26
REMARK    8  A    between atoms: S_27  and  C_28
REMARK                            x       y       z     vdW  Elec       q    Type
REMARK                         _______ _______ _______ _____ _____    ______ ____
ROOT
ATOM      1  C   UNL     1       2.761  -4.196   3.428  0.00  0.00    +0.204 C 
ATOM      2  C   UNL     1       4.146  -3.636   3.666  0.00  0.00    +0.030 C 
ATOM      3  C   UNL     1       4.986  -4.738   3.767  0.00  0.00    +0.010 A 
ATOM      4  C   UNL     1       6.378  -4.857   3.985  0.00  0.00    +0.014 A 
ATOM      5  C   UNL     1       6.949  -6.085   4.039  0.00  0.00    +0.046 A 
ATOM      6  C   UNL     1       6.189  -7.253   3.883  0.00  0.00    +0.122 A 
ATOM      7  C   UNL     1       4.844  -7.209   3.670  0.00  0.00    +0.071 A 
ATOM      8  C   UNL     1       4.183  -5.960   3.602  0.00  0.00    +0.048 A 
ATOM      9  N   UNL     1       2.910  -5.655   3.409  0.00  0.00    -0.369 N 
ATOM     10  H   UNL     1       2.192  -6.292   3.276  0.00  0.00    +0.161 HD
ENDROOT
BRANCH   1  12
ATOM     11  N   UNL     1       1.680  -2.484   2.008  0.00  0.00    -0.310 N 
ATOM     12  C   UNL     1       2.226  -3.712   2.105  0.00  0.00    +0.241 C 
ATOM     13  O   UNL     1       2.286  -4.428   1.128  0.00  0.00    -0.273 OA
ATOM     14  H   UNL     1       1.632  -1.911   2.789  0.00  0.00    +0.149 HD
BRANCH  11  20
ATOM     15  C   UNL     1       0.662   1.538  -0.682  0.00  0.00    +0.008 C 
ATOM     16  C   UNL     1       0.639   0.008  -0.652  0.00  0.00    -0.009 C 
ATOM     17  C   UNL     1      -0.798  -0.484  -0.831  0.00  0.00    +0.003 C 
ATOM     18  C   UNL     1      -0.821  -2.014  -0.801  0.00  0.00    +0.002 C 
ATOM     19  C   UNL     1      -0.278  -2.505   0.542  0.00  0.00    +0.022 C 
ATOM     20  C   UNL     1       1.160  -2.013   0.722  0.00  0.00    +0.076 C 
ATOM     21  C   UNL     1       1.183  -0.483   0.691  0.00  0.00    +0.009 C 
ATOM     22  C   UNL     1       0.312   0.062   1.824  0.00  0.00    +0.009 C 
ENDBRANCH  11  20
ENDBRANCH   1  12
BRANCH   6  23
ATOM     23  O   UNL     1       6.810  -8.458   3.945  0.00  0.00    -0.495 OA
ATOM     24  C   UNL     1       8.221  -8.451   4.170  0.00  0.00    +0.277 C 
ENDBRANCH   6  23
BRANCH   2  25
ATOM     25  S   UNL     1       4.573  -2.037   3.781  0.00  0.00    -0.091 S 
BRANCH  25  26
ATOM     26  C   UNL     1       3.823  -1.502   5.283  0.00  0.00    +0.013 A 
ATOM     27  C   UNL     1       3.195  -2.422   6.114  0.00  0.00    +0.015 A 
ATOM     28  C   UNL     1       2.608  -2.000   7.290  0.00  0.00    +0.001 A 
ATOM     29  C   UNL     1       2.645  -0.663   7.642  0.00  0.00    +0.000 A 
ATOM     30  C   UNL     1       3.268   0.256   6.817  0.00  0.00    +0.001 A 
ATOM     31  C   UNL     1       3.863  -0.161   5.643  0.00  0.00    +0.015 A 
ENDBRANCH  25  26
ENDBRANCH   2  25
TORSDOF 5
