REMARK  Name = ZINC28308253
REMARK  6 active torsions:
REMARK  status: ('A' for Active; 'I' for Inactive)
REMARK    1  A    between atoms: C_4  and  N_7
REMARK    2  A    between atoms: C_8  and  C_10
REMARK    3  A    between atoms: C_10  and  N_21
REMARK    4  A    between atoms: C_11  and  C_12
REMARK    5  A    between atoms: C_16  and  N_18
REMARK    6  A    between atoms: C_22  and  C_24
REMARK                            x       y       z     vdW  Elec       q    Type
REMARK                         _______ _______ _______ _____ _____    ______ ____
ROOT
ATOM      1  C   UNL     1      -1.682   6.521   0.130  0.00  0.00    +0.097 C 
ATOM      2  C   UNL     1      -0.536   6.047  -0.411  0.00  0.00    +0.036 C 
ENDROOT
BRANCH   2   3
ATOM      3  C   UNL     1      -0.580   4.923  -1.360  0.00  0.00    -0.021 A 
ATOM      4  C   UNL     1      -1.634   4.816  -2.273  0.00  0.00    +0.008 A 
ATOM      5  C   UNL     1      -1.665   3.764  -3.164  0.00  0.00    +0.003 A 
ATOM      6  C   UNL     1      -0.662   2.809  -3.148  0.00  0.00    +0.033 A 
ATOM      7  C   UNL     1       0.383   2.909  -2.247  0.00  0.00    +0.127 A 
ATOM      8  C   UNL     1       0.432   3.958  -1.354  0.00  0.00    +0.040 A 
BRANCH   7   9
ATOM      9  N   UNL     1       1.454   1.886  -2.243  0.00  0.00    +0.056 N 
ATOM     10  O   UNL     1       1.413   0.958  -3.031  0.00  0.00    -0.126 OA
ATOM     11  O   UNL     1       2.375   1.972  -1.451  0.00  0.00    -0.126 OA
ENDBRANCH   7   9
ENDBRANCH   2   3
BRANCH   1  13
ATOM     12  N   UNL     1      -3.202   4.665   0.584  0.00  0.00    -0.280 N 
ATOM     13  C   UNL     1      -2.948   5.806  -0.087  0.00  0.00    +0.262 C 
ATOM     14  O   UNL     1      -3.767   6.244  -0.873  0.00  0.00    -0.268 OA
ATOM     15  H   UNL     1      -2.506   4.319   1.362  0.00  0.00    +0.155 HD
BRANCH  12  19
ATOM     16  C   UNL     1      -6.620   2.451  -0.288  0.00  0.00    +0.000 A 
ATOM     17  C   UNL     1      -6.177   2.551   1.018  0.00  0.00    +0.002 A 
ATOM     18  C   UNL     1      -5.044   3.284   1.311  0.00  0.00    +0.023 A 
ATOM     19  C   UNL     1      -4.349   3.922   0.291  0.00  0.00    +0.034 A 
ATOM     20  C   UNL     1      -4.800   3.825  -1.019  0.00  0.00    +0.023 A 
ATOM     21  C   UNL     1      -5.931   3.086  -1.305  0.00  0.00    +0.002 A 
ENDBRANCH  12  19
ENDBRANCH   1  13
BRANCH   1  22
ATOM     22  N   UNL     1      -1.663   7.691   0.895  0.00  0.00    -0.277 N 
ATOM     23  C   UNL     1      -2.779   8.099   1.531  0.00  0.00    +0.249 C 
ATOM     24  O   UNL     1      -3.774   7.401   1.520  0.00  0.00    -0.270 OA
ATOM     25  H   UNL     1      -0.736   8.278   0.977  0.00  0.00    +0.155 HD
BRANCH  23  26
ATOM     26  C   UNL     1      -2.792   9.393   2.242  0.00  0.00    +0.051 A 
ATOM     27  C   UNL     1      -1.648  10.194   2.262  0.00  0.00    +0.014 A 
ATOM     28  C   UNL     1      -1.669  11.404   2.924  0.00  0.00    +0.001 A 
ATOM     29  C   UNL     1      -2.816  11.821   3.576  0.00  0.00    +0.001 A 
ATOM     30  C   UNL     1      -3.951  11.031   3.566  0.00  0.00    +0.016 A 
ATOM     31  C   UNL     1      -3.946   9.819   2.903  0.00  0.00    +0.030 A 
ATOM     32 BR   UNL     1      -5.499   8.740   2.890  0.00  0.00    -0.050 Br
ENDBRANCH  23  26
ENDBRANCH   1  22
TORSDOF 6
