REMARK  Name = ZINC65395728
REMARK  5 active torsions:
REMARK  status: ('A' for Active; 'I' for Inactive)
REMARK    1  A    between atoms: C_6  and  C_11
REMARK    2  A    between atoms: C_22  and  C_24
REMARK    3  A    between atoms: N_26  and  C_27
REMARK    4  A    between atoms: C_27  and  C_28
REMARK    5  A    between atoms: C_28  and  O_29
REMARK                            x       y       z     vdW  Elec       q    Type
REMARK                         _______ _______ _______ _____ _____    ______ ____
ROOT
ATOM      1  C   UNL     1       3.631  -2.749  -1.285  0.00  0.00    +0.242 C 
ATOM      2  O   UNL     1       3.317  -2.217  -0.241  0.00  0.00    -0.273 OA
ATOM      3  N   UNL     1       3.249  -4.017  -1.537  0.00  0.00    -0.298 N 
ATOM      4  C   UNL     1       2.368  -4.678  -0.599  0.00  0.00    +0.109 C 
ATOM      5  C   UNL     1       0.865  -4.465  -0.976  0.00  0.00    +0.036 C 
ATOM      6  C   UNL     1       0.796  -4.290  -2.507  0.00  0.00    +0.108 C 
ATOM      7  N   UNL     1       1.502  -5.446  -3.110  0.00  0.00    -0.221 NA
ATOM      8  C   UNL     1       2.664  -4.758  -3.801  0.00  0.00    +0.118 C 
ATOM      9  C   UNL     1       3.740  -4.674  -2.757  0.00  0.00    +0.132 C 
ATOM     10  C   UNL     1       2.949  -5.710  -4.930  0.00  0.00    +0.024 C 
ATOM     11  C   UNL     1       1.836  -6.448  -5.077  0.00  0.00    +0.101 C 
ATOM     12  N   UNL     1       0.859  -6.030  -4.156  0.00  0.00    -0.273 N 
ATOM     13  H   UNL     1      -0.100  -6.139  -4.250  0.00  0.00    +0.167 HD
ENDROOT
BRANCH   1  19
ATOM     14  C   UNL     1       8.072   0.722  -1.274  0.00  0.00    +0.001 A 
ATOM     15  C   UNL     1       7.047   1.677  -1.326  0.00  0.00    +0.002 A 
ATOM     16  C   UNL     1       5.765   1.357  -1.601  0.00  0.00    +0.026 A 
ATOM     17  C   UNL     1       5.400   0.006  -1.854  0.00  0.00    +0.043 A 
ATOM     18  N   UNL     1       4.246  -0.548  -2.137  0.00  0.00    -0.370 N 
ATOM     19  C   UNL     1       4.449  -1.992  -2.300  0.00  0.00    +0.190 C 
ATOM     20  C   UNL     1       5.923  -2.233  -2.069  0.00  0.00    +0.016 C 
ATOM     21  C   UNL     1       6.464  -1.022  -1.804  0.00  0.00    -0.004 A 
ATOM     22  C   UNL     1       7.833  -0.590  -1.499  0.00  0.00    +0.010 A 
ATOM     23  H   UNL     1       3.401  -0.082  -2.225  0.00  0.00    +0.161 HD
ENDBRANCH   1  19
BRANCH  11  24
ATOM     24  C   UNL     1       1.664  -7.537  -6.059  0.00  0.00    +0.259 C 
ATOM     25  O   UNL     1       2.573  -7.823  -6.814  0.00  0.00    -0.269 OA
ATOM     26  N   UNL     1       0.500  -8.213  -6.118  0.00  0.00    -0.308 N 
ATOM     27  H   UNL     1      -0.225  -7.985  -5.515  0.00  0.00    +0.149 HD
BRANCH  26  28
ATOM     28  C   UNL     1       0.329  -9.294  -7.093  0.00  0.00    +0.132 C 
BRANCH  28  29
ATOM     29  C   UNL     1      -1.072  -9.892  -6.951  0.00  0.00    +0.174 C 
BRANCH  29  30
ATOM     30  O   UNL     1      -2.047  -8.908  -7.302  0.00  0.00    -0.393 OA
ATOM     31  H   UNL     1      -2.961  -9.219  -7.236  0.00  0.00    +0.209 HD
ENDBRANCH  29  30
ENDBRANCH  28  29
ENDBRANCH  26  28
ENDBRANCH  11  24
TORSDOF 5
