REMARK  Name = ZINC14425592
REMARK  9 active torsions:
REMARK  status: ('A' for Active; 'I' for Inactive)
REMARK    1  A    between atoms: C_1  and  C_2
REMARK    2  A    between atoms: C_7  and  C_8
REMARK    3  A    between atoms: C_8  and  C_10
REMARK    4  A    between atoms: C_8  and  N_11
REMARK    5  A    between atoms: C_12  and  C_14
REMARK    6  A    between atoms: C_17  and  S_23
REMARK    7  A    between atoms: C_18  and  N_20
REMARK    8  A    between atoms: S_23  and  C_24
REMARK    9  A    between atoms: N_28  and  C_29
REMARK                            x       y       z     vdW  Elec       q    Type
REMARK                         _______ _______ _______ _____ _____    ______ ____
ROOT
ATOM      1  C   UNL     1      -1.758  -1.105   5.658  0.00  0.00    +0.039 A 
ATOM      2  C   UNL     1      -1.557  -2.488   5.615  0.00  0.00    +0.014 A 
ATOM      3  C   UNL     1      -2.081  -3.286   6.591  0.00  0.00    +0.018 A 
ATOM      4  C   UNL     1      -2.816  -2.727   7.633  0.00  0.00    +0.046 A 
ATOM      5  C   UNL     1      -3.022  -1.350   7.684  0.00  0.00    +0.141 A 
ATOM      6  C   UNL     1      -2.491  -0.540   6.706  0.00  0.00    +0.047 A 
ENDROOT
BRANCH   1   8
ATOM      7  N   UNL     1      -0.485  -0.789   3.594  0.00  0.00    -0.305 N 
ATOM      8  C   UNL     1      -1.192  -0.243   4.603  0.00  0.00    +0.245 C 
ATOM      9  O   UNL     1      -1.363   0.960   4.645  0.00  0.00    -0.270 OA
ATOM     10  H   UNL     1      -0.349  -1.749   3.561  0.00  0.00    +0.150 HD
BRANCH   7  11
ATOM     11  C   UNL     1       0.076   0.067   2.546  0.00  0.00    +0.101 C 
ATOM     12  C   UNL     1       1.473   0.532   2.962  0.00  0.00    +0.033 C 
BRANCH  11  19
ATOM     13  C   UNL     1      -0.027   1.453   0.013  0.00  0.00    +0.044 C 
ATOM     14  C   UNL     1       0.119  -0.047   0.046  0.00  0.00    -0.046 A 
ATOM     15  C   UNL     1       0.209  -0.759  -1.135  0.00  0.00    +0.004 A 
ATOM     16  C   UNL     1       0.343  -2.134  -1.105  0.00  0.00    +0.000 A 
ATOM     17  C   UNL     1       0.387  -2.798   0.107  0.00  0.00    +0.000 A 
ATOM     18  C   UNL     1       0.298  -2.086   1.289  0.00  0.00    +0.006 A 
ATOM     19  C   UNL     1       0.169  -0.710   1.258  0.00  0.00    -0.025 A 
ENDBRANCH  11  19
ENDBRANCH   7  11
ENDBRANCH   1   8
BRANCH   5  20
ATOM     20  N   UNL     1      -3.804  -0.758   8.793  0.00  0.00    +0.058 N 
ATOM     21  O   UNL     1      -3.982   0.437   8.836  0.00  0.00    -0.126 OA
ATOM     22  O   UNL     1      -4.266  -1.470   9.654  0.00  0.00    -0.126 OA
ENDBRANCH   5  20
BRANCH   4  23
ATOM     23  S   UNL     1      -3.489  -3.763   8.890  0.00  0.00    -0.048 S 
BRANCH  23  24
ATOM     24  C   UNL     1      -5.199  -3.878   8.478  0.00  0.00    +0.196 A 
ATOM     25  N   UNL     1      -5.812  -3.241   7.508  0.00  0.00    -0.122 NA
ATOM     26  N   UNL     1      -7.056  -3.561   7.494  0.00  0.00    -0.137 NA
ATOM     27  C   UNL     1      -7.309  -4.415   8.446  0.00  0.00    +0.225 A 
ATOM     28  N   UNL     1      -6.134  -4.651   9.103  0.00  0.00    -0.311 N 
ATOM     29  C   UNL     1      -5.923  -5.545  10.244  0.00  0.00    +0.152 C 
ENDBRANCH  23  24
ENDBRANCH   4  23
TORSDOF 6
