REMARK  Name = ZINC09296296
REMARK  7 active torsions:
REMARK  status: ('A' for Active; 'I' for Inactive)
REMARK    1  A    between atoms: C_4  and  C_7
REMARK    2  A    between atoms: N_11  and  N_12
REMARK    3  A    between atoms: C_13  and  C_14
REMARK    4  A    between atoms: C_17  and  O_21
REMARK    5  A    between atoms: O_21  and  C_22
REMARK    6  A    between atoms: C_22  and  C_23
REMARK    7  A    between atoms: C_26  and  N_29
REMARK                            x       y       z     vdW  Elec       q    Type
REMARK                         _______ _______ _______ _____ _____    ______ ____
ROOT
ATOM      1  C   UNL     1      -5.312   4.336   1.939  0.00  0.00    -0.004 A 
ATOM      2  C   UNL     1      -4.849   4.081   0.645  0.00  0.00    +0.013 A 
ATOM      3  C   UNL     1      -3.655   3.419   0.460  0.00  0.00    +0.048 A 
ATOM      4  C   UNL     1      -2.916   2.995   1.558  0.00  0.00    +0.139 A 
ATOM      5  C   UNL     1      -3.371   3.247   2.846  0.00  0.00    +0.083 A 
ATOM      6  C   UNL     1      -4.563   3.913   3.041  0.00  0.00    +0.033 A 
ATOM      7 CL   UNL     1      -2.440   2.720   4.213  0.00  0.00    -0.080 Cl
ENDROOT
BRANCH   1   9
ATOM      8  N   UNL     1      -7.280   5.441   1.117  0.00  0.00    -0.171 NA
ATOM      9  C   UNL     1      -6.586   5.049   2.141  0.00  0.00    +0.141 C 
BRANCH   8  14
ATOM     10  C   UNL     1      -8.675   7.479   1.426  0.00  0.00    +0.184 A 
ATOM     11  N   UNL     1      -9.962   7.681   1.593  0.00  0.00    -0.152 NA
ATOM     12  N   UNL     1     -10.587   6.558   1.590  0.00  0.00    -0.253 N 
ATOM     13  C   UNL     1      -9.739   5.569   1.414  0.00  0.00    +0.197 A 
ATOM     14  N   UNL     1      -8.491   6.119   1.309  0.00  0.00    -0.188 N 
ATOM     15  S   UNL     1     -10.137   3.854   1.333  0.00  0.00    -0.010 S 
ATOM     16  H   UNL     1     -11.679   6.537   1.723  0.00  0.00    +0.191 HD
BRANCH  10  20
ATOM     17  C   UNL     1      -5.651  10.458   1.274  0.00  0.00    +0.000 A 
ATOM     18  C   UNL     1      -6.980  10.819   1.144  0.00  0.00    +0.001 A 
ATOM     19  C   UNL     1      -7.967   9.856   1.192  0.00  0.00    +0.011 A 
ATOM     20  C   UNL     1      -7.622   8.515   1.373  0.00  0.00    +0.021 A 
ATOM     21  C   UNL     1      -6.279   8.159   1.509  0.00  0.00    +0.011 A 
ATOM     22  C   UNL     1      -5.302   9.131   1.453  0.00  0.00    +0.001 A 
ENDBRANCH  10  20
ENDBRANCH   8  14
ENDBRANCH   1   9
BRANCH   4  23
ATOM     23  O   UNL     1      -1.741   2.339   1.370  0.00  0.00    -0.486 OA
BRANCH  23  24
ATOM     24  C   UNL     1      -1.332   2.114   0.020  0.00  0.00    +0.264 C 
BRANCH  24  25
ATOM     25  C   UNL     1      -0.017   1.378   0.010  0.00  0.00    -0.010 A 
ATOM     26  C   UNL     1       1.171   2.086   0.002  0.00  0.00    +0.009 A 
ATOM     27  C   UNL     1       2.377   1.411  -0.015  0.00  0.00    +0.033 A 
ATOM     28  C   UNL     1       2.396   0.029  -0.022  0.00  0.00    +0.126 A 
ATOM     29  C   UNL     1       1.208  -0.679  -0.013  0.00  0.00    +0.033 A 
ATOM     30  C   UNL     1       0.002  -0.004   0.002  0.00  0.00    +0.009 A 
BRANCH  28  31
ATOM     31  N   UNL     1       3.688  -0.694  -0.038  0.00  0.00    +0.056 N 
ATOM     32  O   UNL     1       3.704  -1.912  -0.044  0.00  0.00    -0.126 OA
ATOM     33  O   UNL     1       4.734  -0.071  -0.045  0.00  0.00    -0.126 OA
ENDBRANCH  28  31
ENDBRANCH  24  25
ENDBRANCH  23  24
ENDBRANCH   4  23
TORSDOF 7
