REMARK  Name = ZINC34693114
REMARK  5 active torsions:
REMARK  status: ('A' for Active; 'I' for Inactive)
REMARK    1  A    between atoms: C_2  and  C_3
REMARK    2  A    between atoms: C_3  and  N_4
REMARK    3  A    between atoms: N_11  and  C_22
REMARK    4  A    between atoms: N_14  and  C_15
REMARK    5  A    between atoms: C_22  and  C_23
REMARK                            x       y       z     vdW  Elec       q    Type
REMARK                         _______ _______ _______ _____ _____    ______ ____
ROOT
ATOM      1  N   UNL     1      -2.338  -2.602  -0.555  0.00  0.00    -0.321 N 
ATOM      2  C   UNL     1      -3.201  -2.649  -1.589  0.00  0.00    +0.202 A 
ATOM      3  N   UNL     1      -2.720  -3.417  -2.532  0.00  0.00    -0.217 NA
ATOM      4  C   UNL     1      -1.532  -3.901  -2.159  0.00  0.00    +0.173 A 
ATOM      5  C   UNL     1      -1.258  -3.391  -0.896  0.00  0.00    +0.152 A 
ATOM      6  C   UNL     1      -0.047  -3.743  -0.260  0.00  0.00    +0.283 A 
ATOM      7  O   UNL     1       0.214  -3.311   0.848  0.00  0.00    -0.265 OA
ATOM      8  N   UNL     1       0.816  -4.563  -0.895  0.00  0.00    -0.254 N 
ATOM      9  C   UNL     1       0.540  -5.047  -2.118  0.00  0.00    +0.338 A 
ATOM     10  O   UNL     1       1.342  -5.784  -2.659  0.00  0.00    -0.246 OA
ATOM     11  N   UNL     1      -0.606  -4.743  -2.756  0.00  0.00    -0.245 N 
ENDROOT
BRANCH  11  12
ATOM     12  C   UNL     1      -0.857  -5.266  -4.031  0.00  0.00    +0.053 A 
ATOM     13  C   UNL     1      -0.442  -4.574  -5.161  0.00  0.00    +0.029 A 
ATOM     14  C   UNL     1      -0.690  -5.091  -6.417  0.00  0.00    +0.040 A 
ATOM     15  C   UNL     1      -1.351  -6.301  -6.551  0.00  0.00    +0.124 A 
ATOM     16  C   UNL     1      -1.766  -6.993  -5.425  0.00  0.00    +0.040 A 
ATOM     17  C   UNL     1      -1.515  -6.481  -4.167  0.00  0.00    +0.029 A 
ATOM     18  F   UNL     1      -1.592  -6.806  -7.780  0.00  0.00    -0.205 F 
ENDBRANCH  11  12
BRANCH   1  19
ATOM     19  C   UNL     1      -2.510  -1.852   0.691  0.00  0.00    +0.150 C 
BRANCH  19  21
ATOM     20  C   UNL     1      -2.498   0.588   0.792  0.00  0.00    +0.005 C 
ATOM     21  C   UNL     1      -1.826  -0.514   0.571  0.00  0.00    -0.013 C 
ENDBRANCH  19  21
ENDBRANCH   1  19
BRANCH   8  22
ATOM     22  C   UNL     1       2.074  -4.932  -0.240  0.00  0.00    +0.168 C 
BRANCH  22  23
ATOM     23  C   UNL     1       1.869  -6.183   0.573  0.00  0.00    +0.008 A 
ATOM     24  C   UNL     1       1.674  -6.096   1.939  0.00  0.00    +0.008 A 
ATOM     25  C   UNL     1       1.486  -7.244   2.686  0.00  0.00    +0.000 A 
ATOM     26  C   UNL     1       1.493  -8.481   2.067  0.00  0.00    +0.003 A 
ATOM     27  C   UNL     1       1.686  -8.571   0.702  0.00  0.00    +0.039 A 
ATOM     28  C   UNL     1       1.870  -7.421  -0.048  0.00  0.00    +0.128 A 
ATOM     29  F   UNL     1       2.055  -7.507  -1.383  0.00  0.00    -0.205 F 
ENDBRANCH  22  23
ENDBRANCH   8  22
TORSDOF 5
