REMARK  Name = ZINC01026366
REMARK  9 active torsions:
REMARK  status: ('A' for Active; 'I' for Inactive)
REMARK    1  A    between atoms: C_1  and  C_2
REMARK    2  A    between atoms: C_5  and  S_8
REMARK    3  A    between atoms: S_8  and  C_9
REMARK    4  A    between atoms: C_9  and  C_10
REMARK    5  A    between atoms: C_17  and  N_31
REMARK    6  A    between atoms: C_18  and  C_29
REMARK    7  A    between atoms: C_19  and  C_21
REMARK    8  A    between atoms: C_26  and  O_27
REMARK    9  A    between atoms: O_27  and  C_28
REMARK                            x       y       z     vdW  Elec       q    Type
REMARK                         _______ _______ _______ _____ _____    ______ ____
ROOT
ATOM      1  C   UNL     1       0.097  -6.482   1.870  0.00  0.00    +0.054 A 
ATOM      2  C   UNL     1      -0.976  -7.285   1.942  0.00  0.00    +0.050 A 
ATOM      3  C   UNL     1      -0.520  -8.616   2.060  0.00  0.00    +0.245 A 
ATOM      4  N   UNL     1       0.782  -8.598   2.060  0.00  0.00    -0.135 NA
ATOM      5  N   UNL     1       1.200  -7.263   1.936  0.00  0.00    -0.277 N 
ATOM      6  H   UNL     1       2.119  -6.955   1.905  0.00  0.00    +0.189 HD
ATOM      7  O   UNL     1      -1.378  -9.667   2.150  0.00  0.00    -0.421 OA
ATOM      8  C   UNL     1      -2.673  -9.438   1.852  0.00  0.00    +0.201 C 
ATOM      9  C   UNL     1      -3.224  -8.213   1.726  0.00  0.00    +0.098 C 
ATOM     10  C   UNL     1      -2.442  -6.937   1.911  0.00  0.00    +0.105 C 
ENDROOT
BRANCH  10  11
ATOM     11  C   UNL     1      -2.837  -6.282   3.209  0.00  0.00    +0.007 A 
ATOM     12  C   UNL     1      -2.679  -6.962   4.402  0.00  0.00    +0.008 A 
ATOM     13  C   UNL     1      -3.042  -6.362   5.594  0.00  0.00    +0.001 A 
ATOM     14  C   UNL     1      -3.562  -5.081   5.596  0.00  0.00    +0.004 A 
ATOM     15  C   UNL     1      -3.721  -4.397   4.406  0.00  0.00    +0.046 A 
ATOM     16  C   UNL     1      -3.353  -4.995   3.209  0.00  0.00    +0.124 A 
BRANCH  16  17
ATOM     17  O   UNL     1      -3.503  -4.322   2.038  0.00  0.00    -0.495 OA
ATOM     18  C   UNL     1      -4.041  -3.000   2.113  0.00  0.00    +0.277 C 
ENDBRANCH  16  17
ENDBRANCH  10  11
BRANCH   8  19
ATOM     19  N   UNL     1      -3.487 -10.527   1.664  0.00  0.00    -0.328 N 
ATOM     20  H   UNL     1      -3.125 -11.423   1.747  0.00  0.00    +0.145 HD
ATOM     21  H   UNL     1      -4.424 -10.400   1.448  0.00  0.00    +0.145 HD
ENDBRANCH   8  19
BRANCH   9  22
ATOM     22  C   UNL     1      -4.615  -8.120   1.401  0.00  0.00    +0.101 C 
ATOM     23  N   UNL     1      -5.719  -8.047   1.143  0.00  0.00    -0.191 NA
ENDBRANCH   9  22
BRANCH   1  24
ATOM     24  C   UNL     1       0.077  -4.981   1.735  0.00  0.00    +0.129 C 
BRANCH  24  25
ATOM     25  S   UNL     1       0.062  -4.533  -0.023  0.00  0.00    -0.119 S 
BRANCH  25  30
ATOM     26  C   UNL     1      -0.018   1.503   0.010  0.00  0.00    +0.044 C 
ATOM     27  C   UNL     1       0.002  -0.004   0.002  0.00  0.00    -0.050 A 
ATOM     28  C   UNL     1       0.006  -0.687  -1.200  0.00  0.00    +0.004 A 
ATOM     29  C   UNL     1       0.024  -2.068  -1.212  0.00  0.00    +0.015 A 
ATOM     30  C   UNL     1       0.039  -2.771  -0.013  0.00  0.00    +0.008 A 
ATOM     31  C   UNL     1       0.036  -2.081   1.193  0.00  0.00    +0.015 A 
ATOM     32  C   UNL     1       0.023  -0.700   1.197  0.00  0.00    +0.004 A 
ENDBRANCH  25  30
ENDBRANCH  24  25
ENDBRANCH   1  24
TORSDOF 7
