REMARK  Name = ZINC02660414
REMARK  9 active torsions:
REMARK  status: ('A' for Active; 'I' for Inactive)
REMARK    1  A    between atoms: C_1  and  C_2
REMARK    2  A    between atoms: C_2  and  O_3
REMARK    3  A    between atoms: O_3  and  C_4
REMARK    4  A    between atoms: C_9  and  N_10
REMARK    5  A    between atoms: C_15  and  N_16
REMARK    6  A    between atoms: C_15  and  N_63
REMARK    7  A    between atoms: N_19  and  C_27
REMARK    8  A    between atoms: C_20  and  C_22
REMARK    9  A    between atoms: C_27  and  C_28
REMARK                            x       y       z     vdW  Elec       q    Type
REMARK                         _______ _______ _______ _____ _____    ______ ____
ROOT
ATOM      1  N   UNL     1      -7.353   0.396   1.227  0.00  0.00    -0.257 N 
ATOM      2  C   UNL     1      -8.231  -0.627   1.192  0.00  0.00    +0.177 A 
ATOM      3  S   UNL     1      -8.597  -1.598  -0.169  0.00  0.00    -0.011 S 
ATOM      4  N   UNL     1      -8.767  -0.749   2.423  0.00  0.00    -0.298 N 
ATOM      5  C   UNL     1      -8.214   0.224   3.235  0.00  0.00    +0.170 A 
ATOM      6  N   UNL     1      -7.363   0.918   2.528  0.00  0.00    -0.152 NA
ENDROOT
BRANCH   5   7
ATOM      7  C   UNL     1      -8.531   0.441   4.657  0.00  0.00    +0.056 A 
ATOM      8  C   UNL     1      -8.247   1.524   5.450  0.00  0.00    +0.019 A 
ATOM      9  C   UNL     1      -8.651   1.502   6.766  0.00  0.00    +0.008 A 
ATOM     10  C   UNL     1      -9.307   0.411   7.240  0.00  0.00    +0.046 A 
ATOM     11  S   UNL     1      -9.379  -0.639   5.798  0.00  0.00    -0.094 S 
ENDBRANCH   5   7
BRANCH   1  12
ATOM     12  C   UNL     1      -6.540   0.878   0.107  0.00  0.00    +0.072 C 
BRANCH  12  18
ATOM     13  N   UNL     1      -2.417  -0.039   0.024  0.00  0.00    -0.331 N 
ATOM     14  C   UNL     1      -3.160  -0.319   1.261  0.00  0.00    +0.087 C 
ATOM     15  C   UNL     1      -4.452   0.502   1.274  0.00  0.00    -0.057 C 
ATOM     16  C   UNL     1      -4.513   0.444  -1.145  0.00  0.00    -0.057 C 
ATOM     17  C   UNL     1      -3.222  -0.377  -1.158  0.00  0.00    +0.087 C 
ATOM     18  N   UNL     1      -5.261   0.137   0.092  0.00  0.00    +0.395 N 
ATOM     19  H   UNL     1      -5.458  -0.870   0.121  0.00  0.00    -0.079 HD
BRANCH  13  25
ATOM     20  C   UNL     1       0.002  -0.004   0.002  0.00  0.00    +0.141 A 
ATOM     21  C   UNL     1       1.210  -0.682  -0.019  0.00  0.00    +0.047 A 
ATOM     22  C   UNL     1       1.227  -2.065  -0.021  0.00  0.00    +0.004 A 
ATOM     23  C   UNL     1       0.041  -2.775  -0.013  0.00  0.00    +0.002 A 
ATOM     24  C   UNL     1      -1.169  -2.106   0.002  0.00  0.00    +0.027 A 
ATOM     25  C   UNL     1      -1.194  -0.719   0.010  0.00  0.00    +0.072 A 
BRANCH  20  26
ATOM     26  O   UNL     1      -0.016   1.356   0.009  0.00  0.00    -0.490 OA
BRANCH  26  28
ATOM     27  C   UNL     1       1.027   3.536   0.011  0.00  0.00    +0.048 C 
ATOM     28  C   UNL     1       1.248   2.022   0.001  0.00  0.00    +0.226 C 
ENDBRANCH  26  28
ENDBRANCH  20  26
ENDBRANCH  13  25
ENDBRANCH  12  18
ENDBRANCH   1  12
BRANCH   4  29
ATOM     29  C   UNL     1      -9.767  -1.739   2.830  0.00  0.00    +0.161 C 
BRANCH  29  30
ATOM     30  C   UNL     1     -11.148  -1.182   2.601  0.00  0.00    -0.028 A 
ATOM     31  C   UNL     1     -11.784  -0.476   3.605  0.00  0.00    +0.005 A 
ATOM     32  C   UNL     1     -13.049   0.039   3.393  0.00  0.00    +0.000 A 
ATOM     33  C   UNL     1     -13.682  -0.160   2.180  0.00  0.00    +0.000 A 
ATOM     34  C   UNL     1     -13.048  -0.870   1.178  0.00  0.00    +0.000 A 
ATOM     35  C   UNL     1     -11.781  -1.381   1.388  0.00  0.00    +0.005 A 
ENDBRANCH  29  30
ENDBRANCH   4  29
TORSDOF 8
