REMARK  Name = ZINC43425563
REMARK  3 active torsions:
REMARK  status: ('A' for Active; 'I' for Inactive)
REMARK    1  A    between atoms: C_4  and  N_11
REMARK    2  A    between atoms: C_6  and  C_7
REMARK    3  A    between atoms: N_8  and  O_9
REMARK                            x       y       z     vdW  Elec       q    Type
REMARK                         _______ _______ _______ _____ _____    ______ ____
ROOT
ATOM      1  C   UNL     1       0.087   1.525   0.022  0.00  0.00    +0.029 A 
ATOM      2  C   UNL     1       0.829   1.291   1.160  0.00  0.00    +0.085 A 
ATOM      3  N   UNL     1       1.925   0.558   1.118  0.00  0.00    -0.350 N 
ATOM      4  C   UNL     1       2.362   0.016  -0.009  0.00  0.00    +0.100 A 
ATOM      5  C   UNL     1       1.673   0.204  -1.201  0.00  0.00    +0.053 A 
ATOM      6  C   UNL     1       0.509   0.974  -1.194  0.00  0.00    +0.022 A 
ATOM      7  H   UNL     1       2.425   0.411   1.936  0.00  0.00    +0.166 HD
ENDROOT
BRANCH   4   8
ATOM      8  N   UNL     1       3.524  -0.748   0.001  0.00  0.00    -0.309 N 
ATOM      9  C   UNL     1       3.483  -2.204   0.223  0.00  0.00    +0.135 C 
ATOM     10  C   UNL     1       4.492  -2.568   1.316  0.00  0.00    +0.179 C 
ATOM     11  O   UNL     1       5.769  -1.999   1.006  0.00  0.00    -0.373 OA
ATOM     12  C   UNL     1       5.757  -0.575   0.940  0.00  0.00    +0.139 C 
ATOM     13  C   UNL     1       4.842  -0.138  -0.216  0.00  0.00    +0.104 C 
ATOM     14  C   UNL     1       4.743   1.387  -0.222  0.00  0.00    +0.025 C 
ATOM     15  C   UNL     1       6.139   1.973  -0.451  0.00  0.00    +0.002 C 
ATOM     16  C   UNL     1       7.086   1.516   0.659  0.00  0.00    +0.003 C 
ATOM     17  C   UNL     1       7.156  -0.017   0.685  0.00  0.00    +0.033 C 
ENDBRANCH   4   8
BRANCH   6  18
ATOM     18  C   UNL     1      -0.260   1.201  -2.439  0.00  0.00    +0.163 C 
ATOM     19  N   UNL     1      -0.193   0.339  -3.411  0.00  0.00    -0.072 NA
ATOM     20  N   UNL     1      -1.049   2.331  -2.570  0.00  0.00    -0.340 N 
ATOM     21  H   UNL     1      -1.099   2.974  -1.845  0.00  0.00    +0.144 HD
ATOM     22  H   UNL     1      -1.553   2.480  -3.385  0.00  0.00    +0.144 HD
BRANCH  19  23
ATOM     23  O   UNL     1       0.506  -0.878  -3.230  0.00  0.00    -0.408 OA
ATOM     24  H   UNL     1       0.501  -1.454  -4.007  0.00  0.00    +0.328 HD
ENDBRANCH  19  23
ENDBRANCH   6  18
TORSDOF 3
