REMARK  Name = ZINC04181106
REMARK  5 active torsions:
REMARK  status: ('A' for Active; 'I' for Inactive)
REMARK    1  A    between atoms: C_1  and  C_2
REMARK    2  A    between atoms: C_8  and  C_26
REMARK    3  A    between atoms: C_9  and  N_11
REMARK    4  A    between atoms: C_12  and  C_14
REMARK    5  A    between atoms: C_20  and  C_22
REMARK                            x       y       z     vdW  Elec       q    Type
REMARK                         _______ _______ _______ _____ _____    ______ ____
ROOT
ATOM      1  N   UNL     1       1.770  -5.269   2.811  0.00  0.00    -0.279 N 
ATOM      2  C   UNL     1       1.734  -6.548   2.387  0.00  0.00    +0.222 C 
ATOM      3  O   UNL     1       1.453  -6.797   1.234  0.00  0.00    -0.275 OA
ATOM      4  H   UNL     1       1.995  -5.070   3.733  0.00  0.00    +0.155 HD
ENDROOT
BRANCH   1  12
ATOM      5  C   UNL     1       0.370   1.583  -0.047  0.00  0.00    +0.008 C 
ATOM      6  C   UNL     1       0.279   0.056  -0.016  0.00  0.00    -0.009 C 
ATOM      7  C   UNL     1       0.843  -0.513  -1.321  0.00  0.00    +0.009 C 
ATOM      8  C   UNL     1       0.516  -2.012  -1.392  0.00  0.00    +0.043 C 
ATOM      9  C   UNL     1       0.884  -2.636  -0.082  0.00  0.00    -0.004 A 
ATOM     10  C   UNL     1       1.143  -1.994   1.079  0.00  0.00    -0.018 A 
ATOM     11  C   UNL     1       1.475  -2.875   2.183  0.00  0.00    +0.084 A 
ATOM     12  C   UNL     1       1.486  -4.237   1.927  0.00  0.00    +0.090 A 
ATOM     13  S   UNL     1       1.078  -4.351   0.302  0.00  0.00    -0.077 S 
ATOM     14  C   UNL     1       1.082  -0.477   1.173  0.00  0.00    +0.040 C 
BRANCH  11  15
ATOM     15  C   UNL     1       1.779  -2.359   3.484  0.00  0.00    +0.102 C 
ATOM     16  N   UNL     1       2.019  -1.949   4.516  0.00  0.00    -0.191 NA
ENDBRANCH  11  15
ENDBRANCH   1  12
BRANCH   2  17
ATOM     17  C   UNL     1       2.042  -7.668   3.346  0.00  0.00    +0.094 C 
ATOM     18  C   UNL     1       2.676  -8.836   2.587  0.00  0.00    +0.060 C 
ATOM     19  C   UNL     1       1.653  -9.498   1.710  0.00  0.00    +0.015 C 
ATOM     20  C   UNL     1       0.373  -9.345   1.845  0.00  0.00    -0.011 C 
ATOM     21  C   UNL     1      -0.264  -8.477   2.891  0.00  0.00    +0.044 C 
ATOM     22  C   UNL     1       0.745  -8.157   4.002  0.00  0.00    +0.118 C 
ATOM     23 CL   UNL     1       2.220 -10.531   0.435  0.00  0.00    -0.089 Cl
BRANCH  22  24
ATOM     24  C   UNL     1       0.194  -7.080   4.901  0.00  0.00    +0.360 C 
ATOM     25  O   UNL     1      -1.008  -6.992   5.081  0.00  0.00    -0.246 OA
ATOM     26  O   UNL     1       0.952  -6.297   5.448  0.00  0.00    -0.246 OA
ENDBRANCH  22  24
ENDBRANCH   2  17
TORSDOF 4
