REMARK  Name = ZINC38050478
REMARK  6 active torsions:
REMARK  status: ('A' for Active; 'I' for Inactive)
REMARK    1  A    between atoms: C_1  and  S_2
REMARK    2  A    between atoms: S_2  and  C_5
REMARK    3  A    between atoms: C_8  and  S_11
REMARK    4  A    between atoms: S_11  and  N_14
REMARK    5  A    between atoms: N_14  and  C_15
REMARK    6  A    between atoms: C_21  and  N_23
REMARK                            x       y       z     vdW  Elec       q    Type
REMARK                         _______ _______ _______ _____ _____    ______ ____
ROOT
ATOM      1  S   UNL     1       3.012  -1.551  -5.298  0.00  0.00    +0.059 S 
ATOM      2  O   UNL     1       4.226  -2.179  -4.908  0.00  0.00    -0.153 OA
ATOM      3  O   UNL     1       2.058  -2.192  -6.135  0.00  0.00    -0.153 OA
ENDROOT
BRANCH   1   7
ATOM      4  C   UNL     1       0.845  -0.437  -1.483  0.00  0.00    +0.088 A 
ATOM      5  C   UNL     1       0.135  -0.613  -2.656  0.00  0.00    +0.029 A 
ATOM      6  C   UNL     1       0.796  -0.953  -3.821  0.00  0.00    +0.030 A 
ATOM      7  C   UNL     1       2.169  -1.117  -3.814  0.00  0.00    +0.105 A 
ATOM      8  C   UNL     1       2.880  -0.941  -2.641  0.00  0.00    +0.030 A 
ATOM      9  C   UNL     1       2.219  -0.596  -1.477  0.00  0.00    +0.029 A 
BRANCH   4  11
ATOM     10  C   UNL     1      -0.022   1.810   0.012  0.00  0.00    +0.200 C 
ATOM     11  S   UNL     1       0.002  -0.004   0.002  0.00  0.00    -0.006 S 
ATOM     12  O   UNL     1       0.835  -0.488   1.046  0.00  0.00    -0.170 OA
ATOM     13  O   UNL     1      -1.315  -0.510  -0.168  0.00  0.00    -0.170 OA
ENDBRANCH   4  11
ENDBRANCH   1   7
BRANCH   1  14
ATOM     14  N   UNL     1       3.431  -0.139  -6.054  0.00  0.00    -0.188 NA
ATOM     15  H   UNL     1       3.042   0.086  -6.914  0.00  0.00    +0.148 HD
BRANCH  14  16
ATOM     16  C   UNL     1       4.391   0.772  -5.425  0.00  0.00    +0.062 C 
ATOM     17  C   UNL     1       3.635   1.845  -4.638  0.00  0.00    +0.019 C 
ATOM     18  C   UNL     1       4.638   2.796  -3.981  0.00  0.00    +0.001 C 
ATOM     19  C   UNL     1       5.492   3.463  -5.061  0.00  0.00    -0.001 C 
ATOM     20  C   UNL     1       6.247   2.390  -5.848  0.00  0.00    -0.015 C 
ATOM     21  C   UNL     1       5.245   1.439  -6.505  0.00  0.00    -0.056 C 
BRANCH  21  22
ATOM     22  N   UNL     1       5.970   0.409  -7.261  0.00  0.00    +0.381 N 
ATOM     23  H   UNL     1       5.309  -0.218  -7.695  0.00  0.00    -0.090 HD
ATOM     24  H   UNL     1       6.534   0.849  -7.974  0.00  0.00    -0.090 HD
ATOM     25  H   UNL     1       6.566  -0.111  -6.635  0.00  0.00    -0.090 HD
ENDBRANCH  21  22
ENDBRANCH  14  16
ENDBRANCH   1  14
TORSDOF 5
