REMARK  Name = ZINC44585044
REMARK  3 active torsions:
REMARK  status: ('A' for Active; 'I' for Inactive)
REMARK    1  A    between atoms: C_5  and  C_6
REMARK    2  A    between atoms: N_8  and  C_9
REMARK    3  A    between atoms: C_14  and  N_15
REMARK                            x       y       z     vdW  Elec       q    Type
REMARK                         _______ _______ _______ _____ _____    ______ ____
ROOT
ATOM      1  C   UNL     1      -2.171  -3.031   0.099  0.00  0.00    +0.057 A 
ATOM      2  C   UNL     1      -3.427  -2.442   0.101  0.00  0.00    +0.052 A 
ATOM      3  C   UNL     1      -4.559  -3.234   0.199  0.00  0.00    +0.078 A 
ATOM      4  C   UNL     1      -4.438  -4.620   0.296  0.00  0.00    +0.144 A 
ATOM      5  C   UNL     1      -3.186  -5.208   0.294  0.00  0.00    +0.072 A 
ATOM      6  C   UNL     1      -2.050  -4.417   0.191  0.00  0.00    +0.050 A 
ATOM      7  O   UNL     1      -5.561  -5.383   0.394  0.00  0.00    -0.481 OA
ATOM      8  C   UNL     1      -6.670  -4.809   1.089  0.00  0.00    +0.325 C 
ATOM      9  C   UNL     1      -6.892  -3.396   0.610  0.00  0.00    +0.255 C 
ATOM     10  O   UNL     1      -8.010  -2.927   0.592  0.00  0.00    -0.272 OA
ATOM     11  N   UNL     1      -5.839  -2.655   0.201  0.00  0.00    -0.280 N 
ATOM     12  H   UNL     1      -5.965  -1.738  -0.087  0.00  0.00    +0.155 HD
ENDROOT
BRANCH   1  15
ATOM     13  C   UNL     1      -1.095  -1.017  -0.579  0.00  0.00    +0.270 C 
ATOM     14  O   UNL     1      -2.129  -0.654  -1.103  0.00  0.00    -0.268 OA
ATOM     15  N   UNL     1      -1.022  -2.232  -0.000  0.00  0.00    -0.279 N 
ATOM     16  H   UNL     1      -0.176  -2.554   0.347  0.00  0.00    +0.155 HD
BRANCH  13  21
ATOM     17  C   UNL     1       0.156   1.173  -1.141  0.00  0.00    +0.077 A 
ATOM     18  C   UNL     1       1.394   1.655  -0.930  0.00  0.00    +0.231 A 
ATOM     19  O   UNL     1       2.098   0.729  -0.264  0.00  0.00    -0.362 OA
ATOM     20  N   UNL     1       1.258  -0.390  -0.046  0.00  0.00    -0.074 NA
ATOM     21  C   UNL     1       0.088  -0.122  -0.575  0.00  0.00    +0.168 A 
ENDBRANCH  13  21
ENDBRANCH   1  15
BRANCH   6  22
ATOM     22  N   UNL     1      -0.782  -5.011   0.183  0.00  0.00    -0.356 N 
ATOM     23  H   UNL     1       0.013  -4.458   0.114  0.00  0.00    +0.142 HD
ATOM     24  H   UNL     1      -0.697  -5.975   0.246  0.00  0.00    +0.142 HD
ENDBRANCH   6  22
TORSDOF 3
