REMARK  Name = ZINC06807336
REMARK  8 active torsions:
REMARK  status: ('A' for Active; 'I' for Inactive)
REMARK    1  A    between atoms: C_1  and  C_2
REMARK    2  A    between atoms: C_2  and  C_3
REMARK    3  A    between atoms: N_5  and  C_16
REMARK    4  A    between atoms: C_16  and  C_17
REMARK    5  A    between atoms: C_23  and  C_26
REMARK    6  A    between atoms: C_26  and  O_28
REMARK    7  A    between atoms: O_28  and  C_29
REMARK    8  A    between atoms: C_29  and  C_30
REMARK                            x       y       z     vdW  Elec       q    Type
REMARK                         _______ _______ _______ _____ _____    ______ ____
ROOT
ATOM      1  C   UNL     1       0.707  -0.490  -1.238  0.00  0.00    +0.135 A 
ATOM      2  N   UNL     1       1.176   0.373  -2.072  0.00  0.00    -0.154 NA
ATOM      3  N   UNL     1       1.841  -0.002  -3.242  0.00  0.00    -0.217 N 
ATOM      4  C   UNL     1       2.013  -1.312  -3.531  0.00  0.00    +0.292 A 
ATOM      5  O   UNL     1       2.591  -1.659  -4.546  0.00  0.00    -0.264 OA
ATOM      6  C   UNL     1       1.484  -2.301  -2.589  0.00  0.00    +0.118 A 
ATOM      7  N   UNL     1       0.840  -1.849  -1.447  0.00  0.00    -0.288 N 
ATOM      8  C   UNL     1       0.440  -2.942  -0.721  0.00  0.00    +0.094 A 
ATOM      9  C   UNL     1      -0.218  -3.387   0.451  0.00  0.00    +0.068 A 
ATOM     10  C   UNL     1      -0.194  -4.730   0.434  0.00  0.00    +0.198 A 
ATOM     11  O   UNL     1       0.437  -5.153  -0.675  0.00  0.00    -0.461 OA
ATOM     12  C   UNL     1       0.838  -4.088  -1.403  0.00  0.00    +0.154 A 
ATOM     13  C   UNL     1       1.484  -3.676  -2.575  0.00  0.00    +0.080 A 
ENDROOT
BRANCH   1  15
ATOM     14  C   UNL     1      -0.019   1.526   0.010  0.00  0.00    +0.012 C 
ATOM     15  C   UNL     1       0.002  -0.004   0.002  0.00  0.00    +0.073 C 
ENDBRANCH   1  15
BRANCH   3  16
ATOM     16  C   UNL     1       2.353   1.023  -4.155  0.00  0.00    +0.243 C 
BRANCH  16  17
ATOM     17  C   UNL     1       1.292   1.367  -5.169  0.00  0.00    +0.237 C 
ATOM     18  O   UNL     1       0.215   0.810  -5.133  0.00  0.00    -0.274 OA
ATOM     19  N   UNL     1       1.541   2.293  -6.117  0.00  0.00    -0.299 N 
ATOM     20  C   UNL     1       2.843   2.971  -6.178  0.00  0.00    +0.108 C 
ATOM     21  C   UNL     1       2.611   4.485  -6.170  0.00  0.00    +0.020 C 
ATOM     22  C   UNL     1       1.655   4.856  -7.306  0.00  0.00    +0.018 C 
ATOM     23  C   UNL     1       0.309   4.161  -7.090  0.00  0.00    +0.115 C 
ATOM     24  C   UNL     1       0.517   2.639  -7.112  0.00  0.00    +0.122 C 
BRANCH  23  25
ATOM     25  C   UNL     1      -0.642   4.553  -8.191  0.00  0.00    +0.312 C 
ATOM     26  O   UNL     1      -0.281   5.312  -9.060  0.00  0.00    -0.250 OA
BRANCH  25  27
ATOM     27  O   UNL     1      -1.890   4.060  -8.207  0.00  0.00    -0.465 OA
BRANCH  27  28
ATOM     28  C   UNL     1      -2.738   4.475  -9.281  0.00  0.00    +0.229 C 
ATOM     29  C   UNL     1      -4.110   3.815  -9.131  0.00  0.00    +0.048 C 
ENDBRANCH  27  28
ENDBRANCH  25  27
ENDBRANCH  23  25
ENDBRANCH  16  17
ENDBRANCH   3  16
TORSDOF 6
