REMARK  Name = ZINC38705055
REMARK  11 active torsions:
REMARK  status: ('A' for Active; 'I' for Inactive)
REMARK    1  A    between atoms: C_1  and  C_2
REMARK    2  A    between atoms: C_2  and  O_3
REMARK    3  A    between atoms: O_3  and  C_4
REMARK    4  A    between atoms: C_6  and  C_11
REMARK    5  A    between atoms: C_9  and  O_10
REMARK    6  A    between atoms: C_14  and  C_30
REMARK    7  A    between atoms: N_21  and  C_22
REMARK    8  A    between atoms: C_22  and  C_23
REMARK    9  A    between atoms: C_31  and  C_38
REMARK   10  A    between atoms: C_33  and  C_37
REMARK   11  A    between atoms: C_35  and  O_36
REMARK                            x       y       z     vdW  Elec       q    Type
REMARK                         _______ _______ _______ _____ _____    ______ ____
ROOT
ATOM      1  C   UNL     1      -0.132  -4.906   0.104  0.00  0.00    +0.142 C 
ATOM      2  C   UNL     1      -1.542  -5.380  -0.116  0.00  0.00    +0.035 A 
ATOM      3  C   UNL     1      -2.889  -5.040  -0.280  0.00  0.00    +0.102 A 
ATOM      4  N   UNL     1      -3.563  -6.162  -0.437  0.00  0.00    -0.173 NA
ATOM      5  N   UNL     1      -2.776  -7.176  -0.389  0.00  0.00    -0.272 N 
ATOM      6  H   UNL     1      -3.053  -8.101  -0.481  0.00  0.00    +0.189 HD
ATOM      7  C   UNL     1      -1.491  -6.759  -0.189  0.00  0.00    +0.126 A 
ATOM      8  C   UNL     1      -0.096  -7.184  -0.024  0.00  0.00    +0.266 C 
ATOM      9  O   UNL     1       0.284  -8.339  -0.039  0.00  0.00    -0.268 OA
ATOM     10  N   UNL     1       0.703  -6.114   0.148  0.00  0.00    -0.281 N 
ENDROOT
BRANCH   3  11
ATOM     11  C   UNL     1      -3.454  -3.667  -0.277  0.00  0.00    +0.047 A 
ATOM     12  C   UNL     1      -4.339  -3.273  -1.278  0.00  0.00    -0.037 A 
ATOM     13  C   UNL     1      -4.862  -1.996  -1.270  0.00  0.00    +0.007 A 
ATOM     14  C   UNL     1      -4.512  -1.105  -0.272  0.00  0.00    -0.047 A 
ATOM     15  C   UNL     1      -3.634  -1.486   0.726  0.00  0.00    +0.049 A 
ATOM     16  C   UNL     1      -3.107  -2.767   0.734  0.00  0.00    +0.127 A 
ATOM     17  C   UNL     1      -5.088   0.287  -0.272  0.00  0.00    +0.044 C 
ATOM     18  C   UNL     1      -4.724  -4.240  -2.368  0.00  0.00    +0.044 C 
BRANCH  16  19
ATOM     19  O   UNL     1      -2.249  -3.145   1.718  0.00  0.00    -0.506 OA
ATOM     20  H   UNL     1      -1.326  -2.914   1.545  0.00  0.00    +0.292 HD
ENDBRANCH  16  19
ENDBRANCH   3  11
BRANCH   1  23
ATOM     21  C   UNL     1       0.854  -1.843  -1.875  0.00  0.00    +0.162 A 
ATOM     22  C   UNL     1       0.456  -2.660  -0.829  0.00  0.00    +0.055 A 
ATOM     23  C   UNL     1       0.301  -4.018  -1.034  0.00  0.00    -0.019 A 
ATOM     24  C   UNL     1       0.542  -4.564  -2.282  0.00  0.00    +0.009 A 
ATOM     25  C   UNL     1       0.939  -3.754  -3.329  0.00  0.00    +0.049 A 
ATOM     26  C   UNL     1       1.090  -2.391  -3.132  0.00  0.00    +0.158 A 
BRANCH  26  27
ATOM     27  O   UNL     1       1.475  -1.592  -4.163  0.00  0.00    -0.503 OA
ATOM     28  H   UNL     1       2.433  -1.490  -4.245  0.00  0.00    +0.292 HD
ENDBRANCH  26  27
BRANCH  21  29
ATOM     29  O   UNL     1       1.006  -0.506  -1.675  0.00  0.00    -0.489 OA
BRANCH  29  31
ATOM     30  C   UNL     1       0.969   1.500  -0.329  0.00  0.00    +0.048 C 
ATOM     31  C   UNL     1       0.746  -0.013  -0.359  0.00  0.00    +0.226 C 
ENDBRANCH  29  31
ENDBRANCH  21  29
ENDBRANCH   1  23
BRANCH  10  32
ATOM     32  C   UNL     1       2.154  -6.147   0.345  0.00  0.00    +0.144 C 
BRANCH  32  33
ATOM     33  C   UNL     1       2.460  -6.240   1.818  0.00  0.00    -0.030 A 
ATOM     34  C   UNL     1       2.612  -5.087   2.566  0.00  0.00    +0.008 A 
ATOM     35  C   UNL     1       2.892  -5.171   3.916  0.00  0.00    +0.038 A 
ATOM     36  C   UNL     1       3.019  -6.410   4.521  0.00  0.00    +0.123 A 
ATOM     37  C   UNL     1       2.867  -7.564   3.771  0.00  0.00    +0.038 A 
ATOM     38  C   UNL     1       2.582  -7.478   2.421  0.00  0.00    +0.008 A 
ATOM     39  F   UNL     1       3.293  -6.493   5.841  0.00  0.00    -0.205 F 
ENDBRANCH  32  33
ENDBRANCH  10  32
TORSDOF 8
