REMARK  Name = ZINC38223328
REMARK  12 active torsions:
REMARK  status: ('A' for Active; 'I' for Inactive)
REMARK    1  A    between atoms: C_1  and  O_2
REMARK    2  A    between atoms: O_2  and  C_3
REMARK    3  A    between atoms: C_5  and  C_13
REMARK    4  A    between atoms: C_7  and  O_11
REMARK    5  A    between atoms: C_8  and  O_9
REMARK    6  A    between atoms: O_9  and  C_10
REMARK    7  A    between atoms: O_11  and  C_12
REMARK    8  A    between atoms: C_16  and  C_27
REMARK    9  A    between atoms: C_21  and  C_23
REMARK   10  A    between atoms: C_23  and  C_24
REMARK   11  A    between atoms: C_24  and  C_25
REMARK   12  A    between atoms: C_25  and  O_26
REMARK                            x       y       z     vdW  Elec       q    Type
REMARK                         _______ _______ _______ _____ _____    ______ ____
ROOT
ATOM      1  C   UNL     1      -4.871   0.264   0.038  0.00  0.00    +0.165 C 
ATOM      2  C   UNL     1      -5.682  -0.064  -1.186  0.00  0.00    +0.028 C 
ATOM      3  C   UNL     1      -6.801  -0.775  -1.151  0.00  0.00    +0.039 C 
ATOM      4  N   UNL     1      -7.325  -1.275   0.048  0.00  0.00    -0.283 N 
ATOM      5  C   UNL     1      -6.785  -0.784   1.227  0.00  0.00    +0.219 A 
ATOM      6  N   UNL     1      -5.640  -0.058   1.237  0.00  0.00    -0.221 N 
ATOM      7  N   UNL     1      -5.397   0.276   2.569  0.00  0.00    -0.153 NA
ATOM      8  C   UNL     1      -6.367  -0.251   3.274  0.00  0.00    +0.153 A 
ATOM      9  N   UNL     1      -7.205  -0.893   2.457  0.00  0.00    -0.198 NA
ATOM     10  H   UNL     1      -8.035  -1.936   0.053  0.00  0.00    +0.155 HD
ENDROOT
BRANCH   3  11
ATOM     11  C   UNL     1      -7.518  -1.047  -2.418  0.00  0.00    -0.004 A 
ATOM     12  C   UNL     1      -7.014  -0.564  -3.626  0.00  0.00    +0.011 A 
ATOM     13  C   UNL     1      -7.686  -0.821  -4.803  0.00  0.00    +0.020 A 
ATOM     14  C   UNL     1      -8.859  -1.556  -4.787  0.00  0.00    +0.041 A 
ATOM     15  C   UNL     1      -9.364  -2.038  -3.591  0.00  0.00    +0.020 A 
ATOM     16  C   UNL     1      -8.697  -1.792  -2.408  0.00  0.00    +0.011 A 
ATOM     17 CL   UNL     1      -9.700  -1.876  -6.271  0.00  0.00    -0.084 Cl
ENDBRANCH   3  11
BRANCH   1  20
ATOM     18  C   UNL     1      -1.201  -0.638   0.010  0.00  0.00    +0.166 A 
ATOM     19  C   UNL     1      -2.375   0.101   0.019  0.00  0.00    +0.055 A 
ATOM     20  C   UNL     1      -3.598  -0.543   0.028  0.00  0.00    -0.012 A 
ATOM     21  C   UNL     1      -3.657  -1.924   0.027  0.00  0.00    +0.055 A 
ATOM     22  C   UNL     1      -2.488  -2.670   0.017  0.00  0.00    +0.166 A 
ATOM     23  C   UNL     1      -1.256  -2.027   0.003  0.00  0.00    +0.204 A 
BRANCH  18  25
ATOM     24  C   UNL     1      -0.017   1.425   0.010  0.00  0.00    +0.277 C 
ATOM     25  O   UNL     1       0.002  -0.004   0.002  0.00  0.00    -0.491 OA
ENDBRANCH  18  25
BRANCH  23  26
ATOM     26  O   UNL     1      -0.106  -2.755  -0.012  0.00  0.00    -0.488 OA
ATOM     27  C   UNL     1       0.454  -3.109   1.254  0.00  0.00    +0.277 C 
ENDBRANCH  23  26
BRANCH  22  28
ATOM     28  O   UNL     1      -2.547  -4.028   0.017  0.00  0.00    -0.491 OA
ATOM     29  C   UNL     1      -3.847  -4.621   0.026  0.00  0.00    +0.277 C 
ENDBRANCH  22  28
ENDBRANCH   1  20
BRANCH   8  30
ATOM     30  C   UNL     1      -6.514  -0.149   4.770  0.00  0.00    +0.080 C 
BRANCH  30  31
ATOM     31  C   UNL     1      -7.335   1.095   5.118  0.00  0.00    +0.035 C 
BRANCH  31  32
ATOM     32  C   UNL     1      -7.485   1.199   6.637  0.00  0.00    +0.156 C 
BRANCH  32  33
ATOM     33  O   UNL     1      -8.252   2.360   6.962  0.00  0.00    -0.395 OA
ATOM     34  H   UNL     1      -8.386   2.489   7.911  0.00  0.00    +0.209 HD
ENDBRANCH  32  33
ENDBRANCH  31  32
ENDBRANCH  30  31
ENDBRANCH   8  30
TORSDOF 9
