REMARK  Name = ZINC49425014
REMARK  4 active torsions:
REMARK  status: ('A' for Active; 'I' for Inactive)
REMARK    1  A    between atoms: C_5  and  N_7
REMARK    2  A    between atoms: C_8  and  C_10
REMARK    3  A    between atoms: N_19  and  C_20
REMARK    4  A    between atoms: C_20  and  C_21
REMARK                            x       y       z     vdW  Elec       q    Type
REMARK                         _______ _______ _______ _____ _____    ______ ____
ROOT
ATOM      1  C   UNL     1      -0.019  -4.259   0.192  0.00  0.00    +0.093 C 
ATOM      2  C   UNL     1      -1.462  -4.756   0.307  0.00  0.00    +0.016 C 
ATOM      3  C   UNL     1      -1.473  -6.284   0.381  0.00  0.00    +0.020 C 
ATOM      4  C   UNL     1      -0.706  -6.736   1.627  0.00  0.00    +0.109 C 
ATOM      5  N   UNL     1       0.638  -6.144   1.597  0.00  0.00    -0.285 N 
ATOM      6  C   UNL     1       0.765  -4.689   1.436  0.00  0.00    +0.122 C 
ATOM      7  C   UNL     1       1.734  -6.920   1.714  0.00  0.00    +0.302 C 
ATOM      8  O   UNL     1       2.835  -6.410   1.778  0.00  0.00    -0.253 OA
ATOM      9  N   UNL     1       1.608  -8.261   1.758  0.00  0.00    -0.295 N 
ATOM     10  H   UNL     1       0.726  -8.665   1.780  0.00  0.00    +0.151 HD
ENDROOT
BRANCH   1  12
ATOM     11  N   UNL     1       1.158  -2.094  -0.023  0.00  0.00    -0.283 N 
ATOM     12  C   UNL     1      -0.011  -2.756   0.087  0.00  0.00    +0.222 C 
ATOM     13  O   UNL     1      -1.056  -2.142   0.100  0.00  0.00    -0.275 OA
ATOM     14  H   UNL     1       1.988  -2.588  -0.114  0.00  0.00    +0.155 HD
BRANCH  11  19
ATOM     15  C   UNL     1       0.158   1.379   0.644  0.00  0.00    +0.004 A 
ATOM     16  C   UNL     1       1.142   2.112   0.072  0.00  0.00    +0.031 A 
ATOM     17  C   UNL     1       2.224   1.468  -0.587  0.00  0.00    +0.102 A 
ATOM     18  C   UNL     1       2.244   0.011  -0.628  0.00  0.00    +0.121 A 
ATOM     19  C   UNL     1       1.175  -0.698  -0.004  0.00  0.00    +0.062 A 
ATOM     20  C   UNL     1       0.171  -0.014   0.608  0.00  0.00    +0.025 A 
ATOM     21  N   UNL     1       3.303  -0.482  -1.270  0.00  0.00    -0.189 NA
ATOM     22  S   UNL     1       4.153   0.797  -1.751  0.00  0.00    +0.117 S 
ATOM     23  N   UNL     1       3.270   2.024  -1.200  0.00  0.00    -0.191 NA
ENDBRANCH  11  19
ENDBRANCH   1  12
BRANCH   9  24
ATOM     24  C   UNL     1       2.802  -9.108   1.774  0.00  0.00    +0.148 C 
BRANCH  24  25
ATOM     25  C   UNL     1       2.390 -10.557   1.825  0.00  0.00    +0.007 A 
ATOM     26  C   UNL     1       2.151 -11.413   0.802  0.00  0.00    +0.013 A 
ATOM     27  C   UNL     1       1.780 -12.714   1.088  0.00  0.00    +0.008 A 
ATOM     28  C   UNL     1       1.667 -13.094   2.384  0.00  0.00    +0.045 A 
ATOM     29  S   UNL     1       2.097 -11.593   3.249  0.00  0.00    -0.100 S 
ENDBRANCH  24  25
ENDBRANCH   9  24
TORSDOF 4
