REMARK  Name = ZINC47350414
REMARK  3 active torsions:
REMARK  status: ('A' for Active; 'I' for Inactive)
REMARK    1  A    between atoms: C_5  and  C_6
REMARK    2  A    between atoms: C_8  and  C_11
REMARK    3  A    between atoms: C_11  and  N_12
REMARK                            x       y       z     vdW  Elec       q    Type
REMARK                         _______ _______ _______ _____ _____    ______ ____
ROOT
ATOM      1  N   UNL     1      -3.265  -4.358   1.401  0.00  0.00    -0.217 N 
ATOM      2  C   UNL     1      -2.290  -4.962   2.109  0.00  0.00    +0.248 C 
ATOM      3  O   UNL     1      -1.163  -5.213   1.737  0.00  0.00    -0.273 OA
ATOM      4  C   UNL     1      -2.893  -5.258   3.466  0.00  0.00    +0.122 C 
ATOM      5  C   UNL     1      -2.917  -6.766   3.711  0.00  0.00    +0.047 C 
ATOM      6  C   UNL     1      -1.626  -7.210   4.454  0.00  0.00    +0.072 C 
ATOM      7  S   UNL     1      -1.442  -5.795   5.625  0.00  0.00    -0.158 S 
ATOM      8  C   UNL     1      -2.132  -4.470   4.548  0.00  0.00    +0.104 C 
ATOM      9  N   UNL     1      -4.267  -4.740   3.358  0.00  0.00    -0.284 N 
ATOM     10  C   UNL     1      -4.388  -4.229   2.119  0.00  0.00    +0.310 C 
ATOM     11  O   UNL     1      -5.403  -3.712   1.697  0.00  0.00    -0.252 OA
ATOM     12  H   UNL     1      -4.950  -4.760   4.046  0.00  0.00    +0.151 HD
ENDROOT
BRANCH   1  13
ATOM     13  C   UNL     1      -3.114  -3.895   0.020  0.00  0.00    +0.197 C 
BRANCH  13  16
ATOM     14  C   UNL     1      -1.246  -0.789   0.010  0.00  0.00    +0.259 A 
ATOM     15  N   UNL     1      -1.334  -2.103   0.009  0.00  0.00    -0.190 NA
ATOM     16  C   UNL     1      -2.616  -2.473   0.018  0.00  0.00    +0.190 A 
ATOM     17  N   UNL     1      -3.368  -1.409   0.025  0.00  0.00    -0.059 NA
ATOM     18  O   UNL     1      -2.494  -0.290   0.026  0.00  0.00    -0.333 OA
BRANCH  14  23
ATOM     19  C   UNL     1      -0.018   1.438   0.010  0.00  0.00    +0.021 A 
ATOM     20  C   UNL     1       1.191   2.038   0.002  0.00  0.00    +0.046 A 
ATOM     21  S   UNL     1       2.319   0.661  -0.017  0.00  0.00    -0.104 S 
ATOM     22  C   UNL     1       1.225  -0.611  -0.013  0.00  0.00    +0.058 A 
ATOM     23  C   UNL     1       0.002  -0.004   0.002  0.00  0.00    +0.046 A 
ENDBRANCH  14  23
ENDBRANCH  13  16
ENDBRANCH   1  13
TORSDOF 3
