REMARK  Name = ZINC22451828
REMARK  7 active torsions:
REMARK  status: ('A' for Active; 'I' for Inactive)
REMARK    1  A    between atoms: C_1  and  C_2
REMARK    2  A    between atoms: C_2  and  C_3
REMARK    3  A    between atoms: C_3  and  C_5
REMARK    4  A    between atoms: C_3  and  N_12
REMARK    5  A    between atoms: C_13  and  C_15
REMARK    6  A    between atoms: C_15  and  S_16
REMARK    7  A    between atoms: S_16  and  C_17
REMARK                            x       y       z     vdW  Elec       q    Type
REMARK                         _______ _______ _______ _____ _____    ______ ____
ROOT
ATOM      1  N   UNL     1       2.125  -0.091  -1.209  0.00  0.00    -0.308 N 
ATOM      2  C   UNL     1       2.487   1.134  -1.640  0.00  0.00    +0.224 C 
ATOM      3  O   UNL     1       1.649   1.899  -2.066  0.00  0.00    -0.275 OA
ATOM      4  H   UNL     1       2.795  -0.703  -0.868  0.00  0.00    +0.149 HD
ENDROOT
BRANCH   1   5
ATOM      5  C   UNL     1       0.718  -0.497  -1.257  0.00  0.00    +0.103 C 
BRANCH   5   6
ATOM      6  C   UNL     1       0.632  -2.000  -1.327  0.00  0.00    -0.027 A 
ATOM      7  C   UNL     1       1.488  -2.778  -0.571  0.00  0.00    +0.007 A 
ATOM      8  C   UNL     1       1.409  -4.157  -0.635  0.00  0.00    +0.020 A 
ATOM      9  C   UNL     1       0.473  -4.758  -1.457  0.00  0.00    +0.041 A 
ATOM     10  C   UNL     1      -0.384  -3.979  -2.215  0.00  0.00    +0.020 A 
ATOM     11  C   UNL     1      -0.308  -2.601  -2.145  0.00  0.00    +0.007 A 
ATOM     12 CL   UNL     1       0.373  -6.489  -1.539  0.00  0.00    -0.084 Cl
ENDBRANCH   5   6
BRANCH   5  14
ATOM     13  C   UNL     1      -0.019   1.526   0.010  0.00  0.00    +0.006 C 
ATOM     14  C   UNL     1       0.002  -0.004   0.002  0.00  0.00    +0.024 C 
ENDBRANCH   5  14
ENDBRANCH   1   5
BRANCH   2  15
ATOM     15  C   UNL     1       3.934   1.552  -1.591  0.00  0.00    +0.173 C 
BRANCH  15  16
ATOM     16  S   UNL     1       4.098   3.240  -2.234  0.00  0.00    -0.079 S 
BRANCH  16  17
ATOM     17  C   UNL     1       5.823   3.577  -2.112  0.00  0.00    +0.168 A 
ATOM     18  N   UNL     1       6.422   4.749  -2.480  0.00  0.00    -0.333 N 
ATOM     19  H   UNL     1       5.981   5.530  -2.849  0.00  0.00    +0.168 HD
ATOM     20  C   UNL     1       7.778   4.613  -2.229  0.00  0.00    +0.067 A 
ATOM     21  C   UNL     1       8.874   5.447  -2.393  0.00  0.00    +0.028 A 
ATOM     22  C   UNL     1      10.132   5.005  -2.037  0.00  0.00    +0.002 A 
ATOM     23  C   UNL     1      10.308   3.733  -1.515  0.00  0.00    +0.002 A 
ATOM     24  C   UNL     1       9.231   2.892  -1.345  0.00  0.00    +0.030 A 
ATOM     25  C   UNL     1       7.951   3.323  -1.701  0.00  0.00    +0.090 A 
ATOM     26  N   UNL     1       6.723   2.744  -1.649  0.00  0.00    -0.222 NA
ENDBRANCH  16  17
ENDBRANCH  15  16
ENDBRANCH   2  15
TORSDOF 6
