REMARK  Name = ZINC55085026
REMARK  6 active torsions:
REMARK  status: ('A' for Active; 'I' for Inactive)
REMARK    1  A    between atoms: C_3  and  C_6
REMARK    2  A    between atoms: C_6  and  C_7
REMARK    3  A    between atoms: C_6  and  N_24
REMARK    4  A    between atoms: C_7  and  N_8
REMARK    5  A    between atoms: N_11  and  C_12
REMARK    6  A    between atoms: N_19  and  C_21
REMARK                            x       y       z     vdW  Elec       q    Type
REMARK                         _______ _______ _______ _____ _____    ______ ____
ROOT
ATOM      1  N   UNL     1       5.594   0.291   1.331  0.00  0.00    -0.301 N 
ATOM      2  C   UNL     1       6.282   0.092   2.472  0.00  0.00    +0.300 C 
ATOM      3  O   UNL     1       5.708   0.136   3.543  0.00  0.00    -0.253 OA
ATOM      4  N   UNL     1       7.606  -0.156   2.427  0.00  0.00    -0.296 N 
ATOM      5  H   UNL     1       6.051   0.256   0.476  0.00  0.00    +0.150 HD
ATOM      6  H   UNL     1       8.064  -0.191   1.572  0.00  0.00    +0.151 HD
ENDROOT
BRANCH   4   7
ATOM      7  C   UNL     1       8.352  -0.372   3.665  0.00  0.00    +0.077 C 
ATOM      8  C   UNL     1       8.816   0.967   4.246  0.00  0.00    -0.007 C 
ATOM      9  C   UNL     1       9.477   0.716   5.599  0.00  0.00    +0.003 C 
ATOM     10  C   UNL     1      10.660  -0.237   5.487  0.00  0.00    +0.001 C 
ATOM     11  C   UNL     1      10.325  -1.498   4.704  0.00  0.00    +0.003 C 
ATOM     12  C   UNL     1       9.604  -1.210   3.394  0.00  0.00    -0.007 C 
ATOM     13  C   UNL     1      10.504  -0.486   2.403  0.00  0.00    -0.073 C 
ATOM     14  N   UNL     1      10.882   0.852   2.846  0.00  0.00    +0.382 N 
ATOM     15  C   UNL     1       9.755   1.669   3.280  0.00  0.00    -0.073 C 
ATOM     16  H   UNL     1      11.577   0.795   3.574  0.00  0.00    -0.081 HD
BRANCH  14  17
ATOM     17  C   UNL     1      11.528   1.535   1.718  0.00  0.00    -0.069 C 
ATOM     18  C   UNL     1      13.026   1.825   1.832  0.00  0.00    -0.017 C 
ATOM     19  C   UNL     1      12.015   2.968   1.944  0.00  0.00    -0.017 C 
ENDBRANCH  14  17
ENDBRANCH   4   7
BRANCH   1  20
ATOM     20  C   UNL     1       4.154   0.560   1.380  0.00  0.00    +0.098 C 
BRANCH  20  21
ATOM     21  C   UNL     1       3.646   0.875  -0.028  0.00  0.00    +0.016 C 
BRANCH  21  22
ATOM     22  N   UNL     1       2.184   1.017  -0.000  0.00  0.00    +0.387 N 
ATOM     23  C   UNL     1       1.673   1.319  -1.361  0.00  0.00    -0.078 C 
ATOM     24  C   UNL     1       0.187   0.885  -1.287  0.00  0.00    -0.020 C 
ATOM     25  C   UNL     1       0.242  -0.383  -0.404  0.00  0.00    -0.020 C 
ATOM     26  C   UNL     1       1.554  -0.263   0.392  0.00  0.00    -0.078 C 
ATOM     27  H   UNL     1       1.917   1.748   0.643  0.00  0.00    -0.081 HD
ENDBRANCH  21  22
BRANCH  21  30
ATOM     28  C   UNL     1       5.561   3.642  -1.529  0.00  0.00    +0.041 A 
ATOM     29  C   UNL     1       5.316   2.262  -1.346  0.00  0.00    +0.043 A 
ATOM     30  C   UNL     1       4.267   2.160  -0.511  0.00  0.00    +0.093 A 
ATOM     31  O   UNL     1       3.866   3.399  -0.180  0.00  0.00    -0.469 OA
ATOM     32  C   UNL     1       4.647   4.301  -0.795  0.00  0.00    +0.195 A 
ENDBRANCH  21  30
ENDBRANCH  20  21
ENDBRANCH   1  20
TORSDOF 6
