REMARK  Name = ZINC42374418
REMARK  7 active torsions:
REMARK  status: ('A' for Active; 'I' for Inactive)
REMARK    1  A    between atoms: C_1  and  C_2
REMARK    2  A    between atoms: C_2  and  C_3
REMARK    3  A    between atoms: C_3  and  C_5
REMARK    4  A    between atoms: C_3  and  N_14
REMARK    5  A    between atoms: C_9  and  N_11
REMARK    6  A    between atoms: N_14  and  C_15
REMARK    7  A    between atoms: C_15  and  C_16
REMARK                            x       y       z     vdW  Elec       q    Type
REMARK                         _______ _______ _______ _____ _____    ______ ____
ROOT
ATOM      1  C   UNL     1      -1.427  -0.533   0.139  0.00  0.00    -0.041 C 
ENDROOT
BRANCH   1   2
ATOM      2  C   UNL     1      -1.488  -2.008   0.441  0.00  0.00    -0.059 A 
ATOM      3  C   UNL     1      -1.377  -2.929  -0.585  0.00  0.00    +0.002 A 
ATOM      4  C   UNL     1      -1.433  -4.282  -0.308  0.00  0.00    +0.002 A 
ATOM      5  C   UNL     1      -1.600  -4.715   0.994  0.00  0.00    +0.033 A 
ATOM      6  C   UNL     1      -1.710  -3.794   2.020  0.00  0.00    +0.126 A 
ATOM      7  C   UNL     1      -1.649  -2.441   1.743  0.00  0.00    +0.034 A 
BRANCH   6   8
ATOM      8  N   UNL     1      -1.889  -4.258   3.414  0.00  0.00    +0.056 N 
ATOM      9  O   UNL     1      -1.938  -5.441   3.656  0.00  0.00    -0.126 OA
ATOM     10  O   UNL     1      -1.985  -3.453   4.311  0.00  0.00    -0.126 OA
ENDBRANCH   6   8
ENDBRANCH   1   2
BRANCH   1  11
ATOM     11  N   UNL     1      -2.173  -0.254  -1.095  0.00  0.00    +0.386 N 
ATOM     12  H   UNL     1      -2.060   0.717  -1.345  0.00  0.00    -0.085 HD
ATOM     13  H   UNL     1      -1.820  -0.836  -1.840  0.00  0.00    -0.085 HD
BRANCH  11  14
ATOM     14  C   UNL     1      -3.597  -0.542  -0.882  0.00  0.00    -0.046 C 
BRANCH  14  15
ATOM     15  C   UNL     1      -4.380  -0.140  -2.106  0.00  0.00    -0.064 A 
ATOM     16  C   UNL     1      -4.887   1.142  -2.211  0.00  0.00    +0.003 A 
ATOM     17  C   UNL     1      -5.604   1.512  -3.333  0.00  0.00    +0.015 A 
ATOM     18  C   UNL     1      -5.815   0.599  -4.351  0.00  0.00    +0.018 A 
ATOM     19  C   UNL     1      -5.307  -0.683  -4.245  0.00  0.00    +0.015 A 
ATOM     20  C   UNL     1      -4.586  -1.051  -3.125  0.00  0.00    +0.003 A 
ATOM     21 BR   UNL     1      -6.797   1.104  -5.886  0.00  0.00    -0.050 Br
ENDBRANCH  14  15
ENDBRANCH  11  14
ENDBRANCH   1  11
BRANCH   1  23
ATOM     22  C   UNL     1       0.104   1.409  -0.217  0.00  0.00    +0.002 C 
ATOM     23  C   UNL     1       0.032  -0.109  -0.040  0.00  0.00    -0.015 C 
ENDBRANCH   1  23
TORSDOF 6
