REMARK  Name = ZINC27989909
REMARK  12 active torsions:
REMARK  status: ('A' for Active; 'I' for Inactive)
REMARK    1  A    between atoms: C_1  and  C_2
REMARK    2  A    between atoms: C_2  and  C_4
REMARK    3  A    between atoms: C_2  and  O_16
REMARK    4  A    between atoms: N_6  and  C_7
REMARK    5  A    between atoms: N_6  and  C_8
REMARK    6  A    between atoms: C_8  and  C_9
REMARK    7  A    between atoms: O_16  and  C_17
REMARK    8  A    between atoms: C_17  and  C_19
REMARK    9  A    between atoms: C_19  and  C_20
REMARK   10  A    between atoms: C_20  and  C_21
REMARK   11  A    between atoms: C_21  and  N_22
REMARK   12  A    between atoms: C_26  and  N_32
REMARK                            x       y       z     vdW  Elec       q    Type
REMARK                         _______ _______ _______ _____ _____    ______ ____
ROOT
ATOM      1  C   UNL     1      -3.632   7.730  -2.599  0.00  0.00    +0.308 C 
ATOM      2  O   UNL     1      -3.584   6.779  -3.342  0.00  0.00    -0.251 OA
ENDROOT
BRANCH   1   3
ATOM      3  O   UNL     1      -4.132   8.898  -3.034  0.00  0.00    -0.452 OA
BRANCH   3   5
ATOM      4  C   UNL     1      -3.444   9.364  -5.323  0.00  0.00    +0.062 C 
ATOM      5  C   UNL     1      -4.597   8.944  -4.409  0.00  0.00    +0.259 C 
BRANCH   5   6
ATOM      6  C   UNL     1      -5.720   9.943  -4.526  0.00  0.00    +0.256 C 
ATOM      7  O   UNL     1      -5.908  10.750  -3.641  0.00  0.00    -0.272 OA
ATOM      8  N   UNL     1      -6.515   9.938  -5.614  0.00  0.00    -0.297 N 
ATOM      9  C   UNL     1      -6.364   8.890  -6.627  0.00  0.00    +0.132 C 
BRANCH   8  10
ATOM     10  C   UNL     1      -7.530  10.980  -5.784  0.00  0.00    +0.142 C 
BRANCH  10  11
ATOM     11  C   UNL     1      -6.935  12.143  -6.535  0.00  0.00    -0.027 A 
ATOM     12  C   UNL     1      -6.330  13.176  -5.843  0.00  0.00    +0.005 A 
ATOM     13  C   UNL     1      -5.779  14.241  -6.531  0.00  0.00    +0.003 A 
ATOM     14  C   UNL     1      -5.842  14.280  -7.911  0.00  0.00    +0.038 A 
ATOM     15  C   UNL     1      -6.452  13.249  -8.605  0.00  0.00    +0.124 A 
ATOM     16  C   UNL     1      -6.998  12.180  -7.915  0.00  0.00    +0.043 A 
ATOM     17  F   UNL     1      -6.514  13.286  -9.954  0.00  0.00    -0.205 F 
ENDBRANCH  10  11
ENDBRANCH   8  10
ENDBRANCH   5   6
ENDBRANCH   3   5
ENDBRANCH   1   3
BRANCH   1  18
ATOM     18  C   UNL     1      -3.130   7.606  -1.183  0.00  0.00    +0.122 C 
BRANCH  18  19
ATOM     19  C   UNL     1      -2.617   6.184  -0.947  0.00  0.00    +0.033 C 
BRANCH  19  20
ATOM     20  C   UNL     1      -2.108   6.059   0.490  0.00  0.00    +0.129 C 
BRANCH  20  21
ATOM     21  N   UNL     1      -1.617   4.697   0.717  0.00  0.00    -0.274 N 
ATOM     22  C   UNL     1      -0.314   4.245   0.508  0.00  0.00    +0.090 A 
ATOM     23  C   UNL     1       0.847   4.859   0.063  0.00  0.00    +0.032 A 
ATOM     24  C   UNL     1       2.014   4.128  -0.041  0.00  0.00    +0.035 A 
ATOM     25  C   UNL     1       2.027   2.786   0.299  0.00  0.00    +0.130 A 
ATOM     26  C   UNL     1       0.875   2.168   0.744  0.00  0.00    +0.081 A 
ATOM     27  C   UNL     1      -0.303   2.892   0.845  0.00  0.00    +0.159 A 
ATOM     28  O   UNL     1      -1.556   2.567   1.247  0.00  0.00    -0.407 OA
ATOM     29  C   UNL     1      -2.341   3.652   1.164  0.00  0.00    +0.421 A 
ATOM     30  O   UNL     1      -3.522   3.688   1.450  0.00  0.00    -0.223 OA
BRANCH  25  31
ATOM     31  N   UNL     1       3.283   2.010   0.185  0.00  0.00    +0.057 N 
ATOM     32  O   UNL     1       3.298   0.829   0.483  0.00  0.00    -0.126 OA
ATOM     33  O   UNL     1       4.301   2.552  -0.206  0.00  0.00    -0.126 OA
ENDBRANCH  25  31
ENDBRANCH  20  21
ENDBRANCH  19  20
ENDBRANCH  18  19
ENDBRANCH   1  18
TORSDOF 10
