REMARK  Name = ZINC39519489
REMARK  4 active torsions:
REMARK  status: ('A' for Active; 'I' for Inactive)
REMARK    1  A    between atoms: N_9  and  N_13
REMARK    2  A    between atoms: C_14  and  C_16
REMARK    3  A    between atoms: C_16  and  N_17
REMARK    4  A    between atoms: C_21  and  O_24
REMARK                            x       y       z     vdW  Elec       q    Type
REMARK                         _______ _______ _______ _____ _____    ______ ____
ROOT
ATOM      1  N   UNL     1       4.902  -1.845   2.752  0.00  0.00    -0.225 N 
ATOM      2  C   UNL     1       4.865  -3.185   2.882  0.00  0.00    +0.213 C 
ATOM      3  O   UNL     1       4.003  -3.826   2.318  0.00  0.00    -0.276 OA
ATOM      4  H   UNL     1       5.592  -1.333   3.203  0.00  0.00    +0.173 HD
ENDROOT
BRANCH   1  13
ATOM      5  C   UNL     1      -0.019   1.526   0.010  0.00  0.00    +0.000 C 
ATOM      6  C   UNL     1       1.416   2.058  -0.000  0.00  0.00    +0.003 C 
ATOM      7  C   UNL     1       2.153   1.559   1.245  0.00  0.00    +0.035 C 
ATOM      8  C   UNL     1       2.158   0.035   1.258  0.00  0.00    +0.114 C 
ATOM      9  C   UNL     1       0.734  -0.510   1.248  0.00  0.00    +0.035 C 
ATOM     10  C   UNL     1       0.002  -0.004   0.002  0.00  0.00    +0.003 C 
ATOM     11  C   UNL     1       2.911  -0.480   2.463  0.00  0.00    +0.263 C 
ATOM     12  O   UNL     1       2.643  -0.295   3.631  0.00  0.00    -0.271 OA
ATOM     13  N   UNL     1       3.945  -1.190   1.965  0.00  0.00    -0.137 N 
ATOM     14  C   UNL     1       3.944  -1.190   0.626  0.00  0.00    +0.326 C 
ATOM     15  O   UNL     1       4.776  -1.762  -0.050  0.00  0.00    -0.251 OA
ATOM     16  N   UNL     1       2.916  -0.487   0.114  0.00  0.00    -0.284 N 
ATOM     17  H   UNL     1       2.717  -0.351  -0.826  0.00  0.00    +0.151 HD
ENDBRANCH   1  13
BRANCH   2  18
ATOM     18  C   UNL     1       5.894  -3.889   3.728  0.00  0.00    +0.020 C 
BRANCH  18  19
ATOM     19  N   UNL     1       5.638  -5.336   3.708  0.00  0.00    +0.387 N 
ATOM     20  C   UNL     1       5.829  -5.846   2.345  0.00  0.00    -0.078 C 
ATOM     21  C   UNL     1       5.484  -7.337   2.302  0.00  0.00    -0.016 C 
ATOM     22  C   UNL     1       6.402  -8.095   3.265  0.00  0.00    +0.027 C 
ATOM     23  C   UNL     1       6.250  -7.505   4.670  0.00  0.00    +0.098 C 
ATOM     24  C   UNL     1       6.566  -6.008   4.626  0.00  0.00    -0.047 C 
ATOM     25  H   UNL     1       4.689  -5.512   4.002  0.00  0.00    -0.081 HD
BRANCH  23  26
ATOM     26  O   UNL     1       7.155  -8.158   5.563  0.00  0.00    -0.394 OA
ATOM     27  H   UNL     1       7.015  -9.111   5.638  0.00  0.00    +0.210 HD
ENDBRANCH  23  26
ENDBRANCH  18  19
ENDBRANCH   2  18
TORSDOF 4
