REMARK  Name = ZINC63426902
REMARK  15 active torsions:
REMARK  status: ('A' for Active; 'I' for Inactive)
REMARK    1  A    between atoms: C_1  and  C_2
REMARK    2  A    between atoms: C_6  and  C_7
REMARK    3  A    between atoms: C_9  and  O_17
REMARK    4  A    between atoms: C_10  and  O_15
REMARK    5  A    between atoms: C_11  and  O_13
REMARK    6  A    between atoms: O_13  and  C_14
REMARK    7  A    between atoms: O_15  and  C_16
REMARK    8  A    between atoms: O_17  and  C_18
REMARK    9  A    between atoms: C_22  and  C_28
REMARK   10  A    between atoms: C_30  and  O_38
REMARK   11  A    between atoms: C_31  and  O_36
REMARK   12  A    between atoms: C_32  and  O_34
REMARK   13  A    between atoms: O_34  and  C_35
REMARK   14  A    between atoms: O_36  and  C_37
REMARK   15  A    between atoms: O_38  and  C_39
REMARK                            x       y       z     vdW  Elec       q    Type
REMARK                         _______ _______ _______ _____ _____    ______ ____
ROOT
ATOM      1  C   UNL     1      -0.301   1.352   0.236  0.00  0.00    +0.008 C 
ATOM      2  C   UNL     1      -0.060  -0.157   0.156  0.00  0.00    -0.006 C 
ATOM      3  C   UNL     1       0.549  -0.509  -1.209  0.00  0.00    +0.040 C 
ATOM      4  C   UNL     1       0.710  -2.013  -1.242  0.00  0.00    -0.025 C 
ATOM      5  C   UNL     1       0.418  -2.715  -2.352  0.00  0.00    +0.013 C 
ATOM      6  C   UNL     1       1.196  -2.690  -0.024  0.00  0.00    +0.037 C 
ATOM      7  C   UNL     1       1.288  -2.034   1.134  0.00  0.00    -0.023 C 
ATOM      8  C   UNL     1       0.911  -0.578   1.254  0.00  0.00    +0.038 C 
ATOM      9  C   UNL     1       1.775  -2.731   2.380  0.00  0.00    +0.131 C 
ATOM     10  N   UNL     1       2.115  -4.122   2.145  0.00  0.00    -0.316 N 
ATOM     11  C   UNL     1       2.003  -4.713   0.949  0.00  0.00    +0.135 C 
ATOM     12  S   UNL     1       2.437  -6.361   0.783  0.00  0.00    -0.019 S 
ATOM     13  N   UNL     1       1.558  -4.038  -0.122  0.00  0.00    -0.297 N 
ATOM     14  H   UNL     1       2.439  -4.650   2.891  0.00  0.00    +0.149 HD
ATOM     15  H   UNL     1       1.486  -4.492  -0.976  0.00  0.00    +0.154 HD
ENDROOT
BRANCH   5  16
ATOM     16  C   UNL     1       0.099  -2.010  -3.606  0.00  0.00    -0.018 A 
ATOM     17  C   UNL     1       0.711  -0.788  -3.897  0.00  0.00    +0.057 A 
ATOM     18  C   UNL     1       0.409  -0.129  -5.076  0.00  0.00    +0.166 A 
ATOM     19  C   UNL     1      -0.502  -0.682  -5.970  0.00  0.00    +0.204 A 
ATOM     20  C   UNL     1      -1.113  -1.899  -5.683  0.00  0.00    +0.166 A 
ATOM     21  C   UNL     1      -0.812  -2.566  -4.509  0.00  0.00    +0.057 A 
BRANCH  20  22
ATOM     22  O   UNL     1      -2.003  -2.436  -6.559  0.00  0.00    -0.491 OA
ATOM     23  C   UNL     1      -2.593  -3.687  -6.201  0.00  0.00    +0.277 C 
ENDBRANCH  20  22
BRANCH  19  24
ATOM     24  O   UNL     1      -0.796  -0.032  -7.128  0.00  0.00    -0.488 OA
ATOM     25  C   UNL     1       0.012  -0.337  -8.267  0.00  0.00    +0.277 C 
ENDBRANCH  19  24
BRANCH  18  26
ATOM     26  O   UNL     1       1.004   1.061  -5.360  0.00  0.00    -0.491 OA
ATOM     27  C   UNL     1       1.928   1.571  -4.397  0.00  0.00    +0.277 C 
ENDBRANCH  18  26
ENDBRANCH   5  16
BRANCH   9  28
ATOM     28  C   UNL     1       2.997  -2.013   2.894  0.00  0.00    -0.016 A 
ATOM     29  C   UNL     1       4.228  -2.244   2.309  0.00  0.00    +0.055 A 
ATOM     30  C   UNL     1       5.354  -1.586   2.779  0.00  0.00    +0.165 A 
ATOM     31  C   UNL     1       5.244  -0.693   3.839  0.00  0.00    +0.204 A 
ATOM     32  C   UNL     1       4.004  -0.464   4.423  0.00  0.00    +0.165 A 
ATOM     33  C   UNL     1       2.882  -1.122   3.944  0.00  0.00    +0.055 A 
BRANCH  32  34
ATOM     34  O   UNL     1       3.891   0.408   5.461  0.00  0.00    -0.491 OA
ATOM     35  C   UNL     1       2.586   0.595   6.012  0.00  0.00    +0.277 C 
ENDBRANCH  32  34
BRANCH  31  36
ATOM     36  O   UNL     1       6.348  -0.046   4.303  0.00  0.00    -0.488 OA
ATOM     37  C   UNL     1       6.662   1.212   3.703  0.00  0.00    +0.277 C 
ENDBRANCH  31  36
BRANCH  30  38
ATOM     38  O   UNL     1       6.566  -1.814   2.204  0.00  0.00    -0.491 OA
ATOM     39  C   UNL     1       6.604  -2.744   1.120  0.00  0.00    +0.277 C 
ENDBRANCH  30  38
ENDBRANCH   9  28
TORSDOF 8
