REMARK  Name = ZINC02364851
REMARK  9 active torsions:
REMARK  status: ('A' for Active; 'I' for Inactive)
REMARK    1  A    between atoms: C_1  and  C_2
REMARK    2  A    between atoms: C_5  and  S_8
REMARK    3  A    between atoms: S_8  and  N_11
REMARK    4  A    between atoms: N_11  and  N_12
REMARK    5  A    between atoms: C_13  and  C_15
REMARK    6  A    between atoms: C_15  and  C_16
REMARK    7  A    between atoms: C_16  and  C_17
REMARK    8  A    between atoms: C_17  and  N_18
REMARK    9  A    between atoms: C_22  and  C_23
REMARK                            x       y       z     vdW  Elec       q    Type
REMARK                         _______ _______ _______ _____ _____    ______ ____
ROOT
ATOM      1  C   UNL     1      -2.811  -1.183  -3.093  0.00  0.00    +0.098 C 
ENDROOT
BRANCH   1   3
ATOM      2  N   UNL     1      -4.192  -1.647  -5.091  0.00  0.00    -0.232 N 
ATOM      3  C   UNL     1      -3.083  -1.084  -4.571  0.00  0.00    +0.228 C 
ATOM      4  O   UNL     1      -2.306  -0.497  -5.294  0.00  0.00    -0.274 OA
ATOM      5  H   UNL     1      -4.814  -2.116  -4.514  0.00  0.00    +0.171 HD
BRANCH   2   6
ATOM      6  N   UNL     1      -4.446  -1.555  -6.466  0.00  0.00    -0.108 NA
ATOM      7  H   UNL     1      -4.472  -0.687  -6.897  0.00  0.00    +0.172 HD
BRANCH   6   8
ATOM      8  S   UNL     1      -4.700  -2.929  -7.355  0.00  0.00    +0.074 S 
ATOM      9  O   UNL     1      -5.068  -2.506  -8.660  0.00  0.00    -0.152 OA
ATOM     10  O   UNL     1      -3.587  -3.780  -7.115  0.00  0.00    -0.152 OA
BRANCH   8  15
ATOM     11  C   UNL     1      -9.523  -5.700  -5.016  0.00  0.00    +0.044 C 
ATOM     12  C   UNL     1      -8.318  -5.008  -5.601  0.00  0.00    -0.050 A 
ATOM     13  C   UNL     1      -8.478  -4.078  -6.611  0.00  0.00    +0.005 A 
ATOM     14  C   UNL     1      -7.373  -3.443  -7.146  0.00  0.00    +0.029 A 
ATOM     15  C   UNL     1      -6.108  -3.738  -6.672  0.00  0.00    +0.107 A 
ATOM     16  C   UNL     1      -5.948  -4.672  -5.665  0.00  0.00    +0.029 A 
ATOM     17  C   UNL     1      -7.054  -5.303  -5.126  0.00  0.00    +0.005 A 
ENDBRANCH   8  15
ENDBRANCH   6   8
ENDBRANCH   2   6
ENDBRANCH   1   3
BRANCH   1  18
ATOM     18  C   UNL     1      -1.499  -0.465  -2.767  0.00  0.00    +0.029 C 
BRANCH  18  19
ATOM     19  C   UNL     1      -1.222  -0.566  -1.266  0.00  0.00    +0.115 C 
BRANCH  19  20
ATOM     20  N   UNL     1       0.034   0.121  -0.954  0.00  0.00    -0.255 N 
ATOM     21  C   UNL     1       0.007   1.407  -0.643  0.00  0.00    +0.258 C 
ATOM     22  O   UNL     1      -1.034   2.036  -0.614  0.00  0.00    -0.269 OA
ATOM     23  C   UNL     1       1.307   2.041  -0.340  0.00  0.00    +0.077 C 
ATOM     24  C   UNL     1       1.585   3.323   0.005  0.00  0.00    +0.029 C 
ATOM     25  S   UNL     1       2.414   0.653  -0.551  0.00  0.00    -0.061 S 
ATOM     26  C   UNL     1       1.190  -0.571  -0.990  0.00  0.00    +0.121 C 
ATOM     27  S   UNL     1       1.428  -2.224  -1.367  0.00  0.00    -0.027 S 
BRANCH  24  28
ATOM     28  C   UNL     1       2.980   3.772   0.105  0.00  0.00    -0.005 A 
ATOM     29  C   UNL     1       4.002   3.034  -0.504  0.00  0.00    +0.009 A 
ATOM     30  C   UNL     1       5.308   3.464  -0.409  0.00  0.00    +0.001 A 
ATOM     31  C   UNL     1       5.613   4.617   0.294  0.00  0.00    +0.001 A 
ATOM     32  C   UNL     1       4.611   5.350   0.904  0.00  0.00    +0.020 A 
ATOM     33  C   UNL     1       3.296   4.937   0.815  0.00  0.00    +0.048 A 
ATOM     34 CL   UNL     1       2.040   5.858   1.581  0.00  0.00    -0.083 Cl
ENDBRANCH  24  28
ENDBRANCH  19  20
ENDBRANCH  18  19
ENDBRANCH   1  18
TORSDOF 8
