REMARK  Name = ZINC12324509
REMARK  3 active torsions:
REMARK  status: ('A' for Active; 'I' for Inactive)
REMARK    1  A    between atoms: C_3  and  N_9
REMARK    2  A    between atoms: C_10  and  C_12
REMARK    3  A    between atoms: C_20  and  N_29
REMARK                            x       y       z     vdW  Elec       q    Type
REMARK                         _______ _______ _______ _____ _____    ______ ____
ROOT
ATOM      1  C   UNL     1       4.747   4.092  -0.448  0.00  0.00    +0.121 C 
ATOM      2  C   UNL     1       5.309   3.817  -1.844  0.00  0.00    +0.113 C 
ATOM      3  C   UNL     1       6.537   4.659  -2.074  0.00  0.00    +0.219 C 
ATOM      4  O   UNL     1       7.473   4.197  -2.691  0.00  0.00    -0.275 OA
ATOM      5  N   UNL     1       6.606   5.916  -1.601  0.00  0.00    -0.270 N 
ATOM      6  C   UNL     1       5.597   6.429  -0.799  0.00  0.00    +0.136 A 
ATOM      7  C   UNL     1       4.664   5.577  -0.223  0.00  0.00    +0.045 A 
ATOM      8  C   UNL     1       3.656   6.122   0.565  0.00  0.00    +0.127 A 
ATOM      9  N   UNL     1       3.631   7.440   0.754  0.00  0.00    -0.199 NA
ATOM     10  C   UNL     1       4.550   8.221   0.207  0.00  0.00    +0.221 A 
ATOM     11  N   UNL     1       5.521   7.733  -0.551  0.00  0.00    -0.199 NA
ATOM     12  N   UNL     1       4.497   9.584   0.436  0.00  0.00    -0.300 N 
ATOM     13  C   UNL     1       5.435  10.581  -0.102  0.00  0.00    +0.108 C 
ATOM     14  C   UNL     1       4.998  11.959   0.438  0.00  0.00    +0.020 C 
ATOM     15  C   UNL     1       4.178  11.593   1.703  0.00  0.00    +0.020 C 
ATOM     16  C   UNL     1       3.486  10.280   1.253  0.00  0.00    +0.108 C 
ATOM     17  H   UNL     1       7.370   6.470  -1.824  0.00  0.00    +0.156 HD
ENDROOT
BRANCH   1  19
ATOM     18  N   UNL     1       3.137   2.509   0.561  0.00  0.00    -0.284 N 
ATOM     19  C   UNL     1       3.371   3.490  -0.334  0.00  0.00    +0.225 C 
ATOM     20  O   UNL     1       2.473   3.887  -1.046  0.00  0.00    -0.275 OA
ATOM     21  H   UNL     1       3.833   2.242   1.181  0.00  0.00    +0.155 HD
BRANCH  18  24
ATOM     22  C   UNL     1      -0.185   1.313  -0.470  0.00  0.00    +0.022 A 
ATOM     23  C   UNL     1       1.046   1.939  -0.506  0.00  0.00    +0.026 A 
ATOM     24  C   UNL     1       1.888   1.876   0.595  0.00  0.00    +0.052 A 
ATOM     25  C   UNL     1       1.490   1.183   1.733  0.00  0.00    +0.064 A 
ATOM     26  C   UNL     1       0.258   0.559   1.763  0.00  0.00    +0.041 A 
ATOM     27  C   UNL     1      -0.579   0.624   0.663  0.00  0.00    +0.042 A 
ATOM     28 CL   UNL     1      -2.127  -0.161   0.705  0.00  0.00    -0.083 Cl
ATOM     29 CL   UNL     1       2.540   1.101   3.113  0.00  0.00    -0.082 Cl
ENDBRANCH  18  24
ENDBRANCH   1  19
BRANCH   8  30
ATOM     30  N   UNL     1       2.696   5.307   1.143  0.00  0.00    -0.343 N 
ATOM     31  H   UNL     1       2.931   4.413   1.437  0.00  0.00    +0.144 HD
ATOM     32  H   UNL     1       1.788   5.631   1.254  0.00  0.00    +0.144 HD
ENDBRANCH   8  30
TORSDOF 3
