REMARK  Name = ZINC12766321
REMARK  9 active torsions:
REMARK  status: ('A' for Active; 'I' for Inactive)
REMARK    1  A    between atoms: C_4  and  C_7
REMARK    2  A    between atoms: C_7  and  N_8
REMARK    3  A    between atoms: C_9  and  N_36
REMARK    4  A    between atoms: C_10  and  N_17
REMARK    5  A    between atoms: N_17  and  C_18
REMARK    6  A    between atoms: C_18  and  C_19
REMARK    7  A    between atoms: C_25  and  C_27
REMARK    8  A    between atoms: C_27  and  O_28
REMARK    9  A    between atoms: O_28  and  C_29
REMARK                            x       y       z     vdW  Elec       q    Type
REMARK                         _______ _______ _______ _____ _____    ______ ____
ROOT
ATOM      1  N   UNL     1       4.035  -1.958   2.481  0.00  0.00    -0.276 N 
ATOM      2  C   UNL     1       4.496  -0.989   3.342  0.00  0.00    +0.128 A 
ATOM      3  C   UNL     1       5.671  -0.329   3.046  0.00  0.00    +0.140 A 
ATOM      4  C   UNL     1       6.363  -0.668   1.869  0.00  0.00    +0.277 A 
ATOM      5  O   UNL     1       7.404  -0.101   1.584  0.00  0.00    -0.266 OA
ATOM      6  N   UNL     1       5.869  -1.625   1.059  0.00  0.00    -0.273 N 
ATOM      7  H   UNL     1       6.345  -1.860   0.248  0.00  0.00    +0.173 HD
ATOM      8  C   UNL     1       4.725  -2.262   1.366  0.00  0.00    +0.331 A 
ATOM      9  O   UNL     1       4.303  -3.125   0.620  0.00  0.00    -0.246 OA
ENDROOT
BRANCH   3  10
ATOM     10  N   UNL     1       6.169   0.670   3.909  0.00  0.00    -0.257 N 
ATOM     11  C   UNL     1       6.208   1.956   3.501  0.00  0.00    +0.258 C 
ATOM     12  O   UNL     1       5.900   2.241   2.363  0.00  0.00    -0.271 OA
BRANCH  10  13
ATOM     13  C   UNL     1       6.643   0.312   5.248  0.00  0.00    +0.149 C 
BRANCH  13  14
ATOM     14  C   UNL     1       8.076  -0.150   5.166  0.00  0.00    -0.030 A 
ATOM     15  C   UNL     1       8.361  -1.468   4.862  0.00  0.00    +0.005 A 
ATOM     16  C   UNL     1       9.674  -1.892   4.787  0.00  0.00    +0.000 A 
ATOM     17  C   UNL     1      10.703  -0.997   5.016  0.00  0.00    +0.000 A 
ATOM     18  C   UNL     1      10.418   0.321   5.319  0.00  0.00    +0.000 A 
ATOM     19  C   UNL     1       9.104   0.746   5.390  0.00  0.00    +0.005 A 
ENDBRANCH  13  14
ENDBRANCH  10  13
BRANCH  11  20
ATOM     20  C   UNL     1       6.635   3.038   4.459  0.00  0.00    +0.325 C 
BRANCH  20  21
ATOM     21  O   UNL     1       6.481   4.314   3.836  0.00  0.00    -0.483 OA
BRANCH  21  22
ATOM     22  C   UNL     1       6.825   5.405   4.570  0.00  0.00    +0.123 A 
ATOM     23  C   UNL     1       7.306   5.250   5.862  0.00  0.00    +0.046 A 
ATOM     24  C   UNL     1       7.655   6.359   6.607  0.00  0.00    +0.005 A 
ATOM     25  C   UNL     1       7.526   7.625   6.066  0.00  0.00    +0.020 A 
ATOM     26  C   UNL     1       7.046   7.784   4.778  0.00  0.00    +0.044 A 
ATOM     27  C   UNL     1       6.700   6.675   4.027  0.00  0.00    +0.065 A 
ATOM     28 CL   UNL     1       6.884   9.374   4.103  0.00  0.00    -0.083 Cl
ENDBRANCH  21  22
ENDBRANCH  20  21
ENDBRANCH  11  20
ENDBRANCH   3  10
BRANCH   2  29
ATOM     29  N   UNL     1       3.794  -0.682   4.482  0.00  0.00    -0.343 N 
ATOM     30  H   UNL     1       2.932  -1.096   4.648  0.00  0.00    +0.144 HD
ATOM     31  H   UNL     1       4.160  -0.051   5.122  0.00  0.00    +0.144 HD
ENDBRANCH   2  29
BRANCH   1  32
ATOM     32  C   UNL     1       2.789  -2.667   2.782  0.00  0.00    +0.163 C 
BRANCH  32  36
ATOM     33  C   UNL     1       3.652  -6.137   5.119  0.00  0.00    +0.000 A 
ATOM     34  C   UNL     1       3.389  -4.931   5.742  0.00  0.00    +0.000 A 
ATOM     35  C   UNL     1       3.110  -3.808   4.986  0.00  0.00    +0.005 A 
ATOM     36  C   UNL     1       3.094  -3.891   3.606  0.00  0.00    -0.028 A 
ATOM     37  C   UNL     1       3.358  -5.096   2.983  0.00  0.00    +0.005 A 
ATOM     38  C   UNL     1       3.636  -6.219   3.739  0.00  0.00    +0.000 A 
ENDBRANCH  32  36
ENDBRANCH   1  32
TORSDOF 9
