REMARK  Name = ZINC63812364
REMARK  7 active torsions:
REMARK  status: ('A' for Active; 'I' for Inactive)
REMARK    1  A    between atoms: C_5  and  C_7
REMARK    2  A    between atoms: C_7  and  N_8
REMARK    3  A    between atoms: C_9  and  C_11
REMARK    4  A    between atoms: C_11  and  C_13
REMARK    5  A    between atoms: C_11  and  N_23
REMARK    6  A    between atoms: C_13  and  C_14
REMARK    7  A    between atoms: C_24  and  C_26
REMARK                            x       y       z     vdW  Elec       q    Type
REMARK                         _______ _______ _______ _____ _____    ______ ____
ROOT
ATOM      1  C   UNL     1       1.821  -4.633   3.043  0.00  0.00    +0.163 C 
ENDROOT
BRANCH   1   3
ATOM      2  N   UNL     1       2.166  -2.868   1.345  0.00  0.00    -0.310 N 
ATOM      3  C   UNL     1       1.919  -4.166   1.614  0.00  0.00    +0.234 C 
ATOM      4  O   UNL     1       1.776  -4.957   0.706  0.00  0.00    -0.274 OA
ATOM      5  H   UNL     1       2.280  -2.236   2.071  0.00  0.00    +0.149 HD
BRANCH   2   6
ATOM      6  C   UNL     1       2.262  -2.414  -0.044  0.00  0.00    +0.142 C 
BRANCH   6  11
ATOM      7  C   UNL     1       1.769   1.319  -0.323  0.00  0.00    +0.000 A 
ATOM      8  C   UNL     1       3.055   1.785  -0.119  0.00  0.00    +0.003 A 
ATOM      9  C   UNL     1       4.085   0.893   0.109  0.00  0.00    +0.038 A 
ATOM     10  C   UNL     1       3.829  -0.468   0.134  0.00  0.00    +0.128 A 
ATOM     11  C   UNL     1       2.542  -0.933  -0.070  0.00  0.00    +0.005 A 
ATOM     12  C   UNL     1       1.512  -0.039  -0.299  0.00  0.00    +0.008 A 
ATOM     13  F   UNL     1       4.836  -1.341   0.357  0.00  0.00    -0.205 F 
ENDBRANCH   6  11
ENDBRANCH   2   6
ENDBRANCH   1   3
BRANCH   1  14
ATOM     14  N   UNL     1       1.549  -6.073   3.068  0.00  0.00    -0.300 N 
ATOM     15  C   UNL     1       1.948  -6.815   4.120  0.00  0.00    +0.246 C 
ATOM     16  O   UNL     1       2.534  -6.291   5.047  0.00  0.00    -0.270 OA
ATOM     17  H   UNL     1       1.082  -6.491   2.329  0.00  0.00    +0.150 HD
BRANCH  15  18
ATOM     18  C   UNL     1       1.674  -8.267   4.145  0.00  0.00    +0.055 A 
ATOM     19  C   UNL     1       1.007  -8.874   3.079  0.00  0.00    +0.014 A 
ATOM     20  C   UNL     1       0.754 -10.229   3.109  0.00  0.00    +0.001 A 
ATOM     21  C   UNL     1       1.160 -10.989   4.192  0.00  0.00    +0.001 A 
ATOM     22  C   UNL     1       1.821 -10.396   5.252  0.00  0.00    +0.021 A 
ATOM     23  C   UNL     1       2.086  -9.040   5.233  0.00  0.00    +0.053 A 
ATOM     24 CL   UNL     1       2.923  -8.298   6.561  0.00  0.00    -0.083 Cl
ENDBRANCH  15  18
ENDBRANCH   1  14
BRANCH   1  25
ATOM     25  C   UNL     1       0.686  -3.887   3.747  0.00  0.00    +0.065 C 
BRANCH  25  26
ATOM     26  C   UNL     1      -0.622  -4.206   3.068  0.00  0.00    -0.039 C 
ATOM     27  C   UNL     1      -1.507  -5.166   3.419  0.00  0.00    -0.001 A 
ATOM     28  C   UNL     1      -1.518  -6.164   4.496  0.00  0.00    +0.010 A 
ATOM     29  C   UNL     1      -2.567  -7.011   4.594  0.00  0.00    +0.001 A 
ATOM     30  C   UNL     1      -3.642  -6.962   3.696  0.00  0.00    +0.002 A 
ATOM     31  C   UNL     1      -3.704  -6.073   2.682  0.00  0.00    +0.026 A 
ATOM     32  C   UNL     1      -2.654  -5.134   2.484  0.00  0.00    +0.043 A 
ATOM     33  N   UNL     1      -2.485  -4.191   1.589  0.00  0.00    -0.380 N 
ATOM     34  C   UNL     1      -1.212  -3.513   1.860  0.00  0.00    +0.144 C 
ATOM     35  H   UNL     1      -3.099  -3.974   0.871  0.00  0.00    +0.160 HD
ENDBRANCH  25  26
ENDBRANCH   1  25
TORSDOF 7
