REMARK  Name = ZINC65380434
REMARK  5 active torsions:
REMARK  status: ('A' for Active; 'I' for Inactive)
REMARK    1  A    between atoms: C_1  and  C_2
REMARK    2  A    between atoms: C_7  and  C_9
REMARK    3  A    between atoms: C_12  and  C_21
REMARK    4  A    between atoms: C_21  and  C_22
REMARK    5  A    between atoms: C_21  and  C_23
REMARK                            x       y       z     vdW  Elec       q    Type
REMARK                         _______ _______ _______ _____ _____    ______ ____
ROOT
ATOM      1  C   UNL     1       0.051  -2.728   2.633  0.00  0.00    +0.211 C 
ATOM      2  N   UNL     1       1.382  -3.303   2.894  0.00  0.00    -0.308 N 
ATOM      3  C   UNL     1       1.852  -2.701   4.049  0.00  0.00    +0.118 C 
ATOM      4  N   UNL     1       1.014  -1.854   4.526  0.00  0.00    -0.165 NA
ATOM      5  N   UNL     1      -0.147  -1.777   3.741  0.00  0.00    -0.181 N 
ATOM      6  C   UNL     1      -1.255  -0.971   3.960  0.00  0.00    +0.143 A 
ATOM      7  C   UNL     1      -1.280  -0.117   5.060  0.00  0.00    +0.045 A 
ATOM      8  C   UNL     1      -2.391   0.680   5.266  0.00  0.00    +0.005 A 
ATOM      9  C   UNL     1      -3.443   0.598   4.364  0.00  0.00    +0.020 A 
ATOM     10  C   UNL     1      -3.351  -0.270   3.295  0.00  0.00    +0.113 A 
ATOM     11  N   UNL     1      -2.277  -1.016   3.119  0.00  0.00    -0.239 NA
ATOM     12  H   UNL     1       1.840  -3.972   2.362  0.00  0.00    +0.149 HD
ENDROOT
BRANCH   1  19
ATOM     13  C   UNL     1      -0.018   1.503   0.010  0.00  0.00    +0.063 C 
ATOM     14  C   UNL     1       0.002  -0.004   0.002  0.00  0.00    +0.031 C 
ATOM     15  N   UNL     1       0.005  -0.609  -1.155  0.00  0.00    -0.185 NA
ATOM     16  C   UNL     1       0.022  -1.943  -1.270  0.00  0.00    +0.240 C 
ATOM     17  O   UNL     1       0.024  -2.474  -2.362  0.00  0.00    -0.273 OA
ATOM     18  C   UNL     1       0.040  -2.772  -0.002  0.00  0.00    +0.132 C 
ATOM     19  C   UNL     1       0.036  -2.010   1.309  0.00  0.00    -0.020 C 
ATOM     20  C   UNL     1       0.023  -0.670   1.242  0.00  0.00    +0.023 C 
ENDBRANCH   1  19
BRANCH   3  21
ATOM     21  C   UNL     1       3.190  -3.005   4.673  0.00  0.00    +0.048 C 
ATOM     22  C   UNL     1       3.652  -1.804   5.500  0.00  0.00    +0.015 C 
ATOM     23  C   UNL     1       3.063  -4.231   5.580  0.00  0.00    +0.015 C 
ENDBRANCH   3  21
TORSDOF 2
