REMARK  Name = ZINC40427932
REMARK  11 active torsions:
REMARK  status: ('A' for Active; 'I' for Inactive)
REMARK    1  A    between atoms: C_1  and  C_2
REMARK    2  A    between atoms: C_5  and  N_9
REMARK    3  A    between atoms: C_6  and  C_8
REMARK    4  A    between atoms: N_12  and  C_13
REMARK    5  A    between atoms: C_19  and  N_21
REMARK    6  A    between atoms: C_22  and  C_24
REMARK    7  A    between atoms: C_27  and  C_29
REMARK    8  A    between atoms: C_29  and  O_30
REMARK    9  A    between atoms: O_30  and  C_31
REMARK   10  A    between atoms: C_33  and  C_38
REMARK   11  A    between atoms: C_35  and  C_37
REMARK                            x       y       z     vdW  Elec       q    Type
REMARK                         _______ _______ _______ _____ _____    ______ ____
ROOT
ATOM      1  C   UNL     1      -0.231  -6.911  -2.454  0.00  0.00    +0.095 C 
ATOM      2  C   UNL     1      -1.698  -6.966  -2.888  0.00  0.00    +0.024 C 
ATOM      3  C   UNL     1      -2.520  -7.685  -1.817  0.00  0.00    +0.002 C 
ATOM      4  C   UNL     1      -1.988  -9.108  -1.635  0.00  0.00    +0.002 C 
ATOM      5  C   UNL     1      -0.522  -9.053  -1.201  0.00  0.00    +0.024 C 
ATOM      6  C   UNL     1       0.300  -8.334  -2.273  0.00  0.00    +0.093 C 
ENDROOT
BRANCH   1  10
ATOM      7  N   UNL     1       0.058  -4.170  -0.021  0.00  0.00    -0.269 N 
ATOM      8  C   UNL     1      -0.041  -4.839  -1.187  0.00  0.00    +0.304 C 
ATOM      9  O   UNL     1      -0.054  -4.229  -2.239  0.00  0.00    -0.252 OA
ATOM     10  N   UNL     1      -0.124  -6.184  -1.187  0.00  0.00    -0.295 N 
ATOM     11  H   UNL     1       0.135  -4.659   0.814  0.00  0.00    +0.156 HD
ATOM     12  H   UNL     1      -0.114  -6.671  -0.348  0.00  0.00    +0.151 HD
BRANCH   7  17
ATOM     13  C   UNL     1       0.025   1.503   0.006  0.00  0.00    +0.044 C 
ATOM     14  C   UNL     1       0.034  -0.004  -0.001  0.00  0.00    -0.050 A 
ATOM     15  C   UNL     1       0.631  -0.685  -1.046  0.00  0.00    +0.005 A 
ATOM     16  C   UNL     1       0.641  -2.066  -1.055  0.00  0.00    +0.024 A 
ATOM     17  C   UNL     1       0.050  -2.771  -0.014  0.00  0.00    +0.038 A 
ATOM     18  C   UNL     1      -0.549  -2.083   1.033  0.00  0.00    -0.029 A 
ATOM     19  C   UNL     1      -0.551  -0.702   1.039  0.00  0.00    +0.008 A 
ATOM     20  C   UNL     1      -1.192  -2.844   2.164  0.00  0.00    +0.045 C 
ENDBRANCH   7  17
ENDBRANCH   1  10
BRANCH   6  21
ATOM     21  N   UNL     1       1.704  -8.281  -1.857  0.00  0.00    -0.305 N 
ATOM     22  C   UNL     1       2.522  -9.322  -2.112  0.00  0.00    +0.263 C 
ATOM     23  O   UNL     1       2.094 -10.305  -2.686  0.00  0.00    -0.269 OA
ATOM     24  H   UNL     1       2.045  -7.497  -1.399  0.00  0.00    +0.149 HD
BRANCH  22  25
ATOM     25  C   UNL     1       3.933  -9.269  -1.694  0.00  0.00    +0.133 A 
ATOM     26  C   UNL     1       4.800 -10.301  -1.936  0.00  0.00    +0.080 A 
ATOM     27  S   UNL     1       6.234  -9.732  -1.271  0.00  0.00    -0.076 S 
ATOM     28  C   UNL     1       5.703  -8.239  -0.718  0.00  0.00    +0.116 A 
ATOM     29  N   UNL     1       4.444  -8.209  -1.061  0.00  0.00    -0.236 NA
BRANCH  28  30
ATOM     30  C   UNL     1       6.497  -7.178   0.001  0.00  0.00    +0.291 C 
BRANCH  30  31
ATOM     31  O   UNL     1       6.419  -7.398   1.410  0.00  0.00    -0.485 OA
BRANCH  31  32
ATOM     32  C   UNL     1       7.085  -6.523   2.209  0.00  0.00    +0.122 A 
ATOM     33  C   UNL     1       7.794  -5.471   1.648  0.00  0.00    +0.049 A 
ATOM     34  C   UNL     1       8.470  -4.582   2.462  0.00  0.00    -0.047 A 
ATOM     35  C   UNL     1       8.440  -4.741   3.835  0.00  0.00    +0.007 A 
ATOM     36  C   UNL     1       7.734  -5.789   4.397  0.00  0.00    -0.047 A 
ATOM     37  C   UNL     1       7.052  -6.677   3.587  0.00  0.00    +0.049 A 
ATOM     38  C   UNL     1       7.705  -5.960   5.894  0.00  0.00    +0.044 C 
ATOM     39  C   UNL     1       9.240  -3.440   1.853  0.00  0.00    +0.044 C 
ENDBRANCH  31  32
ENDBRANCH  30  31
ENDBRANCH  28  30
ENDBRANCH  22  25
ENDBRANCH   6  21
TORSDOF 7
