REMARK  Name = ZINC50395168
REMARK  5 active torsions:
REMARK  status: ('A' for Active; 'I' for Inactive)
REMARK    1  A    between atoms: C_1  and  O_2
REMARK    2  A    between atoms: O_2  and  C_3
REMARK    3  A    between atoms: C_4  and  C_11
REMARK    4  A    between atoms: C_11  and  N_12
REMARK    5  A    between atoms: N_12  and  C_13
REMARK                            x       y       z     vdW  Elec       q    Type
REMARK                         _______ _______ _______ _____ _____    ______ ____
ROOT
ATOM      1  C   UNL     1      -0.399  -3.130  -0.002  0.00  0.00    -0.021 C 
ENDROOT
BRANCH   1   3
ATOM      2  C   UNL     1      -1.677  -0.928   0.045  0.00  0.00    +0.235 A 
ATOM      3  C   UNL     1      -1.639  -2.274   0.004  0.00  0.00    +0.070 A 
ATOM      4  N   UNL     1      -2.958  -2.732  -0.034  0.00  0.00    -0.296 N 
ATOM      5  C   UNL     1      -3.627  -3.936  -0.084  0.00  0.00    +0.100 A 
ATOM      6  C   UNL     1      -4.958  -3.976  -0.108  0.00  0.00    +0.067 A 
ATOM      7  S   UNL     1      -5.380  -2.241  -0.061  0.00  0.00    -0.058 S 
ATOM      8  C   UNL     1      -3.724  -1.597  -0.012  0.00  0.00    +0.181 A 
ATOM      9  N   UNL     1      -2.963  -0.541   0.040  0.00  0.00    -0.187 NA
BRANCH   2  11
ATOM     10  C   UNL     1      -0.855   1.303   0.137  0.00  0.00    +0.279 C 
ATOM     11  O   UNL     1      -0.596  -0.101   0.091  0.00  0.00    -0.478 OA
ENDBRANCH   2  11
ENDBRANCH   1   3
BRANCH   1  12
ATOM     12  N   UNL     1       0.029  -3.364  -1.387  0.00  0.00    +0.390 N 
ATOM     13  H   UNL     1      -0.737  -3.757  -1.914  0.00  0.00    -0.084 HD
ATOM     14  H   UNL     1       0.310  -2.489  -1.805  0.00  0.00    -0.084 HD
BRANCH  12  15
ATOM     15  C   UNL     1       1.161  -4.299  -1.399  0.00  0.00    +0.017 C 
ATOM     16  C   UNL     1       2.366  -3.647  -0.715  0.00  0.00    -0.005 C 
ATOM     17  C   UNL     1       3.602  -4.516  -0.979  0.00  0.00    +0.018 C 
ATOM     18  C   UNL     1       3.940  -4.448  -2.468  0.00  0.00    +0.104 C 
ATOM     19  N   UNL     1       2.758  -4.729  -3.273  0.00  0.00    -0.317 N 
ATOM     20  C   UNL     1       1.508  -4.645  -2.819  0.00  0.00    +0.199 C 
ATOM     21  O   UNL     1       0.601  -4.863  -3.594  0.00  0.00    -0.278 OA
ATOM     22  H   UNL     1       2.889  -4.992  -4.198  0.00  0.00    +0.149 HD
ENDBRANCH  12  15
ENDBRANCH   1  12
TORSDOF 4
