REMARK  Name = ZINC67640080
REMARK  9 active torsions:
REMARK  status: ('A' for Active; 'I' for Inactive)
REMARK    1  A    between atoms: C_1  and  C_2
REMARK    2  A    between atoms: C_2  and  C_4
REMARK    3  A    between atoms: C_2  and  N_11
REMARK    4  A    between atoms: C_8  and  O_10
REMARK    5  A    between atoms: N_11  and  C_12
REMARK    6  A    between atoms: N_15  and  C_16
REMARK    7  A    between atoms: C_16  and  C_17
REMARK    8  A    between atoms: C_21  and  C_23
REMARK    9  A    between atoms: C_23  and  C_30
REMARK                            x       y       z     vdW  Elec       q    Type
REMARK                         _______ _______ _______ _____ _____    ______ ____
ROOT
ATOM      1  C   UNL     1       4.172  -1.859   1.736  0.00  0.00    +0.141 C 
ENDROOT
BRANCH   1   6
ATOM      2  N   UNL     1       0.837  -0.414   1.182  0.00  0.00    -0.282 N 
ATOM      3  C   UNL     1       0.424  -0.100   2.552  0.00  0.00    +0.134 C 
ATOM      4  C   UNL     1       2.040  -0.976   0.953  0.00  0.00    +0.303 C 
ATOM      5  O   UNL     1       2.383  -1.237  -0.184  0.00  0.00    -0.253 OA
ATOM      6  N   UNL     1       2.864  -1.248   1.985  0.00  0.00    -0.295 N 
ATOM      7  H   UNL     1       2.591  -1.040   2.892  0.00  0.00    +0.151 HD
BRANCH   2   9
ATOM      8  C   UNL     1      -0.473   1.353   0.114  0.00  0.00    +0.033 C 
ATOM      9  C   UNL     1      -0.059  -0.119   0.061  0.00  0.00    +0.104 C 
BRANCH   9  10
ATOM     10  C   UNL     1      -1.285  -0.990   0.154  0.00  0.00    -0.024 A 
ATOM     11  C   UNL     1      -1.639  -1.800  -0.908  0.00  0.00    +0.006 A 
ATOM     12  C   UNL     1      -2.764  -2.600  -0.826  0.00  0.00    +0.004 A 
ATOM     13  C   UNL     1      -3.537  -2.591   0.320  0.00  0.00    +0.045 A 
ATOM     14  C   UNL     1      -3.184  -1.779   1.387  0.00  0.00    +0.117 A 
ATOM     15  C   UNL     1      -2.051  -0.981   1.304  0.00  0.00    +0.050 A 
BRANCH  14  16
ATOM     16  O   UNL     1      -3.943  -1.768   2.514  0.00  0.00    -0.507 OA
ATOM     17  H   UNL     1      -3.673  -2.419   3.176  0.00  0.00    +0.292 HD
ENDBRANCH  14  16
ENDBRANCH   9  10
ENDBRANCH   2   9
ENDBRANCH   1   6
BRANCH   1  18
ATOM     18  C   UNL     1       4.891  -2.057   3.045  0.00  0.00    -0.030 A 
ATOM     19  C   UNL     1       5.705  -1.058   3.546  0.00  0.00    +0.005 A 
ATOM     20  C   UNL     1       6.364  -1.240   4.747  0.00  0.00    +0.001 A 
ATOM     21  C   UNL     1       6.210  -2.421   5.448  0.00  0.00    +0.006 A 
ATOM     22  C   UNL     1       5.396  -3.420   4.948  0.00  0.00    -0.015 A 
ATOM     23  C   UNL     1       4.733  -3.236   3.749  0.00  0.00    +0.011 A 
BRANCH  22  24
ATOM     24  C   UNL     1       5.228  -4.708   5.712  0.00  0.00    +0.135 C 
ATOM     25  C   UNL     1       5.820  -5.869   4.938  0.00  0.00    +0.248 C 
ATOM     26  O   UNL     1       5.481  -6.269   3.844  0.00  0.00    -0.273 OA
ATOM     27  N   UNL     1       6.802  -6.363   5.717  0.00  0.00    -0.238 N 
ATOM     28  C   UNL     1       6.911  -5.684   6.864  0.00  0.00    +0.307 C 
ATOM     29  O   UNL     1       7.726  -5.943   7.728  0.00  0.00    -0.252 OA
ATOM     30  N   UNL     1       6.019  -4.681   6.954  0.00  0.00    -0.282 N 
ATOM     31  C   UNL     1       3.750  -4.961   6.020  0.00  0.00    +0.047 C 
ATOM     32  H   UNL     1       7.361  -7.119   5.476  0.00  0.00    +0.159 HD
ATOM     33  H   UNL     1       5.917  -4.061   7.693  0.00  0.00    +0.152 HD
ENDBRANCH  22  24
ENDBRANCH   1  18
TORSDOF 6
