REMARK  Name = ZINC08734778
REMARK  9 active torsions:
REMARK  status: ('A' for Active; 'I' for Inactive)
REMARK    1  A    between atoms: C_1  and  C_2
REMARK    2  A    between atoms: C_2  and  C_4
REMARK    3  A    between atoms: C_2  and  N_57
REMARK    4  A    between atoms: C_13  and  C_15
REMARK    5  A    between atoms: C_13  and  C_16
REMARK    6  A    between atoms: C_13  and  N_57
REMARK    7  A    between atoms: N_18  and  C_19
REMARK    8  A    between atoms: C_22  and  S_25
REMARK    9  A    between atoms: S_25  and  N_28
REMARK                            x       y       z     vdW  Elec       q    Type
REMARK                         _______ _______ _______ _____ _____    ______ ____
ROOT
ATOM      1  C   UNL     1      -2.854   4.078   5.569  0.00  0.00    +0.203 C 
ATOM      2  O   UNL     1      -1.974   4.749   5.074  0.00  0.00    -0.277 OA
ATOM      3  N   UNL     1      -3.183   2.889   5.025  0.00  0.00    -0.287 N 
ATOM      4  H   UNL     1      -3.935   2.387   5.375  0.00  0.00    +0.155 HD
ENDROOT
BRANCH   3   5
ATOM      5  C   UNL     1      -2.438   2.379   3.956  0.00  0.00    +0.033 A 
ATOM      6  C   UNL     1      -1.076   2.639   3.870  0.00  0.00    +0.025 A 
ATOM      7  C   UNL     1      -0.344   2.135   2.813  0.00  0.00    +0.030 A 
ATOM      8  C   UNL     1      -0.965   1.372   1.841  0.00  0.00    +0.106 A 
ATOM      9  C   UNL     1      -2.321   1.115   1.921  0.00  0.00    +0.030 A 
ATOM     10  C   UNL     1      -3.058   1.612   2.978  0.00  0.00    +0.025 A 
BRANCH   8  11
ATOM     11  S   UNL     1      -0.027   0.731   0.495  0.00  0.00    +0.061 S 
ATOM     12  O   UNL     1       1.111   1.571   0.355  0.00  0.00    -0.153 OA
ATOM     13  O   UNL     1      -0.943   0.507  -0.568  0.00  0.00    -0.153 OA
BRANCH  11  14
ATOM     14  N   UNL     1       0.537  -0.757   0.955  0.00  0.00    -0.177 NA
ATOM     15  C   UNL     1       1.817  -1.016   1.630  0.00  0.00    +0.109 C 
ATOM     16  C   UNL     1       1.925  -2.542   1.837  0.00  0.00    +0.018 C 
ATOM     17  C   UNL     1       0.967  -3.106   0.755  0.00  0.00    +0.018 C 
ATOM     18  C   UNL     1      -0.158  -2.040   0.749  0.00  0.00    +0.109 C 
ENDBRANCH  11  14
ENDBRANCH   8  11
ENDBRANCH   3   5
BRANCH   1  19
ATOM     19  C   UNL     1      -3.581   4.573   6.793  0.00  0.00    +0.014 C 
ATOM     20  C   UNL     1      -3.390   3.577   7.938  0.00  0.00    -0.004 C 
BRANCH  19  21
ATOM     21  N   UNL     1      -3.034   5.883   7.193  0.00  0.00    +0.393 N 
ATOM     22  H   UNL     1      -3.178   6.016   8.201  0.00  0.00    -0.084 HD
ATOM     23  H   UNL     1      -2.030   5.909   6.984  0.00  0.00    -0.084 HD
BRANCH  21  25
ATOM     24  C   UNL     1      -4.995   7.359   7.196  0.00  0.00    -0.006 C 
ATOM     25  C   UNL     1      -3.713   6.968   6.459  0.00  0.00    -0.006 C 
BRANCH  25  26
ATOM     26  C   UNL     1      -2.795   8.160   6.379  0.00  0.00    +0.092 A 
ATOM     27  C   UNL     1      -2.649   8.944   5.302  0.00  0.00    +0.051 A 
ATOM     28  C   UNL     1      -1.666   9.970   5.674  0.00  0.00    +0.020 A 
ATOM     29  C   UNL     1      -1.096  11.057   5.014  0.00  0.00    +0.011 A 
ATOM     30  C   UNL     1      -0.178  11.837   5.661  0.00  0.00    +0.001 A 
ATOM     31  C   UNL     1       0.188  11.553   6.969  0.00  0.00    +0.004 A 
ATOM     32  C   UNL     1      -0.365  10.481   7.637  0.00  0.00    +0.047 A 
ATOM     33  C   UNL     1      -1.300   9.676   6.998  0.00  0.00    +0.135 A 
ATOM     34  O   UNL     1      -2.000   8.588   7.375  0.00  0.00    -0.461 OA
ENDBRANCH  25  26
ENDBRANCH  21  25
ENDBRANCH  19  21
ENDBRANCH   1  19
TORSDOF 7
