REMARK  Name = ZINC08299765
REMARK  7 active torsions:
REMARK  status: ('A' for Active; 'I' for Inactive)
REMARK    1  A    between atoms: C_1  and  O_2
REMARK    2  A    between atoms: O_2  and  C_3
REMARK    3  A    between atoms: C_3  and  C_4
REMARK    4  A    between atoms: N_6  and  C_9
REMARK    5  A    between atoms: C_9  and  C_10
REMARK    6  A    between atoms: C_18  and  C_20
REMARK    7  A    between atoms: C_25  and  C_28
REMARK                            x       y       z     vdW  Elec       q    Type
REMARK                         _______ _______ _______ _____ _____    ______ ____
ROOT
ATOM      1  C   UNL     1       0.615   3.605  -1.273  0.00  0.00    -0.046 C 
ATOM      2  C   UNL     1       1.378   3.152  -0.026  0.00  0.00    -0.010 C 
ATOM      3  C   UNL     1       1.425   1.619  -0.003  0.00  0.00    -0.004 C 
ATOM      4  C   UNL     1       2.118   1.132  -1.282  0.00  0.00    -0.015 C 
ATOM      5  C   UNL     1       1.334   1.641  -2.494  0.00  0.00    -0.078 C 
ATOM      6  C   UNL     1      -0.739   1.596  -1.240  0.00  0.00    -0.065 C 
ATOM      7  C   UNL     1      -0.013   1.086   0.008  0.00  0.00    +0.062 C 
ATOM      8  N   UNL     1       0.165   2.434  -2.057  0.00  0.00    +0.383 N 
ATOM      9  H   UNL     1      -0.344   2.764  -2.886  0.00  0.00    -0.081 HD
ENDROOT
BRANCH   7  10
ATOM     10  C   UNL     1      -0.723   1.574   1.244  0.00  0.00    +0.217 C 
ATOM     11  O   UNL     1      -0.139   2.276   2.042  0.00  0.00    -0.275 OA
ATOM     12  N   UNL     1      -2.008   1.232   1.462  0.00  0.00    -0.301 N 
ATOM     13  C   UNL     1      -2.732   0.388   0.501  0.00  0.00    +0.108 C 
ATOM     14  C   UNL     1      -4.027   1.090   0.099  0.00  0.00    +0.032 C 
ATOM     15  C   UNL     1      -4.827   1.440   1.355  0.00  0.00    +0.078 C 
ATOM     16  C   UNL     1      -4.012   2.392   2.232  0.00  0.00    +0.032 C 
ATOM     17  C   UNL     1      -2.715   1.700   2.662  0.00  0.00    +0.108 C 
BRANCH  15  18
ATOM     18  C   UNL     1      -6.120   2.105   0.959  0.00  0.00    +0.214 C 
ATOM     19  O   UNL     1      -6.365   3.230   1.339  0.00  0.00    -0.276 OA
ATOM     20  N   UNL     1      -7.004   1.449   0.180  0.00  0.00    -0.329 N 
ATOM     21  H   UNL     1      -6.808   0.550  -0.125  0.00  0.00    +0.145 HD
ATOM     22  H   UNL     1      -7.836   1.878  -0.075  0.00  0.00    +0.145 HD
ENDBRANCH  15  18
ENDBRANCH   7  10
BRANCH   1  23
ATOM     23  C   UNL     1      -0.609   4.422  -0.854  0.00  0.00    +0.130 C 
BRANCH  23  26
ATOM     24  C   UNL     1      -2.762   5.431  -3.544  0.00  0.00    +0.108 A 
ATOM     25  C   UNL     1      -2.575   4.777  -2.374  0.00  0.00    +0.135 A 
ATOM     26  N   UNL     1      -1.274   4.953  -2.047  0.00  0.00    -0.253 N 
ATOM     27  N   UNL     1      -0.722   5.671  -2.962  0.00  0.00    -0.065 NA
ATOM     28  N   UNL     1      -1.581   5.968  -3.872  0.00  0.00    -0.132 NA
BRANCH  24  29
ATOM     29  C   UNL     1      -4.047   5.534  -4.325  0.00  0.00    +0.218 C 
BRANCH  29  31
ATOM     30  C   UNL     1      -6.346   4.857  -4.299  0.00  0.00    +0.194 C 
ATOM     31  O   UNL     1      -5.079   4.822  -3.639  0.00  0.00    -0.377 OA
ENDBRANCH  29  31
ENDBRANCH  24  29
ENDBRANCH  23  26
ENDBRANCH   1  23
TORSDOF 6
