REMARK  Name = ZINC50672662
REMARK  5 active torsions:
REMARK  status: ('A' for Active; 'I' for Inactive)
REMARK    1  A    between atoms: C_1  and  C_2
REMARK    2  A    between atoms: C_2  and  N_8
REMARK    3  A    between atoms: N_8  and  S_9
REMARK    4  A    between atoms: S_9  and  C_12
REMARK    5  A    between atoms: C_17  and  N_18
REMARK                            x       y       z     vdW  Elec       q    Type
REMARK                         _______ _______ _______ _____ _____    ______ ____
ROOT
ATOM      1  S   UNL     1      -2.587  -0.238  -1.122  0.00  0.00    +0.062 S 
ATOM      2  O   UNL     1      -1.900  -0.686  -2.282  0.00  0.00    -0.153 OA
ATOM      3  O   UNL     1      -3.889  -0.695  -0.783  0.00  0.00    -0.153 OA
ENDROOT
BRANCH   1   4
ATOM      4  C   UNL     1      -2.685   1.518  -1.242  0.00  0.00    +0.146 A 
ATOM      5  C   UNL     1      -2.199   2.172  -2.360  0.00  0.00    +0.048 A 
ATOM      6  C   UNL     1      -2.297   3.557  -2.412  0.00  0.00    +0.038 A 
ATOM      7  C   UNL     1      -2.873   4.234  -1.354  0.00  0.00    +0.128 A 
ATOM      8  N   UNL     1      -3.327   3.583  -0.300  0.00  0.00    -0.238 NA
ATOM      9  C   UNL     1      -3.258   2.263  -0.217  0.00  0.00    +0.143 A 
ATOM     10 BR   UNL     1      -1.649   4.505  -3.914  0.00  0.00    -0.049 Br
BRANCH   9  11
ATOM     11  N   UNL     1      -3.756   1.617   0.910  0.00  0.00    -0.342 N 
ATOM     12  H   UNL     1      -3.605   0.667   1.030  0.00  0.00    +0.144 HD
ATOM     13  H   UNL     1      -4.254   2.117   1.575  0.00  0.00    +0.144 HD
ENDBRANCH   9  11
ENDBRANCH   1   4
BRANCH   1  14
ATOM     14  N   UNL     1      -1.612  -0.586   0.170  0.00  0.00    -0.184 NA
ATOM     15  H   UNL     1      -1.985  -1.013   0.958  0.00  0.00    +0.149 HD
BRANCH  14  17
ATOM     16  C   UNL     1      -0.022   1.228  -0.229  0.00  0.00    +0.029 C 
ATOM     17  C   UNL     1      -0.187  -0.251   0.124  0.00  0.00    +0.037 C 
ATOM     18  C   UNL     1       0.504  -1.109  -0.938  0.00  0.00    +0.023 C 
ATOM     19  C   UNL     1       0.340  -2.588  -0.586  0.00  0.00    +0.002 C 
ATOM     20  C   UNL     1       0.972  -2.860   0.781  0.00  0.00    +0.000 C 
ATOM     21  C   UNL     1       0.281  -2.003   1.843  0.00  0.00    +0.002 C 
ATOM     22  C   UNL     1       0.446  -0.523   1.490  0.00  0.00    +0.023 C 
ENDBRANCH  14  17
ENDBRANCH   1  14
TORSDOF 4
