REMARK  Name = ZINC00038808
REMARK  4 active torsions:
REMARK  status: ('A' for Active; 'I' for Inactive)
REMARK    1  A    between atoms: C_3  and  C_7
REMARK    2  A    between atoms: C_12  and  N_21
REMARK    3  A    between atoms: C_16  and  N_20
REMARK    4  A    between atoms: C_17  and  C_18
REMARK                            x       y       z     vdW  Elec       q    Type
REMARK                         _______ _______ _______ _____ _____    ______ ____
ROOT
ATOM      1  C   UNL     1       3.696   2.049  -0.023  0.00  0.00    +0.099 C 
ATOM      2  C   UNL     1       4.479   1.655   1.202  0.00  0.00    +0.008 A 
ATOM      3  C   UNL     1       4.149   2.208   2.427  0.00  0.00    +0.010 A 
ATOM      4  C   UNL     1       4.855   1.859   3.561  0.00  0.00    +0.023 A 
ATOM      5  C   UNL     1       5.902   0.949   3.474  0.00  0.00    +0.028 A 
ATOM      6  C   UNL     1       6.234   0.393   2.248  0.00  0.00    +0.069 A 
ATOM      7  C   UNL     1       5.522   0.746   1.109  0.00  0.00    +0.136 A 
ATOM      8  O   UNL     1       5.860   0.194  -0.082  0.00  0.00    -0.441 OA
ATOM      9  C   UNL     1       5.471   0.781  -1.227  0.00  0.00    +0.199 C 
ATOM     10  C   UNL     1       4.453   1.668  -1.264  0.00  0.00    +0.098 C 
ENDROOT
BRANCH   1  13
ATOM     11  C   UNL     1      -0.017   1.378   0.010  0.00  0.00    +0.020 A 
ATOM     12  C   UNL     1       1.185   2.070   0.002  0.00  0.00    +0.007 A 
ATOM     13  C   UNL     1       2.365   1.343  -0.013  0.00  0.00    -0.017 A 
ATOM     14  C   UNL     1       2.305  -0.038  -0.020  0.00  0.00    +0.115 A 
ATOM     15  N   UNL     1       1.144  -0.663  -0.013  0.00  0.00    -0.263 NA
ATOM     16  C   UNL     1       0.002  -0.004   0.002  0.00  0.00    +0.111 A 
ENDBRANCH   1  13
BRANCH   9  17
ATOM     17  N   UNL     1       6.129   0.471  -2.391  0.00  0.00    -0.328 N 
ATOM     18  H   UNL     1       6.862  -0.165  -2.379  0.00  0.00    +0.145 HD
ATOM     19  H   UNL     1       5.860   0.886  -3.225  0.00  0.00    +0.145 HD
ENDBRANCH   9  17
BRANCH   5  20
ATOM     20  N   UNL     1       6.618   0.595   4.620  0.00  0.00    -0.358 N 
ATOM     21  H   UNL     1       6.385   0.985   5.477  0.00  0.00    +0.142 HD
ATOM     22  H   UNL     1       7.348  -0.040   4.559  0.00  0.00    +0.142 HD
ENDBRANCH   5  20
BRANCH  10  23
ATOM     23  C   UNL     1       4.089   2.258  -2.517  0.00  0.00    +0.101 C 
ATOM     24  N   UNL     1       3.800   2.726  -3.511  0.00  0.00    -0.191 NA
ENDBRANCH  10  23
TORSDOF 4
