REMARK  Name = ZINC36051326
REMARK  15 active torsions:
REMARK  status: ('A' for Active; 'I' for Inactive)
REMARK    1  A    between atoms: C_1  and  C_2
REMARK    2  A    between atoms: C_5  and  C_8
REMARK    3  A    between atoms: N_10  and  C_28
REMARK    4  A    between atoms: N_13  and  C_14
REMARK    5  A    between atoms: C_14  and  C_16
REMARK    6  A    between atoms: C_16  and  N_17
REMARK    7  A    between atoms: N_17  and  C_18
REMARK    8  A    between atoms: C_18  and  C_19
REMARK    9  A    between atoms: C_19  and  N_20
REMARK   10  A    between atoms: N_20  and  C_21
REMARK   11  A    between atoms: N_20  and  C_22
REMARK   12  A    between atoms: C_23  and  C_25
REMARK   13  A    between atoms: C_25  and  C_26
REMARK   14  A    between atoms: C_25  and  C_27
REMARK   15  A    between atoms: C_31  and  C_34
REMARK                            x       y       z     vdW  Elec       q    Type
REMARK                         _______ _______ _______ _____ _____    ______ ____
ROOT
ATOM      1  C   UNL     1       0.279  -7.928   1.166  0.00  0.00    +0.066 A 
ATOM      2  C   UNL     1      -0.049  -9.097   1.744  0.00  0.00    +0.120 A 
ATOM      3  N   UNL     1      -0.303 -10.013   0.744  0.00  0.00    -0.287 N 
ATOM      4  C   UNL     1      -0.127  -9.393  -0.454  0.00  0.00    +0.205 A 
ATOM      5  N   UNL     1       0.226  -8.104  -0.212  0.00  0.00    -0.326 N 
ATOM      6  N   UNL     1      -0.280  -9.950  -1.655  0.00  0.00    -0.145 NA
ATOM      7  H   UNL     1       0.411  -7.427  -0.882  0.00  0.00    +0.169 HD
ENDROOT
BRANCH   1  12
ATOM      8  C   UNL     1       1.632  -3.053   3.909  0.00  0.00    +0.044 C 
ATOM      9  C   UNL     1       1.278  -4.329   3.191  0.00  0.00    -0.050 A 
ATOM     10  C   UNL     1       1.267  -4.361   1.808  0.00  0.00    +0.004 A 
ATOM     11  C   UNL     1       0.943  -5.527   1.144  0.00  0.00    +0.010 A 
ATOM     12  C   UNL     1       0.627  -6.675   1.871  0.00  0.00    -0.000 A 
ATOM     13  C   UNL     1       0.640  -6.636   3.266  0.00  0.00    +0.010 A 
ATOM     14  C   UNL     1       0.971  -5.466   3.917  0.00  0.00    +0.004 A 
ENDBRANCH   1  12
BRANCH   3  15
ATOM     15  C   UNL     1      -0.677 -11.350   0.929  0.00  0.00    +0.049 A 
ATOM     16  C   UNL     1      -0.897 -12.170  -0.170  0.00  0.00    +0.026 A 
ATOM     17  C   UNL     1      -1.265 -13.488   0.017  0.00  0.00    +0.005 A 
ATOM     18  C   UNL     1      -1.414 -13.992   1.296  0.00  0.00    -0.050 A 
ATOM     19  C   UNL     1      -1.195 -13.178   2.393  0.00  0.00    +0.005 A 
ATOM     20  C   UNL     1      -0.822 -11.860   2.213  0.00  0.00    +0.026 A 
ATOM     21  C   UNL     1      -1.816 -15.430   1.496  0.00  0.00    +0.044 C 
ENDBRANCH   3  15
BRANCH   6  22
ATOM     22  C   UNL     1      -0.077  -9.230  -2.752  0.00  0.00    +0.256 C 
ATOM     23  O   UNL     1       0.249  -8.062  -2.661  0.00  0.00    -0.272 OA
BRANCH  22  24
ATOM     24  C   UNL     1      -0.250  -9.861  -4.110  0.00  0.00    +0.205 C 
BRANCH  24  25
ATOM     25  N   UNL     1       0.030  -8.867  -5.149  0.00  0.00    -0.294 N 
ATOM     26  C   UNL     1      -0.973  -8.127  -5.662  0.00  0.00    +0.218 C 
ATOM     27  O   UNL     1      -0.758  -7.371  -6.585  0.00  0.00    -0.275 OA
BRANCH  26  28
ATOM     28  C   UNL     1      -2.361  -8.239  -5.087  0.00  0.00    +0.069 C 
ATOM     29  C   UNL     1      -2.573  -7.139  -4.045  0.00  0.00    +0.017 C 
ATOM     30  C   UNL     1      -3.391  -8.085  -6.208  0.00  0.00    +0.017 C 
ENDBRANCH  26  28
BRANCH  25  31
ATOM     31  C   UNL     1       1.401  -8.678  -5.631  0.00  0.00    +0.090 C 
BRANCH  31  32
ATOM     32  C   UNL     1       1.658  -9.612  -6.815  0.00  0.00    -0.060 C 
BRANCH  32  33
ATOM     33  N   UNL     1       3.032  -9.422  -7.299  0.00  0.00    +0.377 N 
ATOM     34  C   UNL     1       3.980  -9.843  -6.258  0.00  0.00    -0.097 C 
ATOM     35  C   UNL     1       3.242 -10.231  -8.508  0.00  0.00    -0.097 C 
ATOM     36  H   UNL     1       3.181  -8.448  -7.516  0.00  0.00    -0.083 HD
ENDBRANCH  32  33
ENDBRANCH  31  32
ENDBRANCH  25  31
ENDBRANCH  24  25
ENDBRANCH  22  24
ENDBRANCH   6  22
TORSDOF 9
