REMARK  Name = ZINC03642487
REMARK  5 active torsions:
REMARK  status: ('A' for Active; 'I' for Inactive)
REMARK    1  A    between atoms: C_4  and  C_7
REMARK    2  A    between atoms: C_7  and  O_8
REMARK    3  A    between atoms: O_8  and  C_9
REMARK    4  A    between atoms: C_12  and  C_15
REMARK    5  A    between atoms: C_18  and  C_27
REMARK                            x       y       z     vdW  Elec       q    Type
REMARK                         _______ _______ _______ _____ _____    ______ ____
ROOT
ATOM      1  C   UNL     1       9.022  -3.675   1.977  0.00  0.00    +0.143 C 
ATOM      2  C   UNL     1       9.998  -2.795   2.767  0.00  0.00    +0.058 C 
ATOM      3  C   UNL     1      11.216  -3.624   3.190  0.00  0.00    +0.106 C 
ATOM      4  N   UNL     1      10.762  -4.706   4.085  0.00  0.00    -0.307 N 
ATOM      5  C   UNL     1       9.608  -5.377   3.700  0.00  0.00    +0.216 A 
ATOM      6  N   UNL     1       8.792  -4.914   2.721  0.00  0.00    -0.224 N 
ATOM      7  N   UNL     1       7.750  -5.833   2.599  0.00  0.00    -0.132 NA
ATOM      8  C   UNL     1       7.975  -6.781   3.482  0.00  0.00    +0.233 A 
ATOM      9  N   UNL     1       9.106  -6.495   4.153  0.00  0.00    -0.180 NA
ATOM     10  N   UNL     1       7.167  -7.899   3.694  0.00  0.00    -0.326 N 
ATOM     11  H   UNL     1      11.242  -4.936   4.896  0.00  0.00    +0.149 HD
ATOM     12  H   UNL     1       6.363  -8.024   3.166  0.00  0.00    +0.145 HD
ATOM     13  H   UNL     1       7.410  -8.551   4.370  0.00  0.00    +0.145 HD
ENDROOT
BRANCH   3  14
ATOM     14  C   UNL     1      11.875  -4.215   1.970  0.00  0.00    -0.027 A 
ATOM     15  C   UNL     1      11.347  -5.348   1.380  0.00  0.00    +0.006 A 
ATOM     16  C   UNL     1      11.950  -5.890   0.261  0.00  0.00    +0.015 A 
ATOM     17  C   UNL     1      13.083  -5.298  -0.269  0.00  0.00    +0.018 A 
ATOM     18  C   UNL     1      13.611  -4.164   0.321  0.00  0.00    +0.015 A 
ATOM     19  C   UNL     1      13.003  -3.620   1.437  0.00  0.00    +0.006 A 
ATOM     20 BR   UNL     1      13.909  -6.039  -1.800  0.00  0.00    -0.050 Br
ENDBRANCH   3  14
BRANCH   1  24
ATOM     21  C   UNL     1       5.319  -1.605   1.466  0.00  0.00    +0.121 A 
ATOM     22  C   UNL     1       6.048  -2.007   0.357  0.00  0.00    +0.046 A 
ATOM     23  C   UNL     1       7.245  -2.676   0.525  0.00  0.00    +0.009 A 
ATOM     24  C   UNL     1       7.716  -2.945   1.797  0.00  0.00    -0.023 A 
ATOM     25  C   UNL     1       6.990  -2.545   2.904  0.00  0.00    +0.009 A 
ATOM     26  C   UNL     1       5.796  -1.871   2.742  0.00  0.00    +0.046 A 
BRANCH  21  27
ATOM     27  O   UNL     1       4.141  -0.946   1.304  0.00  0.00    -0.487 OA
BRANCH  27  28
ATOM     28  C   UNL     1       3.711  -0.707  -0.038  0.00  0.00    +0.264 C 
BRANCH  28  32
ATOM     29  C   UNL     1      -0.017   1.378   0.010  0.00  0.00    +0.000 A 
ATOM     30  C   UNL     1       1.171   2.086   0.002  0.00  0.00    +0.000 A 
ATOM     31  C   UNL     1       2.377   1.411  -0.013  0.00  0.00    +0.007 A 
ATOM     32  C   UNL     1       2.396   0.029  -0.020  0.00  0.00    -0.010 A 
ATOM     33  C   UNL     1       1.208  -0.679  -0.012  0.00  0.00    +0.007 A 
ATOM     34  C   UNL     1       0.002  -0.004   0.002  0.00  0.00    +0.000 A 
ENDBRANCH  28  32
ENDBRANCH  27  28
ENDBRANCH  21  27
ENDBRANCH   1  24
TORSDOF 5
