REMARK  Name = ZINC38963741
REMARK  7 active torsions:
REMARK  status: ('A' for Active; 'I' for Inactive)
REMARK    1  A    between atoms: C_1  and  C_2
REMARK    2  A    between atoms: C_9  and  C_14
REMARK    3  A    between atoms: C_14  and  N_15
REMARK    4  A    between atoms: N_15  and  C_16
REMARK    5  A    between atoms: C_20  and  C_23
REMARK    6  A    between atoms: C_21  and  C_22
REMARK    7  A    between atoms: C_24  and  C_26
REMARK                            x       y       z     vdW  Elec       q    Type
REMARK                         _______ _______ _______ _____ _____    ______ ____
ROOT
ATOM      1  N   UNL     1      -1.529  -6.384   3.298  0.00  0.00    -0.264 N 
ATOM      2  C   UNL     1      -1.877  -7.295   2.368  0.00  0.00    +0.286 C 
ATOM      3  O   UNL     1      -1.447  -8.432   2.439  0.00  0.00    -0.266 OA
ENDROOT
BRANCH   1   4
ATOM      4  C   UNL     1      -0.745  -6.765   4.392  0.00  0.00    +0.040 A 
ATOM      5  C   UNL     1      -1.345  -7.052   5.611  0.00  0.00    +0.024 A 
ATOM      6  C   UNL     1      -0.568  -7.428   6.689  0.00  0.00    +0.002 A 
ATOM      7  C   UNL     1       0.805  -7.519   6.556  0.00  0.00    +0.004 A 
ATOM      8  C   UNL     1       1.405  -7.234   5.343  0.00  0.00    -0.046 A 
ATOM      9  C   UNL     1       0.634  -6.863   4.259  0.00  0.00    -0.026 A 
ATOM     10  C   UNL     1       1.288  -6.559   2.936  0.00  0.00    +0.046 C 
ATOM     11  C   UNL     1       2.902  -7.334   5.202  0.00  0.00    +0.044 C 
ENDBRANCH   1   4
BRANCH   2  12
ATOM     12  C   UNL     1      -2.772  -6.918   1.270  0.00  0.00    +0.190 A 
ATOM     13  C   UNL     1      -3.295  -7.763   0.334  0.00  0.00    +0.054 A 
ATOM     14  C   UNL     1      -4.091  -6.980  -0.517  0.00  0.00    +0.042 A 
ATOM     15  C   UNL     1      -4.021  -5.708  -0.068  0.00  0.00    +0.196 A 
ATOM     16  O   UNL     1      -3.230  -5.675   1.013  0.00  0.00    -0.458 OA
ENDBRANCH   2  12
BRANCH   1  17
ATOM     17  C   UNL     1      -1.972  -4.994   3.163  0.00  0.00    +0.131 C 
BRANCH  17  26
ATOM     18  C   UNL     1      -2.129   1.704   0.690  0.00  0.00    +0.044 C 
ATOM     19  C   UNL     1      -1.828   0.232   0.572  0.00  0.00    -0.050 A 
ATOM     20  C   UNL     1      -1.731  -0.345  -0.695  0.00  0.00    +0.005 A 
ATOM     21  C   UNL     1      -1.462  -1.664  -0.880  0.00  0.00    +0.024 A 
ATOM     22  C   UNL     1      -1.268  -2.515   0.223  0.00  0.00    +0.040 A 
ATOM     23  N   UNL     1      -1.005  -3.808   0.029  0.00  0.00    -0.284 N 
ATOM     24  C   UNL     1      -0.813  -4.662   1.020  0.00  0.00    +0.226 C 
ATOM     25  O   UNL     1      -0.576  -5.831   0.780  0.00  0.00    -0.275 OA
ATOM     26  C   UNL     1      -0.889  -4.181   2.451  0.00  0.00    +0.116 C 
ATOM     27  C   UNL     1      -1.188  -2.712   2.677  0.00  0.00    -0.003 C 
ATOM     28  C   UNL     1      -1.366  -1.933   1.572  0.00  0.00    -0.007 A 
ATOM     29  C   UNL     1      -1.653  -0.503   1.700  0.00  0.00    +0.012 A 
ATOM     30  H   UNL     1      -0.953  -4.137  -0.882  0.00  0.00    +0.155 HD
ENDBRANCH  17  26
ENDBRANCH   1  17
TORSDOF 4
