REMARK  Name = ZINC23221267
REMARK  6 active torsions:
REMARK  status: ('A' for Active; 'I' for Inactive)
REMARK    1  A    between atoms: C_1  and  C_2
REMARK    2  A    between atoms: C_15  and  C_17
REMARK    3  A    between atoms: C_17  and  O_18
REMARK    4  A    between atoms: O_18  and  C_19
REMARK    5  A    between atoms: C_19  and  C_21
REMARK    6  A    between atoms: C_26  and  O_27
REMARK                            x       y       z     vdW  Elec       q    Type
REMARK                         _______ _______ _______ _____ _____    ______ ____
ROOT
ATOM      1  C   UNL     1      -3.234   8.626  -1.334  0.00  0.00    +0.029 C 
ATOM      2  C   UNL     1      -2.870   8.138   0.070  0.00  0.00    +0.087 C 
ATOM      3  C   UNL     1      -2.931   9.314   1.048  0.00  0.00    +0.118 C 
ATOM      4  C   UNL     1      -2.211   8.964   2.324  0.00  0.00    +0.219 C 
ATOM      5  O   UNL     1      -2.848   8.699   3.321  0.00  0.00    -0.275 OA
ATOM      6  N   UNL     1      -0.860   8.945   2.366  0.00  0.00    -0.284 N 
ATOM      7  C   UNL     1      -0.108   9.163   1.206  0.00  0.00    +0.055 A 
ATOM      8  C   UNL     1       0.943  10.064   1.197  0.00  0.00    +0.025 A 
ATOM      9  C   UNL     1       1.691  10.236   0.063  0.00  0.00    +0.002 A 
ATOM     10  C   UNL     1       1.397   9.512  -1.078  0.00  0.00    +0.002 A 
ATOM     11  C   UNL     1       0.341   8.621  -1.086  0.00  0.00    +0.025 A 
ATOM     12  C   UNL     1      -0.426   8.450   0.055  0.00  0.00    +0.058 A 
ATOM     13  N   UNL     1      -1.520   7.575   0.055  0.00  0.00    -0.264 N 
ATOM     14  C   UNL     1      -1.333   6.240   0.046  0.00  0.00    +0.258 C 
ATOM     15  O   UNL     1      -2.288   5.493   0.052  0.00  0.00    -0.271 OA
ATOM     16  H   UNL     1      -0.342   8.756   3.318  0.00  0.00    +0.155 HD
ENDROOT
BRANCH  14  17
ATOM     17  C   UNL     1       0.065   5.676   0.030  0.00  0.00    +0.328 C 
BRANCH  17  18
ATOM     18  O   UNL     1       0.001   4.225   0.024  0.00  0.00    -0.452 OA
BRANCH  18  19
ATOM     19  C   UNL     1       1.173   3.561   0.009  0.00  0.00    +0.343 C 
ATOM     20  O   UNL     1       2.220   4.178   0.003  0.00  0.00    -0.245 OA
BRANCH  19  21
ATOM     21  C   UNL     1       1.185   2.087   0.002  0.00  0.00    +0.101 A 
ATOM     22  C   UNL     1      -0.017   1.374   0.010  0.00  0.00    +0.034 A 
ATOM     23  C   UNL     1       0.002  -0.004   0.002  0.00  0.00    +0.019 A 
ATOM     24  C   UNL     1       1.208  -0.687  -0.013  0.00  0.00    +0.019 A 
ATOM     25  C   UNL     1       2.403   0.005  -0.021  0.00  0.00    +0.047 A 
ATOM     26  C   UNL     1       2.403   1.392  -0.013  0.00  0.00    +0.131 A 
ATOM     27 BR   UNL     1      -1.625  -0.968   0.013  0.00  0.00    -0.050 Br
BRANCH  26  28
ATOM     28  O   UNL     1       3.576   2.074  -0.021  0.00  0.00    -0.506 OA
ATOM     29  H   UNL     1       4.530   1.526  -0.033  0.00  0.00    +0.292 HD
ENDBRANCH  26  28
ENDBRANCH  19  21
ENDBRANCH  18  19
ENDBRANCH  17  18
ENDBRANCH  14  17
TORSDOF 5
