REMARK  Name = ZINC04156511
REMARK  17 active torsions:
REMARK  status: ('A' for Active; 'I' for Inactive)
REMARK    1  A    between atoms: C_1  and  C_2
REMARK    2  A    between atoms: C_9  and  C_20
REMARK    3  A    between atoms: C_10  and  N_11
REMARK    4  A    between atoms: N_11  and  C_12
REMARK    5  A    between atoms: C_12  and  C_13
REMARK    6  A    between atoms: C_12  and  C_14
REMARK    7  A    between atoms: C_12  and  C_15
REMARK    8  A    between atoms: C_15  and  C_16
REMARK    9  A    between atoms: C_16  and  C_17
REMARK   10  A    between atoms: C_16  and  C_18
REMARK   11  A    between atoms: C_16  and  C_19
REMARK   12  A    between atoms: C_24  and  O_26
REMARK   13  A    between atoms: O_26  and  C_27
REMARK   14  A    between atoms: C_27  and  C_29
REMARK   15  A    between atoms: C_29  and  C_30
REMARK   16  A    between atoms: C_29  and  C_31
REMARK   17  A    between atoms: C_29  and  C_32
REMARK                            x       y       z     vdW  Elec       q    Type
REMARK                         _______ _______ _______ _____ _____    ______ ____
ROOT
ATOM      1  C   UNL     1       0.762  -1.932  -3.386  0.00  0.00    +0.047 C 
ATOM      2  C   UNL     1       0.193  -3.026  -2.519  0.00  0.00    -0.009 A 
ATOM      3  C   UNL     1      -0.563  -4.013  -3.069  0.00  0.00    +0.008 A 
ATOM      4  C   UNL     1      -1.089  -5.029  -2.251  0.00  0.00    +0.018 A 
ATOM      5  C   UNL     1      -0.849  -5.028  -0.924  0.00  0.00    +0.094 A 
ATOM      6  N   UNL     1      -0.090  -4.041  -0.354  0.00  0.00    -0.289 N 
ATOM      7  C   UNL     1       0.444  -3.038  -1.131  0.00  0.00    +0.120 A 
ATOM      8  N   UNL     1       1.134  -2.223  -0.350  0.00  0.00    -0.338 N 
ATOM      9  C   UNL     1       1.073  -2.667   0.919  0.00  0.00    +0.087 A 
ATOM     10  C   UNL     1       0.297  -3.807   0.936  0.00  0.00    +0.129 A 
ATOM     11  H   UNL     1       1.608  -1.430  -0.645  0.00  0.00    +0.167 HD
ENDROOT
BRANCH   9  12
ATOM     12  C   UNL     1       1.716  -2.034   2.094  0.00  0.00    +0.005 A 
ATOM     13  C   UNL     1       2.377  -2.820   3.038  0.00  0.00    +0.010 A 
ATOM     14  C   UNL     1       2.975  -2.228   4.132  0.00  0.00    +0.004 A 
ATOM     15  C   UNL     1       2.921  -0.856   4.296  0.00  0.00    +0.046 A 
ATOM     16  C   UNL     1       2.266  -0.066   3.361  0.00  0.00    +0.132 A 
ATOM     17  C   UNL     1       1.668  -0.650   2.257  0.00  0.00    +0.056 A 
BRANCH  16  18
ATOM     18  O   UNL     1       2.216   1.282   3.527  0.00  0.00    -0.425 OA
BRANCH  18  19
ATOM     19  C   UNL     1       1.058   1.825   3.936  0.00  0.00    +0.319 C 
ATOM     20  O   UNL     1       0.128   1.112   4.233  0.00  0.00    -0.250 OA
BRANCH  19  21
ATOM     21  C   UNL     1       0.917   3.323   4.025  0.00  0.00    +0.076 C 
ATOM     22  C   UNL     1       1.951   3.874   5.008  0.00  0.00    +0.024 C 
ATOM     23  C   UNL     1       1.146   3.940   2.644  0.00  0.00    +0.024 C 
BRANCH  21  24
ATOM     24  C   UNL     1      -0.489   3.675   4.514  0.00  0.00    +0.126 C 
ATOM     25 CL   UNL     1      -0.658   5.466   4.621  0.00  0.00    -0.124 Cl
ENDBRANCH  21  24
ENDBRANCH  19  21
ENDBRANCH  18  19
ENDBRANCH  16  18
ENDBRANCH   9  12
BRANCH  10  26
ATOM     26  N   UNL     1      -0.016  -4.582   2.052  0.00  0.00    -0.323 N 
ATOM     27  H   UNL     1       0.193  -4.259   2.942  0.00  0.00    +0.148 HD
BRANCH  26  28
ATOM     28  C   UNL     1      -0.662  -5.886   1.880  0.00  0.00    +0.028 C 
ATOM     29  C   UNL     1      -2.070  -5.687   1.315  0.00  0.00    +0.031 C 
ATOM     30  C   UNL     1       0.160  -6.739   0.912  0.00  0.00    +0.031 C 
BRANCH  28  31
ATOM     31  C   UNL     1      -0.752  -6.594   3.234  0.00  0.00    +0.031 C 
BRANCH  31  32
ATOM     32  C   UNL     1       0.528  -6.332   4.031  0.00  0.00    -0.036 C 
ATOM     33  C   UNL     1       0.326  -5.113   4.934  0.00  0.00    +0.010 C 
ATOM     34  C   UNL     1       0.852  -7.555   4.891  0.00  0.00    +0.010 C 
ATOM     35  C   UNL     1       1.685  -6.066   3.066  0.00  0.00    +0.010 C 
ENDBRANCH  31  32
ENDBRANCH  28  31
ENDBRANCH  26  28
ENDBRANCH  10  26
TORSDOF 9
