REMARK  Name = ZINC01102662
REMARK  5 active torsions:
REMARK  status: ('A' for Active; 'I' for Inactive)
REMARK    1  A    between atoms: C_1  and  N_2
REMARK    2  A    between atoms: N_2  and  C_3
REMARK    3  A    between atoms: C_4  and  C_6
REMARK    4  A    between atoms: C_13  and  C_22
REMARK    5  A    between atoms: C_25  and  N_28
REMARK                            x       y       z     vdW  Elec       q    Type
REMARK                         _______ _______ _______ _____ _____    ______ ____
ROOT
ATOM      1  C   UNL     1      -5.585   3.640  -1.979  0.00  0.00    +0.058 A 
ATOM      2  C   UNL     1      -6.849   4.229  -2.036  0.00  0.00    +0.015 A 
ATOM      3  C   UNL     1      -7.313   4.951  -0.958  0.00  0.00    +0.001 A 
ATOM      4  C   UNL     1      -6.532   5.092   0.175  0.00  0.00    +0.006 A 
ATOM      5  C   UNL     1      -5.272   4.515   0.251  0.00  0.00    -0.019 A 
ATOM      6  C   UNL     1      -4.792   3.785  -0.824  0.00  0.00    +0.044 A 
ATOM      7  N   UNL     1      -3.546   3.179  -0.810  0.00  0.00    -0.336 N 
ATOM      8  C   UNL     1      -2.611   3.858   0.088  0.00  0.00    +0.105 C 
ATOM      9  C   UNL     1      -3.187   3.874   1.505  0.00  0.00    +0.029 C 
ATOM     10  C   UNL     1      -4.482   4.715   1.510  0.00  0.00    +0.049 C 
ATOM     11  C   UNL     1      -3.995   6.143   1.610  0.00  0.00    -0.023 C 
ATOM     12  C   UNL     1      -2.776   6.180   2.087  0.00  0.00    -0.030 C 
ATOM     13  C   UNL     1      -2.277   4.779   2.382  0.00  0.00    +0.033 C 
ATOM     14  H   UNL     1      -3.166   3.111  -1.742  0.00  0.00    +0.147 HD
ENDROOT
BRANCH   8  15
ATOM     15  C   UNL     1      -1.294   3.126   0.090  0.00  0.00    -0.027 A 
ATOM     16  C   UNL     1      -1.271   1.744   0.071  0.00  0.00    +0.008 A 
ATOM     17  C   UNL     1      -0.063   1.072   0.077  0.00  0.00    +0.033 A 
ATOM     18  C   UNL     1       1.123   1.783   0.091  0.00  0.00    +0.126 A 
ATOM     19  C   UNL     1       1.101   3.165   0.105  0.00  0.00    +0.033 A 
ATOM     20  C   UNL     1      -0.108   3.837   0.104  0.00  0.00    +0.008 A 
BRANCH  18  21
ATOM     21  N   UNL     1       2.417   1.063   0.092  0.00  0.00    +0.056 N 
ATOM     22  O   UNL     1       2.436  -0.154   0.080  0.00  0.00    -0.126 OA
ATOM     23  O   UNL     1       3.461   1.689   0.104  0.00  0.00    -0.126 OA
ENDBRANCH  18  21
ENDBRANCH   8  15
BRANCH   1  27
ATOM     24  C   UNL     1      -4.660   2.619  -5.514  0.00  0.00    +0.132 C 
ATOM     25  N   UNL     1      -5.043   3.425  -4.353  0.00  0.00    -0.304 N 
ATOM     26  C   UNL     1      -5.385   4.840  -4.523  0.00  0.00    +0.132 C 
ATOM     27  C   UNL     1      -5.080   2.866  -3.127  0.00  0.00    +0.248 C 
ATOM     28  O   UNL     1      -4.698   1.723  -2.969  0.00  0.00    -0.270 OA
ENDBRANCH   1  27
TORSDOF 3
