REMARK  Name = ZINC36072502
REMARK  13 active torsions:
REMARK  status: ('A' for Active; 'I' for Inactive)
REMARK    1  A    between atoms: C_1  and  C_2
REMARK    2  A    between atoms: C_2  and  O_3
REMARK    3  A    between atoms: O_3  and  C_4
REMARK    4  A    between atoms: C_4  and  C_6
REMARK    5  A    between atoms: C_13  and  C_15
REMARK    6  A    between atoms: C_18  and  C_20
REMARK    7  A    between atoms: C_20  and  N_21
REMARK    8  A    between atoms: N_21  and  C_22
REMARK    9  A    between atoms: N_21  and  C_30
REMARK   10  A    between atoms: C_22  and  C_23
REMARK   11  A    between atoms: C_30  and  C_31
REMARK   12  A    between atoms: C_35  and  O_37
REMARK   13  A    between atoms: O_37  and  C_38
REMARK                            x       y       z     vdW  Elec       q    Type
REMARK                         _______ _______ _______ _____ _____    ______ ____
ROOT
ATOM      1  C   UNL     1     -10.203  -3.843   2.075  0.00  0.00    +0.020 C 
ENDROOT
BRANCH   1   5
ATOM      2  C   UNL     1      -8.612  -1.030   3.711  0.00  0.00    +0.164 A 
ATOM      3  C   UNL     1      -9.844  -0.985   4.289  0.00  0.00    +0.230 A 
ATOM      4  O   UNL     1     -10.559  -1.993   3.766  0.00  0.00    -0.449 OA
ATOM      5  C   UNL     1      -9.785  -2.644   2.886  0.00  0.00    +0.179 A 
ATOM      6  N   UNL     1      -8.618  -2.074   2.839  0.00  0.00    -0.210 NA
BRANCH   2  13
ATOM      7  C   UNL     1      -4.951   1.409   2.050  0.00  0.00    +0.115 C 
ATOM      8  C   UNL     1      -4.642   0.300   1.042  0.00  0.00    +0.018 C 
ATOM      9  C   UNL     1      -5.871  -0.597   0.874  0.00  0.00    +0.020 C 
ATOM     10  C   UNL     1      -6.211  -1.247   2.219  0.00  0.00    +0.108 C 
ATOM     11  N   UNL     1      -6.368  -0.191   3.228  0.00  0.00    -0.295 N 
ATOM     12  C   UNL     1      -5.281   0.783   3.408  0.00  0.00    +0.122 C 
ATOM     13  C   UNL     1      -7.487  -0.115   3.975  0.00  0.00    +0.268 C 
ATOM     14  O   UNL     1      -7.568   0.707   4.868  0.00  0.00    -0.268 OA
BRANCH   7  15
ATOM     15  C   UNL     1      -3.752   2.311   2.189  0.00  0.00    +0.312 C 
ATOM     16  O   UNL     1      -2.752   2.090   1.548  0.00  0.00    -0.250 OA
BRANCH  15  17
ATOM     17  O   UNL     1      -3.794   3.359   3.027  0.00  0.00    -0.465 OA
BRANCH  17  19
ATOM     18  C   UNL     1      -2.856   5.307   4.106  0.00  0.00    +0.048 C 
ATOM     19  C   UNL     1      -2.621   4.171   3.110  0.00  0.00    +0.229 C 
ENDBRANCH  17  19
ENDBRANCH  15  17
ENDBRANCH   7  15
ENDBRANCH   2  13
ENDBRANCH   1   5
BRANCH   1  20
ATOM     20  N   UNL     1      -9.896  -5.070   2.821  0.00  0.00    +0.391 N 
ATOM     21  H   UNL     1      -8.919  -5.076   3.072  0.00  0.00    -0.080 HD
BRANCH  20  22
ATOM     22  C   UNL     1     -10.715  -5.120   4.040  0.00  0.00    -0.042 C 
BRANCH  22  23
ATOM     23  C   UNL     1     -10.305  -6.307   4.872  0.00  0.00    -0.064 A 
ATOM     24  C   UNL     1     -11.001  -7.497   4.769  0.00  0.00    +0.004 A 
ATOM     25  C   UNL     1     -10.625  -8.587   5.531  0.00  0.00    +0.038 A 
ATOM     26  C   UNL     1      -9.551  -8.486   6.400  0.00  0.00    +0.123 A 
ATOM     27  C   UNL     1      -8.855  -7.294   6.503  0.00  0.00    +0.038 A 
ATOM     28  C   UNL     1      -9.229  -6.207   5.735  0.00  0.00    +0.004 A 
ATOM     29  F   UNL     1      -9.184  -9.550   7.146  0.00  0.00    -0.205 F 
ENDBRANCH  22  23
ENDBRANCH  20  22
BRANCH  20  30
ATOM     30  C   UNL     1     -10.193  -6.240   1.984  0.00  0.00    -0.042 C 
BRANCH  30  31
ATOM     31  C   UNL     1      -9.249  -6.269   0.809  0.00  0.00    -0.060 A 
ATOM     32  C   UNL     1      -9.639  -5.733  -0.404  0.00  0.00    +0.002 A 
ATOM     33  C   UNL     1      -8.775  -5.759  -1.483  0.00  0.00    +0.004 A 
ATOM     34  C   UNL     1      -7.520  -6.321  -1.352  0.00  0.00    +0.045 A 
ATOM     35  C   UNL     1      -7.127  -6.860  -0.136  0.00  0.00    +0.120 A 
ATOM     36  C   UNL     1      -7.993  -6.827   0.947  0.00  0.00    +0.047 A 
BRANCH  35  37
ATOM     37  O   UNL     1      -5.893  -7.413  -0.004  0.00  0.00    -0.495 OA
ATOM     38  C   UNL     1      -5.011  -7.308  -1.124  0.00  0.00    +0.277 C 
ENDBRANCH  35  37
ENDBRANCH  30  31
ENDBRANCH  20  30
ENDBRANCH   1  20
TORSDOF 11
