REMARK  Name = ZINC67132692
REMARK  7 active torsions:
REMARK  status: ('A' for Active; 'I' for Inactive)
REMARK    1  A    between atoms: C_1  and  C_2
REMARK    2  A    between atoms: C_2  and  O_3
REMARK    3  A    between atoms: O_3  and  C_4
REMARK    4  A    between atoms: C_4  and  C_6
REMARK    5  A    between atoms: C_7  and  C_19
REMARK    6  A    between atoms: C_12  and  C_14
REMARK    7  A    between atoms: C_19  and  N_20
REMARK                            x       y       z     vdW  Elec       q    Type
REMARK                         _______ _______ _______ _____ _____    ______ ____
ROOT
ATOM      1  C   UNL     1       1.227  -2.700  -3.159  0.00  0.00    +0.082 C 
ATOM      2  C   UNL     1       1.796  -3.803  -2.627  0.00  0.00    +0.038 C 
ATOM      3  N   UNL     1       2.987  -4.278  -3.097  0.00  0.00    -0.271 N 
ATOM      4  C   UNL     1       3.673  -3.706  -4.095  0.00  0.00    +0.304 C 
ATOM      5  O   UNL     1       4.726  -4.202  -4.444  0.00  0.00    -0.252 OA
ATOM      6  N   UNL     1       3.233  -2.599  -4.725  0.00  0.00    -0.285 N 
ATOM      7  C   UNL     1       1.953  -2.010  -4.297  0.00  0.00    +0.179 C 
ATOM      8  H   UNL     1       3.358  -5.074  -2.685  0.00  0.00    +0.156 HD
ATOM      9  H   UNL     1       3.746  -2.200  -5.445  0.00  0.00    +0.151 HD
ENDROOT
BRANCH   7  10
ATOM     10  C   UNL     1       2.217  -0.585  -3.884  0.00  0.00    +0.130 A 
ATOM     11  C   UNL     1       1.493   0.487  -4.252  0.00  0.00    +0.047 A 
ATOM     12  C   UNL     1       2.090   1.613  -3.640  0.00  0.00    +0.041 A 
ATOM     13  C   UNL     1       3.142   1.162  -2.935  0.00  0.00    +0.195 A 
ATOM     14  O   UNL     1       3.211  -0.171  -3.081  0.00  0.00    -0.466 OA
ENDBRANCH   7  10
BRANCH   1  15
ATOM     15  C   UNL     1      -0.007  -2.207  -2.674  0.00  0.00    +0.339 C 
ATOM     16  O   UNL     1      -0.630  -2.841  -1.842  0.00  0.00    -0.245 OA
BRANCH  15  17
ATOM     17  O   UNL     1      -0.493  -1.035  -3.133  0.00  0.00    -0.462 OA
BRANCH  17  19
ATOM     18  C   UNL     1      -2.131   0.739  -3.234  0.00  0.00    +0.048 C 
ATOM     19  C   UNL     1      -1.744  -0.598  -2.599  0.00  0.00    +0.229 C 
ENDBRANCH  17  19
ENDBRANCH  15  17
ENDBRANCH   1  15
BRANCH   2  20
ATOM     20  C   UNL     1       1.105  -4.522  -1.498  0.00  0.00    +0.136 C 
BRANCH  20  21
ATOM     21  N   UNL     1       0.120  -5.464  -2.046  0.00  0.00    -0.294 NA
ATOM     22  C   UNL     1       0.769  -6.461  -2.908  0.00  0.00    +0.085 C 
ATOM     23  C   UNL     1      -0.297  -7.335  -3.573  0.00  0.00    +0.016 C 
ATOM     24  C   UNL     1      -1.129  -8.030  -2.492  0.00  0.00    +0.006 C 
ATOM     25  C   UNL     1      -1.754  -6.970  -1.582  0.00  0.00    +0.006 C 
ATOM     26  C   UNL     1      -0.644  -6.111  -0.972  0.00  0.00    +0.060 C 
ATOM     27  C   UNL     1      -1.265  -5.045  -0.068  0.00  0.00    +0.019 C 
ATOM     28  C   UNL     1      -2.055  -5.725   1.052  0.00  0.00    +0.002 C 
ATOM     29  C   UNL     1      -3.162  -6.590   0.446  0.00  0.00    +0.000 C 
ATOM     30  C   UNL     1      -2.543  -7.654  -0.464  0.00  0.00    +0.005 C 
ENDBRANCH  20  21
ENDBRANCH   2  20
TORSDOF 6
