REMARK  Name = ZINC63165341
REMARK  8 active torsions:
REMARK  status: ('A' for Active; 'I' for Inactive)
REMARK    1  A    between atoms: C_1  and  C_2
REMARK    2  A    between atoms: C_2  and  N_3
REMARK    3  A    between atoms: C_4  and  C_21
REMARK    4  A    between atoms: C_8  and  S_10
REMARK    5  A    between atoms: S_10  and  C_11
REMARK    6  A    between atoms: C_11  and  C_12
REMARK    7  A    between atoms: C_21  and  O_22
REMARK    8  A    between atoms: O_22  and  C_23
REMARK                            x       y       z     vdW  Elec       q    Type
REMARK                         _______ _______ _______ _____ _____    ______ ____
ROOT
ATOM      1  N   UNL     1      -1.376  -0.512   0.012  0.00  0.00    -0.259 NA
ATOM      2  C   UNL     1      -1.402  -1.977  -0.185  0.00  0.00    +0.178 C 
ATOM      3  N   UNL     1      -2.064  -2.551   1.008  0.00  0.00    -0.234 NA
ATOM      4  N   UNL     1      -2.884  -1.451   1.539  0.00  0.00    -0.229 NA
ATOM      5  C   UNL     1      -2.026  -0.257   1.319  0.00  0.00    +0.200 C 
ATOM      6  H   UNL     1      -2.639  -3.342   0.757  0.00  0.00    +0.142 HD
ATOM      7  H   UNL     1      -3.753  -1.371   1.033  0.00  0.00    +0.143 HD
ENDROOT
BRANCH   1   9
ATOM      8  C   UNL     1      -0.019   1.526   0.010  0.00  0.00    +0.020 C 
ATOM      9  C   UNL     1       0.002  -0.004   0.002  0.00  0.00    +0.085 C 
ENDBRANCH   1   9
BRANCH   5  10
ATOM     10  S   UNL     1      -3.039   1.246   1.240  0.00  0.00    -0.121 S 
BRANCH  10  11
ATOM     11  C   UNL     1      -4.256   0.888  -0.057  0.00  0.00    +0.118 C 
BRANCH  11  12
ATOM     12  C   UNL     1      -5.187   2.090  -0.229  0.00  0.00    +0.184 C 
ATOM     13  N   UNL     1      -4.405   3.293  -0.538  0.00  0.00    -0.363 N 
ATOM     14  C   UNL     1      -4.622   4.156   0.412  0.00  0.00    +0.060 A 
ATOM     15  C   UNL     1      -4.131   5.519   0.655  0.00  0.00    +0.027 A 
ATOM     16  C   UNL     1      -4.539   6.187   1.752  0.00  0.00    +0.002 A 
ATOM     17  C   UNL     1      -5.428   5.633   2.691  0.00  0.00    +0.002 A 
ATOM     18  C   UNL     1      -5.938   4.391   2.563  0.00  0.00    +0.027 A 
ATOM     19  C   UNL     1      -5.563   3.569   1.405  0.00  0.00    +0.060 A 
ATOM     20  N   UNL     1      -5.891   2.366   1.030  0.00  0.00    -0.363 N 
ATOM     21  H   UNL     1      -3.830   3.421  -1.310  0.00  0.00    +0.162 HD
ATOM     22  H   UNL     1      -6.490   1.763   1.497  0.00  0.00    +0.162 HD
ENDBRANCH  11  12
ENDBRANCH  10  11
ENDBRANCH   5  10
BRANCH   2  23
ATOM     23  C   UNL     1      -2.198  -2.322  -1.445  0.00  0.00    +0.265 C 
BRANCH  23  24
ATOM     24  O   UNL     1      -3.537  -1.843  -1.308  0.00  0.00    -0.489 OA
BRANCH  24  25
ATOM     25  C   UNL     1      -4.383  -2.070  -2.348  0.00  0.00    +0.121 A 
ATOM     26  C   UNL     1      -3.934  -2.744  -3.474  0.00  0.00    +0.047 A 
ATOM     27  C   UNL     1      -4.795  -2.974  -4.530  0.00  0.00    +0.023 A 
ATOM     28  C   UNL     1      -6.104  -2.530  -4.465  0.00  0.00    +0.041 A 
ATOM     29  C   UNL     1      -6.553  -1.857  -3.343  0.00  0.00    +0.023 A 
ATOM     30  C   UNL     1      -5.697  -1.632  -2.283  0.00  0.00    +0.047 A 
ATOM     31 CL   UNL     1      -7.183  -2.819  -5.794  0.00  0.00    -0.084 Cl
ENDBRANCH  24  25
ENDBRANCH  23  24
ENDBRANCH   2  23
TORSDOF 7
