REMARK  Name = ZINC58208515
REMARK  6 active torsions:
REMARK  status: ('A' for Active; 'I' for Inactive)
REMARK    1  A    between atoms: C_4  and  C_7
REMARK    2  A    between atoms: C_9  and  C_15
REMARK    3  A    between atoms: C_15  and  N_16
REMARK    4  A    between atoms: N_19  and  C_20
REMARK    5  A    between atoms: C_20  and  C_21
REMARK    6  A    between atoms: N_23  and  C_24
REMARK                            x       y       z     vdW  Elec       q    Type
REMARK                         _______ _______ _______ _____ _____    ______ ____
ROOT
ATOM      1  N   UNL     1       3.260  -2.135  -3.519  0.00  0.00    -0.299 N 
ATOM      2  C   UNL     1       2.409  -2.857  -4.275  0.00  0.00    +0.300 C 
ATOM      3  O   UNL     1       1.395  -3.312  -3.782  0.00  0.00    -0.253 OA
ATOM      4  N   UNL     1       2.683  -3.074  -5.577  0.00  0.00    -0.291 N 
ATOM      5  H   UNL     1       4.069  -1.772  -3.911  0.00  0.00    +0.150 HD
ATOM      6  H   UNL     1       3.492  -2.711  -5.969  0.00  0.00    +0.151 HD
ENDROOT
BRANCH   1   7
ATOM      7  C   UNL     1       2.963  -1.899  -2.104  0.00  0.00    +0.112 C 
BRANCH   7   9
ATOM      8  C   UNL     1       3.711  -0.707  -0.038  0.00  0.00    +0.153 C 
ATOM      9  C   UNL     1       4.080  -1.060  -1.481  0.00  0.00    +0.040 C 
ATOM     10  C   UNL     1       5.387  -1.859  -1.485  0.00  0.00    +0.010 C 
ATOM     11  C   UNL     1       5.214  -3.103  -0.609  0.00  0.00    +0.028 C 
ATOM     12  C   UNL     1       4.801  -2.672   0.801  0.00  0.00    +0.160 C 
ATOM     13  O   UNL     1       3.596  -1.907   0.730  0.00  0.00    -0.372 OA
BRANCH   8  17
ATOM     14  C   UNL     1      -0.017   1.378   0.010  0.00  0.00    +0.000 A 
ATOM     15  C   UNL     1       1.171   2.086   0.002  0.00  0.00    +0.000 A 
ATOM     16  C   UNL     1       2.377   1.411  -0.013  0.00  0.00    +0.006 A 
ATOM     17  C   UNL     1       2.396   0.029  -0.020  0.00  0.00    -0.019 A 
ATOM     18  C   UNL     1       1.208  -0.679  -0.012  0.00  0.00    +0.006 A 
ATOM     19  C   UNL     1       0.002  -0.004   0.002  0.00  0.00    +0.000 A 
ENDBRANCH   8  17
ENDBRANCH   7   9
ENDBRANCH   1   7
BRANCH   4  20
ATOM     20  C   UNL     1       1.758  -3.858  -6.398  0.00  0.00    +0.201 C 
BRANCH  20  21
ATOM     21  C   UNL     1       2.291  -3.952  -7.805  0.00  0.00    +0.230 C 
ATOM     22  O   UNL     1       3.341  -3.417  -8.092  0.00  0.00    -0.274 OA
ATOM     23  N   UNL     1       1.602  -4.631  -8.743  0.00  0.00    -0.311 N 
ATOM     24  H   UNL     1       0.763  -5.060  -8.513  0.00  0.00    +0.149 HD
BRANCH  23  25
ATOM     25  C   UNL     1       2.121  -4.723 -10.110  0.00  0.00    +0.073 C 
ATOM     26  C   UNL     1       1.693  -3.485 -10.901  0.00  0.00    +0.022 C 
ATOM     27  C   UNL     1       2.235  -3.580 -12.329  0.00  0.00    +0.002 C 
ATOM     28  C   UNL     1       1.677  -4.835 -13.004  0.00  0.00    +0.000 C 
ATOM     29  C   UNL     1       2.105  -6.073 -12.212  0.00  0.00    +0.002 C 
ATOM     30  C   UNL     1       1.563  -5.978 -10.784  0.00  0.00    +0.022 C 
ENDBRANCH  23  25
ENDBRANCH  20  21
ENDBRANCH   4  20
TORSDOF 6
