REMARK  Name = ZINC40132995
REMARK  4 active torsions:
REMARK  status: ('A' for Active; 'I' for Inactive)
REMARK    1  A    between atoms: C_4  and  C_7
REMARK    2  A    between atoms: C_7  and  C_9
REMARK    3  A    between atoms: C_7  and  N_16
REMARK    4  A    between atoms: C_17  and  C_19
REMARK                            x       y       z     vdW  Elec       q    Type
REMARK                         _______ _______ _______ _____ _____    ______ ____
ROOT
ATOM      1  N   UNL     1       4.299  -1.899   0.621  0.00  0.00    -0.304 N 
ATOM      2  C   UNL     1       4.319  -1.738   1.959  0.00  0.00    +0.218 C 
ATOM      3  O   UNL     1       4.582  -0.654   2.434  0.00  0.00    -0.275 OA
ATOM      4  H   UNL     1       4.088  -2.766   0.240  0.00  0.00    +0.150 HD
ENDROOT
BRANCH   2   5
ATOM      5  C   UNL     1       4.014  -2.904   2.863  0.00  0.00    +0.092 C 
ATOM      6  C   UNL     1       4.106  -2.455   4.324  0.00  0.00    +0.016 C 
ATOM      7  C   UNL     1       3.765  -3.630   5.243  0.00  0.00    +0.020 C 
ATOM      8  C   UNL     1       4.777  -4.759   5.019  0.00  0.00    +0.106 C 
ATOM      9  N   UNL     1       4.799  -5.097   3.589  0.00  0.00    -0.313 N 
ATOM     10  C   UNL     1       5.029  -4.024   2.612  0.00  0.00    +0.119 C 
ATOM     11  C   UNL     1       4.607  -6.409   3.169  0.00  0.00    +0.144 A 
ATOM     12  C   UNL     1       4.607  -7.450   4.098  0.00  0.00    +0.048 A 
ATOM     13  C   UNL     1       4.412  -8.738   3.628  0.00  0.00    +0.045 A 
ATOM     14  C   UNL     1       4.228  -8.915   2.262  0.00  0.00    +0.152 A 
ATOM     15  N   UNL     1       4.242  -7.872   1.455  0.00  0.00    -0.136 NA
ATOM     16  N   UNL     1       4.418  -6.675   1.885  0.00  0.00    -0.133 NA
ATOM     17 CL   UNL     1       3.979 -10.507   1.618  0.00  0.00    -0.060 Cl
ENDBRANCH   2   5
BRANCH   1  18
ATOM     18  C   UNL     1       4.595  -0.766  -0.259  0.00  0.00    +0.134 C 
BRANCH  18  19
ATOM     19  C   UNL     1       5.106  -1.276  -1.581  0.00  0.00    -0.023 A 
ATOM     20  C   UNL     1       4.529  -2.391  -2.161  0.00  0.00    +0.008 A 
ATOM     21  C   UNL     1       4.997  -2.860  -3.374  0.00  0.00    +0.038 A 
ATOM     22  C   UNL     1       6.044  -2.212  -4.009  0.00  0.00    +0.123 A 
ATOM     23  C   UNL     1       6.620  -1.096  -3.427  0.00  0.00    +0.038 A 
ATOM     24  C   UNL     1       6.147  -0.626  -2.217  0.00  0.00    +0.008 A 
ATOM     25  F   UNL     1       6.502  -2.670  -5.194  0.00  0.00    -0.205 F 
ENDBRANCH  18  19
BRANCH  18  29
ATOM     26  C   UNL     1       1.038   1.513  -0.893  0.00  0.00    +0.000 A 
ATOM     27  C   UNL     1       2.248   2.157  -0.711  0.00  0.00    +0.000 A 
ATOM     28  C   UNL     1       3.399   1.419  -0.506  0.00  0.00    +0.006 A 
ATOM     29  C   UNL     1       3.340   0.038  -0.482  0.00  0.00    -0.023 A 
ATOM     30  C   UNL     1       2.130  -0.605  -0.662  0.00  0.00    +0.006 A 
ATOM     31  C   UNL     1       0.979   0.132  -0.869  0.00  0.00    +0.000 A 
ENDBRANCH  18  29
ENDBRANCH   1  18
TORSDOF 4
