REMARK  Name = ZINC24580859
REMARK  8 active torsions:
REMARK  status: ('A' for Active; 'I' for Inactive)
REMARK    1  A    between atoms: C_4  and  N_7
REMARK    2  A    between atoms: C_11  and  N_14
REMARK    3  A    between atoms: N_17  and  C_20
REMARK    4  A    between atoms: C_20  and  C_21
REMARK    5  A    between atoms: N_23  and  C_24
REMARK    6  A    between atoms: N_23  and  C_28
REMARK    7  A    between atoms: C_24  and  C_25
REMARK    8  A    between atoms: C_25  and  C_26
REMARK                            x       y       z     vdW  Elec       q    Type
REMARK                         _______ _______ _______ _____ _____    ______ ____
ROOT
ATOM      1  N   UNL     1       4.894  -0.024   0.885  0.00  0.00    -0.331 N 
ATOM      2  C   UNL     1       5.087   1.027  -0.124  0.00  0.00    +0.086 C 
ATOM      3  C   UNL     1       3.940   2.037  -0.029  0.00  0.00    -0.059 C 
ATOM      4  N   UNL     1       2.661   1.343  -0.233  0.00  0.00    +0.387 N 
ATOM      5  C   UNL     1       2.469   0.292   0.775  0.00  0.00    -0.059 C 
ATOM      6  C   UNL     1       3.615  -0.718   0.681  0.00  0.00    +0.086 C 
ATOM      7  H   UNL     1       2.689   0.863  -1.223  0.00  0.00    -0.081 HD
ENDROOT
BRANCH   1  12
ATOM      8  N   UNL     1       8.037  -2.694   0.840  0.00  0.00    -0.195 N 
ATOM      9  C   UNL     1       7.791  -2.006   1.972  0.00  0.00    +0.292 A 
ATOM     10  O   UNL     1       8.489  -2.177   2.959  0.00  0.00    -0.264 OA
ATOM     11  C   UNL     1       6.728  -1.093   2.009  0.00  0.00    +0.129 A 
ATOM     12  C   UNL     1       5.952  -0.919   0.877  0.00  0.00    +0.074 A 
ATOM     13  C   UNL     1       6.244  -1.665  -0.284  0.00  0.00    +0.158 A 
ATOM     14  N   UNL     1       7.242  -2.504  -0.295  0.00  0.00    -0.170 NA
ATOM     15 CL   UNL     1       6.389  -0.194   3.456  0.00  0.00    -0.076 Cl
BRANCH   8  19
ATOM     16  C   UNL     1      11.195  -5.410   0.720  0.00  0.00    +0.000 A 
ATOM     17  C   UNL     1       9.946  -5.783   0.258  0.00  0.00    +0.002 A 
ATOM     18  C   UNL     1       8.897  -4.885   0.297  0.00  0.00    +0.028 A 
ATOM     19  C   UNL     1       9.098  -3.606   0.799  0.00  0.00    +0.069 A 
ATOM     20  C   UNL     1      10.355  -3.232   1.256  0.00  0.00    +0.028 A 
ATOM     21  C   UNL     1      11.398  -4.137   1.221  0.00  0.00    +0.002 A 
ENDBRANCH   8  19
ENDBRANCH   1  12
BRANCH   4  22
ATOM     22  C   UNL     1       1.540   2.292  -0.225  0.00  0.00    +0.019 C 
BRANCH  22  23
ATOM     23  C   UNL     1       0.285   1.591  -0.677  0.00  0.00    +0.203 C 
ATOM     24  O   UNL     1       0.321   0.416  -0.977  0.00  0.00    -0.277 OA
ATOM     25  N   UNL     1      -0.876   2.270  -0.754  0.00  0.00    -0.269 N 
BRANCH  25  26
ATOM     26  C   UNL     1      -2.041   1.620  -1.180  0.00  0.00    +0.072 A 
ATOM     27  C   UNL     1      -2.866   0.994  -0.255  0.00  0.00    +0.026 A 
ATOM     28  C   UNL     1      -4.018   0.359  -0.677  0.00  0.00    +0.002 A 
ATOM     29  C   UNL     1      -4.344   0.335  -2.021  0.00  0.00    +0.003 A 
ATOM     30  C   UNL     1      -3.523   0.952  -2.946  0.00  0.00    +0.040 A 
ATOM     31  C   UNL     1      -2.371   1.595  -2.530  0.00  0.00    +0.145 A 
ATOM     32  F   UNL     1      -1.568   2.197  -3.434  0.00  0.00    -0.204 F 
ENDBRANCH  25  26
BRANCH  25  33
ATOM     33  C   UNL     1      -0.920   3.689  -0.392  0.00  0.00    +0.128 C 
BRANCH  33  34
ATOM     34  C   UNL     1      -0.636   4.541  -1.631  0.00  0.00    +0.138 C 
BRANCH  34  35
ATOM     35  C   UNL     1      -0.680   5.966  -1.266  0.00  0.00    +0.064 C 
ATOM     36  N   UNL     1      -0.714   7.067  -0.986  0.00  0.00    -0.197 NA
ENDBRANCH  34  35
ENDBRANCH  33  34
ENDBRANCH  25  33
ENDBRANCH  22  23
ENDBRANCH   4  22
TORSDOF 8
