REMARK  Name = ZINC62843626
REMARK  5 active torsions:
REMARK  status: ('A' for Active; 'I' for Inactive)
REMARK    1  A    between atoms: C_1  and  C_2
REMARK    2  A    between atoms: C_4  and  C_18
REMARK    3  A    between atoms: C_7  and  N_8
REMARK    4  A    between atoms: C_11  and  C_14
REMARK    5  A    between atoms: C_11  and  C_15
REMARK                            x       y       z     vdW  Elec       q    Type
REMARK                         _______ _______ _______ _____ _____    ______ ____
ROOT
ATOM      1  C   UNL     1      -0.018   1.503   0.010  0.00  0.00    +0.045 C 
ATOM      2  C   UNL     1       0.002  -0.004   0.002  0.00  0.00    -0.029 A 
ATOM      3  C   UNL     1       0.006  -0.685  -1.194  0.00  0.00    +0.018 A 
ATOM      4  C   UNL     1       0.025  -2.083  -1.201  0.00  0.00    +0.037 A 
ATOM      5  C   UNL     1       0.041  -2.784   0.008  0.00  0.00    +0.015 A 
ATOM      6  C   UNL     1       0.037  -2.098   1.201  0.00  0.00    +0.024 A 
ATOM      7  C   UNL     1       0.023  -0.706   1.204  0.00  0.00    +0.033 A 
ENDROOT
BRANCH   7   8
ATOM      8  N   UNL     1       0.025  -0.015   2.411  0.00  0.00    -0.330 N 
ATOM      9  C   UNL     1      -1.238   0.335   3.075  0.00  0.00    +0.106 C 
ATOM     10  C   UNL     1      -1.247   1.840   3.356  0.00  0.00    +0.037 C 
ATOM     11  C   UNL     1       0.006   2.215   4.151  0.00  0.00    +0.072 C 
ATOM     12  C   UNL     1       1.253   1.885   3.327  0.00  0.00    +0.037 C 
ATOM     13  C   UNL     1       1.290   0.374   3.048  0.00  0.00    +0.106 C 
ATOM     14  C   UNL     1       0.036   1.422   5.460  0.00  0.00    +0.023 C 
BRANCH  11  15
ATOM     15  C   UNL     1      -0.016   3.690   4.459  0.00  0.00    +0.362 C 
ATOM     16  O   UNL     1       0.517   4.109   5.472  0.00  0.00    -0.246 OA
ATOM     17  O   UNL     1      -0.568   4.463   3.695  0.00  0.00    -0.246 OA
ENDBRANCH  11  15
ENDBRANCH   7   8
BRANCH   4  18
ATOM     18  C   UNL     1       0.029  -2.815  -2.481  0.00  0.00    +0.242 C 
ATOM     19  O   UNL     1       0.015  -2.204  -3.532  0.00  0.00    -0.270 OA
ATOM     20  N   UNL     1       0.047  -4.163  -2.486  0.00  0.00    -0.325 N 
ATOM     21  H   UNL     1       0.059  -4.651  -1.648  0.00  0.00    +0.145 HD
ATOM     22  H   UNL     1       0.050  -4.645  -3.328  0.00  0.00    +0.145 HD
ENDBRANCH   4  18
TORSDOF 3
