REMARK  Name = ZINC22991245
REMARK  7 active torsions:
REMARK  status: ('A' for Active; 'I' for Inactive)
REMARK    1  A    between atoms: C_1  and  C_2
REMARK    2  A    between atoms: C_4  and  C_32
REMARK    3  A    between atoms: C_6  and  C_29
REMARK    4  A    between atoms: C_10  and  C_11
REMARK    5  A    between atoms: N_13  and  N_14
REMARK    6  A    between atoms: C_15  and  C_17
REMARK    7  A    between atoms: C_18  and  C_28
REMARK                            x       y       z     vdW  Elec       q    Type
REMARK                         _______ _______ _______ _____ _____    ______ ____
ROOT
ATOM      1  C   UNL     1      -1.184  -0.941  -0.097  0.00  0.00    +0.267 C 
ATOM      2  O   UNL     1      -0.992  -2.142  -0.116  0.00  0.00    -0.268 OA
ATOM      3  N   UNL     1      -2.438  -0.461   0.017  0.00  0.00    -0.230 N 
ATOM      4  H   UNL     1      -2.612   0.625   0.034  0.00  0.00    +0.173 HD
ENDROOT
BRANCH   1  14
ATOM      5  C   UNL     1       1.731  -1.739  -0.361  0.00  0.00    +0.046 C 
ATOM      6  C   UNL     1       1.274  -0.304  -0.319  0.00  0.00    -0.020 A 
ATOM      7  C   UNL     1       2.213   0.736  -0.403  0.00  0.00    +0.032 A 
ATOM      8  C   UNL     1       3.623   0.665  -0.531  0.00  0.00    +0.050 A 
ATOM      9  N   UNL     1       4.321   1.777  -0.593  0.00  0.00    -0.236 NA
ATOM     10  C   UNL     1       3.758   2.972  -0.541  0.00  0.00    +0.134 A 
ATOM     11  N   UNL     1       2.451   3.110  -0.423  0.00  0.00    -0.225 NA
ATOM     12  C   UNL     1       1.677   2.050  -0.353  0.00  0.00    +0.113 A 
ATOM     13  S   UNL     1      -0.068   1.772  -0.195  0.00  0.00    -0.064 S 
ATOM     14  C   UNL     1      -0.049  -0.013  -0.199  0.00  0.00    +0.081 A 
ATOM     15  C   UNL     1       4.314  -0.672  -0.595  0.00  0.00    +0.066 C 
BRANCH  10  16
ATOM     16  C   UNL     1       4.626   4.202  -0.619  0.00  0.00    +0.057 C 
ATOM     17  C   UNL     1       3.961   5.554  -0.353  0.00  0.00    +0.012 C 
ATOM     18  C   UNL     1       4.375   5.171  -1.775  0.00  0.00    +0.012 C 
ENDBRANCH  10  16
ENDBRANCH   1  14
BRANCH   3  19
ATOM     19  N   UNL     1      -3.521  -1.345   0.114  0.00  0.00    -0.230 N 
ATOM     20  C   UNL     1      -4.775  -0.865   0.228  0.00  0.00    +0.269 C 
ATOM     21  O   UNL     1      -4.967   0.337   0.247  0.00  0.00    -0.268 OA
ATOM     22  H   UNL     1      -3.347  -2.431   0.097  0.00  0.00    +0.173 HD
BRANCH  20  23
ATOM     23  C   UNL     1      -5.905  -1.788   0.330  0.00  0.00    +0.099 A 
ATOM     24  C   UNL     1      -7.260  -1.519   0.458  0.00  0.00    +0.060 A 
ATOM     25  N   UNL     1      -8.079  -2.536   0.525  0.00  0.00    -0.229 NA
ATOM     26  C   UNL     1      -7.639  -3.785   0.484  0.00  0.00    +0.162 A 
ATOM     27  S   UNL     1      -5.923  -3.575   0.329  0.00  0.00    -0.047 S 
ATOM     28  N   UNL     1      -8.362  -4.957   0.549  0.00  0.00    -0.305 N 
ATOM     29  C   UNL     1      -9.179  -5.005   1.770  0.00  0.00    +0.135 C 
ATOM     30  C   UNL     1     -10.009  -6.292   1.773  0.00  0.00    +0.179 C 
ATOM     31  O   UNL     1      -9.133  -7.418   1.662  0.00  0.00    -0.377 OA
ATOM     32  C   UNL     1      -8.323  -7.403   0.483  0.00  0.00    +0.179 C 
ATOM     33  C   UNL     1      -7.477  -6.128   0.468  0.00  0.00    +0.135 C 
ATOM     34  C   UNL     1      -7.771  -0.103   0.514  0.00  0.00    +0.067 C 
ENDBRANCH  20  23
ENDBRANCH   3  19
TORSDOF 4
