REMARK  Name = ZINC15070430
REMARK  10 active torsions:
REMARK  status: ('A' for Active; 'I' for Inactive)
REMARK    1  A    between atoms: C_1  and  C_2
REMARK    2  A    between atoms: C_2  and  C_3
REMARK    3  A    between atoms: C_3  and  C_4
REMARK    4  A    between atoms: C_4  and  C_19
REMARK    5  A    between atoms: N_7  and  C_11
REMARK    6  A    between atoms: C_11  and  C_12
REMARK    7  A    between atoms: C_12  and  C_13
REMARK    8  A    between atoms: C_18  and  N_70
REMARK    9  A    between atoms: C_25  and  C_27
REMARK   10  A    between atoms: C_27  and  C_29
REMARK                            x       y       z     vdW  Elec       q    Type
REMARK                         _______ _______ _______ _____ _____    ______ ____
ROOT
ATOM      1  C   UNL     1       7.632   6.044   2.385  0.00  0.00    +0.115 C 
ATOM      2  C   UNL     1       7.623   7.557   2.289  0.00  0.00    +0.247 C 
ATOM      3  O   UNL     1       7.909   8.231   1.323  0.00  0.00    -0.273 OA
ATOM      4  N   UNL     1       7.233   7.997   3.502  0.00  0.00    -0.224 N 
ATOM      5  C   UNL     1       6.996   6.983   4.342  0.00  0.00    +0.309 C 
ATOM      6  O   UNL     1       6.632   7.130   5.492  0.00  0.00    -0.252 OA
ATOM      7  N   UNL     1       7.205   5.783   3.771  0.00  0.00    -0.285 N 
ATOM      8  H   UNL     1       7.096   4.915   4.190  0.00  0.00    +0.151 HD
ENDROOT
BRANCH   1   9
ATOM      9  C   UNL     1       6.639   5.436   1.392  0.00  0.00    +0.024 C 
ATOM     10  C   UNL     1       5.253   6.042   1.622  0.00  0.00    +0.025 C 
ATOM     11  C   UNL     1       4.269   5.456   0.604  0.00  0.00    +0.108 C 
ATOM     12  N   UNL     1       4.310   3.990   0.695  0.00  0.00    -0.295 N 
ATOM     13  C   UNL     1       5.609   3.312   0.585  0.00  0.00    +0.108 C 
ATOM     14  C   UNL     1       6.576   3.921   1.598  0.00  0.00    +0.025 C 
ATOM     15  C   UNL     1       3.179   3.282   0.883  0.00  0.00    +0.287 C 
ATOM     16  O   UNL     1       2.105   3.848   0.900  0.00  0.00    -0.266 OA
BRANCH  15  17
ATOM     17  C   UNL     1       3.247   1.803   1.070  0.00  0.00    +0.247 C 
ATOM     18  O   UNL     1       3.286   1.070   0.103  0.00  0.00    -0.282 OA
BRANCH  17  19
ATOM     19  C   UNL     1       3.266   1.232   2.429  0.00  0.00    +0.027 A 
ATOM     20  C   UNL     1       3.338   2.073   3.544  0.00  0.00    +0.012 A 
ATOM     21  C   UNL     1       3.356   1.532   4.812  0.00  0.00    +0.001 A 
ATOM     22  C   UNL     1       3.304   0.159   4.983  0.00  0.00    +0.000 A 
ATOM     23  C   UNL     1       3.233  -0.681   3.884  0.00  0.00    +0.001 A 
ATOM     24  C   UNL     1       3.214  -0.155   2.610  0.00  0.00    +0.012 A 
ENDBRANCH  17  19
ENDBRANCH  15  17
ENDBRANCH   1   9
BRANCH   1  25
ATOM     25  C   UNL     1       9.039   5.494   2.143  0.00  0.00    +0.035 C 
BRANCH  25  27
ATOM     26  C   UNL     1      11.393   5.470   2.981  0.00  0.00    +0.004 C 
ATOM     27  C   UNL     1       9.986   6.020   3.223  0.00  0.00    -0.001 C 
ENDBRANCH  25  27
ENDBRANCH   1  25
BRANCH   4  28
ATOM     28  C   UNL     1       7.086   9.411   3.856  0.00  0.00    +0.116 C 
BRANCH  28  29
ATOM     29  C   UNL     1       8.412   9.937   4.410  0.00  0.00    +0.004 C 
BRANCH  29  30
ATOM     30  C   UNL     1       8.221  11.369   4.914  0.00  0.00    -0.068 C 
ATOM     31  C   UNL     1       9.547  11.917   5.499  0.00  0.00    -0.017 C 
ATOM     32  C   UNL     1       9.346  13.448   5.350  0.00  0.00    -0.020 C 
ATOM     33  C   UNL     1       8.565  13.569   4.025  0.00  0.00    -0.079 C 
ATOM     34  C   UNL     1       6.451  12.442   3.641  0.00  0.00    -0.096 C 
ATOM     35  N   UNL     1       7.921  12.268   3.782  0.00  0.00    +0.380 N 
ATOM     36  H   UNL     1       8.294  11.861   2.916  0.00  0.00    -0.082 HD
ENDBRANCH  29  30
ENDBRANCH  28  29
ENDBRANCH   4  28
TORSDOF 8
