REMARK  Name = ZINC12537061
REMARK  6 active torsions:
REMARK  status: ('A' for Active; 'I' for Inactive)
REMARK    1  A    between atoms: C_3  and  C_6
REMARK    2  A    between atoms: C_6  and  N_8
REMARK    3  A    between atoms: C_6  and  P_19
REMARK    4  A    between atoms: N_8  and  C_9
REMARK    5  A    between atoms: C_12  and  O_15
REMARK    6  A    between atoms: O_15  and  C_16
REMARK                            x       y       z     vdW  Elec       q    Type
REMARK                         _______ _______ _______ _____ _____    ______ ____
ROOT
ATOM      1  N   UNL     1      -2.292   1.710   1.570  0.00  0.00    -0.327 N 
ATOM      2  H   UNL     1      -2.903   2.307   2.030  0.00  0.00    +0.147 HD
ENDROOT
BRANCH   1   3
ATOM      3  C   UNL     1      -2.792   0.685   0.760  0.00  0.00    +0.028 A 
ATOM      4  C   UNL     1      -1.927  -0.063  -0.028  0.00  0.00    +0.026 A 
ATOM      5  C   UNL     1      -2.422  -1.078  -0.824  0.00  0.00    +0.047 A 
ATOM      6  C   UNL     1      -3.783  -1.344  -0.844  0.00  0.00    +0.127 A 
ATOM      7  C   UNL     1      -4.648  -0.594  -0.061  0.00  0.00    +0.047 A 
ATOM      8  C   UNL     1      -4.155   0.418   0.739  0.00  0.00    +0.026 A 
BRANCH   6   9
ATOM      9  O   UNL     1      -4.270  -2.340  -1.631  0.00  0.00    -0.434 OA
BRANCH   9  10
ATOM     10  C   UNL     1      -3.322  -3.072  -2.411  0.00  0.00    +0.541 C 
ATOM     11  F   UNL     1      -2.657  -2.198  -3.278  0.00  0.00    -0.166 F 
ATOM     12  F   UNL     1      -2.393  -3.683  -1.562  0.00  0.00    -0.166 F 
ENDBRANCH   9  10
ENDBRANCH   6   9
ENDBRANCH   1   3
BRANCH   1  13
ATOM     13  C   UNL     1      -0.845   1.883   1.723  0.00  0.00    +0.227 C 
BRANCH  13  16
ATOM     14  C   UNL     1       0.646   2.139   5.219  0.00  0.00    +0.008 A 
ATOM     15  C   UNL     1       0.557   1.765   3.891  0.00  0.00    +0.013 A 
ATOM     16  C   UNL     1      -0.522   2.155   3.169  0.00  0.00    +0.022 A 
ATOM     17  S   UNL     1      -1.464   3.070   4.379  0.00  0.00    -0.099 S 
ATOM     18  C   UNL     1      -0.353   2.877   5.762  0.00  0.00    +0.045 A 
ENDBRANCH  13  16
BRANCH  13  19
ATOM     19  P   UNL     1      -0.289   3.286   0.701  0.00  0.00    +0.411 P 
ATOM     20  O   UNL     1      -0.547   2.990  -0.726  0.00  0.00    -0.252 OA
ATOM     21  O   UNL     1       1.288   3.521   0.923  0.00  0.00    -0.137 OA
ATOM     22  O   UNL     1      -1.095   4.613   1.127  0.00  0.00    -0.137 OA
ENDBRANCH  13  19
ENDBRANCH   1  13
TORSDOF 6
