REMARK  Name = ZINC34750186
REMARK  12 active torsions:
REMARK  status: ('A' for Active; 'I' for Inactive)
REMARK    1  A    between atoms: C_1  and  C_2
REMARK    2  A    between atoms: C_2  and  C_3
REMARK    3  A    between atoms: C_3  and  N_4
REMARK    4  A    between atoms: C_17  and  S_19
REMARK    5  A    between atoms: S_19  and  C_20
REMARK    6  A    between atoms: C_20  and  C_21
REMARK    7  A    between atoms: N_23  and  C_24
REMARK    8  A    between atoms: N_23  and  C_26
REMARK    9  A    between atoms: C_24  and  C_25
REMARK   10  A    between atoms: C_26  and  C_27
REMARK   11  A    between atoms: C_30  and  C_32
REMARK   12  A    between atoms: C_30  and  C_33
REMARK                            x       y       z     vdW  Elec       q    Type
REMARK                         _______ _______ _______ _____ _____    ______ ____
ROOT
ATOM      1  N   UNL     1       0.135  -2.644  -0.253  0.00  0.00    +0.382 N 
ATOM      2  C   UNL     1      -0.139  -4.076  -0.083  0.00  0.00    -0.060 C 
ATOM      3  C   UNL     1       0.448  -4.852  -1.266  0.00  0.00    +0.088 C 
ATOM      4  N   UNL     1       1.875  -4.517  -1.382  0.00  0.00    -0.318 N 
ATOM      5  C   UNL     1       2.255  -3.095  -1.394  0.00  0.00    +0.088 C 
ATOM      6  C   UNL     1       1.583  -2.403  -0.204  0.00  0.00    -0.060 C 
ATOM      7  C   UNL     1       2.834  -5.509  -1.475  0.00  0.00    +0.134 A 
ATOM      8  C   UNL     1       3.146  -6.091  -2.736  0.00  0.00    +0.051 A 
ATOM      9  C   UNL     1       2.578  -5.793  -4.050  0.00  0.00    -0.020 A 
ATOM     10  C   UNL     1       3.054  -6.496  -5.099  0.00  0.00    +0.021 A 
ATOM     11  S   UNL     1       4.271  -7.583  -4.413  0.00  0.00    -0.071 S 
ATOM     12  C   UNL     1       4.138  -7.092  -2.713  0.00  0.00    +0.115 A 
ATOM     13  N   UNL     1       4.728  -7.456  -1.591  0.00  0.00    -0.214 NA
ATOM     14  C   UNL     1       4.396  -6.879  -0.444  0.00  0.00    +0.191 A 
ATOM     15  N   UNL     1       3.473  -5.924  -0.395  0.00  0.00    -0.206 NA
ATOM     16  C   UNL     1       2.620  -6.361  -6.526  0.00  0.00    +0.203 C 
ATOM     17  O   UNL     1       1.403  -5.597  -6.548  0.00  0.00    -0.368 OA
ATOM     18  C   UNL     1       1.469  -4.399  -5.769  0.00  0.00    +0.068 C 
ATOM     19  C   UNL     1       1.494  -4.742  -4.276  0.00  0.00    +0.071 C 
ATOM     20  C   UNL     1       2.738  -3.626  -6.133  0.00  0.00    +0.041 C 
ATOM     21  C   UNL     1       0.245  -3.531  -6.069  0.00  0.00    +0.041 C 
ATOM     22  H   UNL     1      -0.226  -2.338  -1.144  0.00  0.00    -0.082 HD
ENDROOT
BRANCH   1  23
ATOM     23  C   UNL     1      -0.522  -1.890   0.824  0.00  0.00    -0.079 C 
BRANCH  23  25
ATOM     24  C   UNL     1      -2.723  -1.255   1.820  0.00  0.00    +0.002 C 
ATOM     25  C   UNL     1      -2.039  -2.040   0.699  0.00  0.00    -0.022 C 
ENDBRANCH  23  25
ENDBRANCH   1  23
BRANCH  14  26
ATOM     26  S   UNL     1       5.198  -7.382   1.042  0.00  0.00    -0.077 S 
BRANCH  26  27
ATOM     27  C   UNL     1       6.355  -8.670   0.501  0.00  0.00    +0.173 C 
BRANCH  27  28
ATOM     28  C   UNL     1       7.117  -9.194   1.692  0.00  0.00    +0.226 C 
ATOM     29  O   UNL     1       6.899  -8.743   2.796  0.00  0.00    -0.275 OA
ATOM     30  N   UNL     1       8.039 -10.163   1.529  0.00  0.00    -0.301 N 
BRANCH  30  31
ATOM     31  C   UNL     1       8.778 -10.672   2.686  0.00  0.00    +0.104 C 
ATOM     32  C   UNL     1       8.020 -11.851   3.298  0.00  0.00    +0.024 C 
ENDBRANCH  30  31
BRANCH  30  33
ATOM     33  C   UNL     1       8.301 -10.708   0.194  0.00  0.00    +0.104 C 
ATOM     34  C   UNL     1       9.409  -9.896  -0.479  0.00  0.00    +0.024 C 
ENDBRANCH  30  33
ENDBRANCH  27  28
ENDBRANCH  26  27
ENDBRANCH  14  26
TORSDOF 7
