REMARK  Name = ZINC46569258
REMARK  10 active torsions:
REMARK  status: ('A' for Active; 'I' for Inactive)
REMARK    1  A    between atoms: C_1  and  N_2
REMARK    2  A    between atoms: N_2  and  C_3
REMARK    3  A    between atoms: N_2  and  S_4
REMARK    4  A    between atoms: S_4  and  C_7
REMARK    5  A    between atoms: C_10  and  S_16
REMARK    6  A    between atoms: C_11  and  N_13
REMARK    7  A    between atoms: S_16  and  N_19
REMARK    8  A    between atoms: C_23  and  C_25
REMARK    9  A    between atoms: C_28  and  O_31
REMARK   10  A    between atoms: O_31  and  C_32
REMARK                            x       y       z     vdW  Elec       q    Type
REMARK                         _______ _______ _______ _____ _____    ______ ____
ROOT
ATOM      1  S   UNL     1       6.015  -2.115  -2.475  0.00  0.00    +0.064 S 
ATOM      2  O   UNL     1       6.060  -3.451  -2.957  0.00  0.00    -0.153 OA
ATOM      3  O   UNL     1       6.662  -1.041  -3.143  0.00  0.00    -0.153 OA
ENDROOT
BRANCH   1   7
ATOM      4  C   UNL     1       1.639  -0.996  -2.172  0.00  0.00    +0.108 A 
ATOM      5  C   UNL     1       2.471  -0.832  -1.081  0.00  0.00    +0.030 A 
ATOM      6  C   UNL     1       3.807  -1.174  -1.173  0.00  0.00    +0.033 A 
ATOM      7  C   UNL     1       4.311  -1.680  -2.357  0.00  0.00    +0.136 A 
ATOM      8  C   UNL     1       3.479  -1.845  -3.448  0.00  0.00    +0.154 A 
ATOM      9  C   UNL     1       2.141  -1.507  -3.354  0.00  0.00    +0.063 A 
BRANCH   4  10
ATOM     10  S   UNL     1      -0.064  -0.560  -2.055  0.00  0.00    +0.060 S 
ATOM     11  O   UNL     1      -0.510  -0.303  -3.380  0.00  0.00    -0.153 OA
ATOM     12  O   UNL     1      -0.166   0.405  -1.016  0.00  0.00    -0.153 OA
BRANCH  10  14
ATOM     13  C   UNL     1      -1.064  -2.138  -0.099  0.00  0.00    +0.131 C 
ATOM     14  N   UNL     1      -0.879  -1.904  -1.534  0.00  0.00    -0.183 NA
ATOM     15  C   UNL     1      -1.415  -2.859  -2.507  0.00  0.00    +0.131 C 
ENDBRANCH  10  14
ENDBRANCH   4  10
BRANCH   8  16
ATOM     16  N   UNL     1       4.018  -2.386  -4.715  0.00  0.00    +0.058 N 
ATOM     17  O   UNL     1       3.268  -2.664  -5.622  0.00  0.00    -0.126 OA
ATOM     18  O   UNL     1       5.209  -2.551  -4.844  0.00  0.00    -0.126 OA
ENDBRANCH   8  16
ENDBRANCH   1   7
BRANCH   1  19
ATOM     19  N   UNL     1       6.620  -2.147  -0.934  0.00  0.00    -0.169 NA
ATOM     20  C   UNL     1       7.159  -0.989  -0.198  0.00  0.00    +0.110 C 
ATOM     21  C   UNL     1       7.000  -1.361   1.298  0.00  0.00    +0.019 C 
ATOM     22  C   UNL     1       7.308  -2.882   1.275  0.00  0.00    +0.027 C 
ATOM     23  C   UNL     1       6.702  -3.335  -0.070  0.00  0.00    +0.110 C 
BRANCH  23  24
ATOM     24  C   UNL     1       7.592  -4.371  -0.707  0.00  0.00    -0.028 A 
ATOM     25  C   UNL     1       8.753  -3.983  -1.349  0.00  0.00    +0.009 A 
ATOM     26  C   UNL     1       9.570  -4.930  -1.934  0.00  0.00    +0.046 A 
ATOM     27  C   UNL     1       9.225  -6.273  -1.877  0.00  0.00    +0.120 A 
ATOM     28  C   UNL     1       8.059  -6.660  -1.233  0.00  0.00    +0.046 A 
ATOM     29  C   UNL     1       7.248  -5.708  -0.645  0.00  0.00    +0.009 A 
BRANCH  27  30
ATOM     30  O   UNL     1      10.027  -7.207  -2.453  0.00  0.00    -0.495 OA
ATOM     31  C   UNL     1       9.608  -8.570  -2.355  0.00  0.00    +0.277 C 
ENDBRANCH  27  30
ENDBRANCH  23  24
ENDBRANCH   1  19
TORSDOF 7
