REMARK  Name = ZINC36580007
REMARK  11 active torsions:
REMARK  status: ('A' for Active; 'I' for Inactive)
REMARK    1  A    between atoms: C_1  and  C_2
REMARK    2  A    between atoms: C_2  and  C_3
REMARK    3  A    between atoms: C_3  and  C_5
REMARK    4  A    between atoms: C_3  and  C_6
REMARK    5  A    between atoms: C_6  and  C_8
REMARK    6  A    between atoms: C_6  and  N_12
REMARK    7  A    between atoms: C_8  and  O_10
REMARK    8  A    between atoms: O_10  and  C_11
REMARK    9  A    between atoms: C_24  and  C_26
REMARK   10  A    between atoms: C_31  and  O_32
REMARK   11  A    between atoms: O_32  and  C_33
REMARK                            x       y       z     vdW  Elec       q    Type
REMARK                         _______ _______ _______ _____ _____    ______ ____
ROOT
ATOM      1  N   UNL     1       2.135  -4.063  -1.438  0.00  0.00    -0.286 N 
ATOM      2  C   UNL     1       2.401  -3.426  -2.595  0.00  0.00    +0.304 C 
ATOM      3  O   UNL     1       1.857  -2.368  -2.847  0.00  0.00    -0.253 OA
ATOM      4  N   UNL     1       3.271  -3.962  -3.474  0.00  0.00    -0.273 N 
ATOM      5  C   UNL     1       3.664  -3.229  -4.688  0.00  0.00    +0.116 C 
ATOM      6  C   UNL     1       5.163  -2.912  -4.619  0.00  0.00    +0.074 C 
ATOM      7  C   UNL     1       5.899  -4.145  -4.166  0.00  0.00    +0.040 A 
ATOM      8  C   UNL     1       5.328  -5.203  -3.552  0.00  0.00    +0.062 A 
ATOM      9  N   UNL     1       6.282  -6.100  -3.295  0.00  0.00    -0.348 N 
ATOM     10  C   UNL     1       7.428  -5.642  -3.729  0.00  0.00    +0.171 A 
ATOM     11  N   UNL     1       7.228  -4.423  -4.280  0.00  0.00    -0.349 N 
ATOM     12  H   UNL     1       7.904  -3.854  -4.681  0.00  0.00    +0.166 HD
ATOM     13  C   UNL     1       3.857  -5.294  -3.240  0.00  0.00    +0.160 C 
ATOM     14  H   UNL     1       2.513  -4.940  -1.269  0.00  0.00    +0.151 HD
ATOM     15  H   UNL     1       6.148  -6.955  -2.857  0.00  0.00    +0.167 HD
ENDROOT
BRANCH  13  16
ATOM     16  C   UNL     1       3.207  -6.307  -4.147  0.00  0.00    +0.021 A 
ATOM     17  C   UNL     1       3.987  -7.154  -4.910  0.00  0.00    +0.009 A 
ATOM     18  C   UNL     1       3.392  -8.083  -5.742  0.00  0.00    +0.001 A 
ATOM     19  C   UNL     1       2.013  -8.167  -5.814  0.00  0.00    +0.004 A 
ATOM     20  C   UNL     1       1.228  -7.322  -5.054  0.00  0.00    +0.046 A 
ATOM     21  C   UNL     1       1.824  -6.393  -4.213  0.00  0.00    +0.135 A 
BRANCH  21  22
ATOM     22  O   UNL     1       1.054  -5.564  -3.460  0.00  0.00    -0.405 OA
BRANCH  22  23
ATOM     23  C   UNL     1      -0.363  -5.709  -3.579  0.00  0.00    +0.575 C 
ATOM     24  F   UNL     1      -0.732  -7.007  -3.208  0.00  0.00    -0.133 F 
ATOM     25  F   UNL     1      -0.998  -4.786  -2.741  0.00  0.00    -0.133 F 
ATOM     26  F   UNL     1      -0.746  -5.477  -4.904  0.00  0.00    -0.133 F 
ENDBRANCH  22  23
ENDBRANCH  21  22
ENDBRANCH  13  16
BRANCH   1  27
ATOM     27  C   UNL     1       1.275  -3.430  -0.435  0.00  0.00    +0.186 C 
BRANCH  27  28
ATOM     28  C   UNL     1       0.631  -4.508   0.439  0.00  0.00    +0.017 C 
ATOM     29  C   UNL     1       1.717  -5.234   1.236  0.00  0.00    +0.010 C 
BRANCH  28  31
ATOM     30  C   UNL     1      -1.096  -4.946   2.191  0.00  0.00    +0.004 C 
ATOM     31  C   UNL     1      -0.362  -3.858   1.404  0.00  0.00    +0.002 C 
ENDBRANCH  28  31
ENDBRANCH  27  28
BRANCH  27  32
ATOM     32  C   UNL     1       2.101  -2.511   0.428  0.00  0.00    +0.328 C 
ATOM     33  O   UNL     1       3.287  -2.397   0.226  0.00  0.00    -0.249 OA
BRANCH  32  34
ATOM     34  O   UNL     1       1.520  -1.820   1.421  0.00  0.00    -0.467 OA
ATOM     35  C   UNL     1       2.363  -0.968   2.199  0.00  0.00    +0.280 C 
ENDBRANCH  32  34
ENDBRANCH  27  32
ENDBRANCH   1  27
TORSDOF 8
