REMARK  Name = ZINC39605602
REMARK  8 active torsions:
REMARK  status: ('A' for Active; 'I' for Inactive)
REMARK    1  A    between atoms: C_1  and  C_2
REMARK    2  A    between atoms: N_5  and  C_7
REMARK    3  A    between atoms: C_20  and  C_22
REMARK    4  A    between atoms: C_25  and  O_30
REMARK    5  A    between atoms: C_26  and  O_28
REMARK    6  A    between atoms: O_28  and  C_29
REMARK    7  A    between atoms: O_30  and  C_31
REMARK    8  A    between atoms: C_31  and  C_32
REMARK                            x       y       z     vdW  Elec       q    Type
REMARK                         _______ _______ _______ _____ _____    ______ ____
ROOT
ATOM      1  C   UNL     1       0.255   1.493  -0.007  0.00  0.00    +0.068 C 
ATOM      2  C   UNL     1       0.126  -0.008  -0.005  0.00  0.00    +0.066 A 
ATOM      3  C   UNL     1      -0.101  -0.806  -1.116  0.00  0.00    +0.023 A 
ATOM      4  C   UNL     1      -0.148  -2.110  -0.697  0.00  0.00    +0.131 A 
ATOM      5  N   UNL     1       0.033  -2.117   0.631  0.00  0.00    -0.209 N 
ATOM      6  N   UNL     1       0.213  -0.788   1.047  0.00  0.00    -0.171 NA
ATOM      7  N   UNL     1      -0.344  -3.164  -1.589  0.00  0.00    -0.270 N 
ATOM      8  C   UNL     1      -0.286  -2.897  -2.911  0.00  0.00    +0.219 C 
ATOM      9  O   UNL     1      -0.637  -3.750  -3.699  0.00  0.00    -0.275 OA
ATOM     10  C   UNL     1       0.200  -1.576  -3.438  0.00  0.00    +0.109 C 
ATOM     11  C   UNL     1      -0.282  -0.416  -2.561  0.00  0.00    +0.063 C 
ATOM     12  H   UNL     1      -0.517  -4.063  -1.269  0.00  0.00    +0.156 HD
ENDROOT
BRANCH   5  13
ATOM     13  C   UNL     1       0.046  -3.301   1.494  0.00  0.00    +0.303 C 
ATOM     14  N   UNL     1      -1.040  -3.219   2.478  0.00  0.00    -0.345 N 
ATOM     15  C   UNL     1      -0.497  -3.222   3.661  0.00  0.00    +0.062 A 
ATOM     16  C   UNL     1      -1.058  -3.160   5.018  0.00  0.00    +0.027 A 
ATOM     17  C   UNL     1      -0.230  -3.181   6.081  0.00  0.00    +0.002 A 
ATOM     18  C   UNL     1       1.168  -3.259   5.952  0.00  0.00    +0.002 A 
ATOM     19  C   UNL     1       1.785  -3.320   4.755  0.00  0.00    +0.027 A 
ATOM     20  C   UNL     1       0.983  -3.305   3.524  0.00  0.00    +0.062 A 
ATOM     21  N   UNL     1       1.297  -3.352   2.262  0.00  0.00    -0.345 N 
ATOM     22  H   UNL     1      -1.989  -3.172   2.283  0.00  0.00    +0.163 HD
ATOM     23  H   UNL     1       2.193  -3.409   1.895  0.00  0.00    +0.163 HD
ENDBRANCH   5  13
BRANCH  11  24
ATOM     24  C   UNL     1       0.529   0.818  -2.860  0.00  0.00    -0.036 A 
ATOM     25  C   UNL     1       1.902   0.796  -2.697  0.00  0.00    +0.008 A 
ATOM     26  C   UNL     1       2.651   1.926  -2.970  0.00  0.00    +0.050 A 
ATOM     27  C   UNL     1       2.026   3.083  -3.408  0.00  0.00    +0.163 A 
ATOM     28  C   UNL     1       0.645   3.104  -3.572  0.00  0.00    +0.162 A 
ATOM     29  C   UNL     1      -0.100   1.967  -3.301  0.00  0.00    +0.053 A 
BRANCH  28  30
ATOM     30  O   UNL     1       0.027   4.237  -4.001  0.00  0.00    -0.491 OA
ATOM     31  C   UNL     1      -1.394   4.185  -4.147  0.00  0.00    +0.277 C 
ENDBRANCH  28  30
BRANCH  27  32
ATOM     32  O   UNL     1       2.762   4.195  -3.676  0.00  0.00    -0.479 OA
BRANCH  32  33
ATOM     33  C   UNL     1       4.175   4.100  -3.484  0.00  0.00    +0.324 C 
BRANCH  33  34
ATOM     34  C   UNL     1       4.818   5.418  -3.828  0.00  0.00    +0.248 C 
ATOM     35  O   UNL     1       4.134   6.348  -4.201  0.00  0.00    -0.272 OA
ATOM     36  N   UNL     1       6.153   5.565  -3.722  0.00  0.00    -0.327 N 
ATOM     37  H   UNL     1       6.701   4.822  -3.424  0.00  0.00    +0.145 HD
ATOM     38  H   UNL     1       6.567   6.414  -3.943  0.00  0.00    +0.145 HD
ENDBRANCH  33  34
ENDBRANCH  32  33
ENDBRANCH  27  32
ENDBRANCH  11  24
TORSDOF 6
