REMARK  Name = ZINC48178196
REMARK  9 active torsions:
REMARK  status: ('A' for Active; 'I' for Inactive)
REMARK    1  A    between atoms: C_1  and  C_2
REMARK    2  A    between atoms: C_2  and  C_3
REMARK    3  A    between atoms: C_2  and  C_4
REMARK    4  A    between atoms: C_2  and  N_19
REMARK    5  A    between atoms: C_4  and  N_5
REMARK    6  A    between atoms: C_6  and  C_8
REMARK    7  A    between atoms: C_8  and  N_9
REMARK    8  A    between atoms: N_9  and  C_10
REMARK    9  A    between atoms: N_9  and  C_11
REMARK                            x       y       z     vdW  Elec       q    Type
REMARK                         _______ _______ _______ _____ _____    ______ ____
ROOT
ATOM      1  N   UNL     1      -1.390  -1.964  -0.383  0.00  0.00    -0.318 N 
ATOM      2  C   UNL     1      -2.527  -2.627  -0.672  0.00  0.00    +0.196 C 
ATOM      3  O   UNL     1      -3.574  -2.023  -0.768  0.00  0.00    -0.278 OA
ATOM      4  H   UNL     1      -0.553  -2.447  -0.306  0.00  0.00    +0.149 HD
ENDROOT
BRANCH   1   5
ATOM      5  C   UNL     1      -1.419  -0.512  -0.186  0.00  0.00    +0.091 C 
BRANCH   5   7
ATOM      6  C   UNL     1       0.812  -0.206  -1.269  0.00  0.00    -0.008 C 
ATOM      7  C   UNL     1       0.008   0.003   0.015  0.00  0.00    -0.055 C 
ATOM      8  C   UNL     1      -0.032   1.495   0.354  0.00  0.00    -0.008 C 
BRANCH   7   9
ATOM      9  N   UNL     1       0.643  -0.732   1.117  0.00  0.00    +0.384 N 
ATOM     10  C   UNL     1      -0.155  -0.569   2.337  0.00  0.00    -0.078 C 
ATOM     11  C   UNL     1       0.459  -1.399   3.467  0.00  0.00    -0.019 C 
ATOM     12  C   UNL     1       1.891  -0.922   3.724  0.00  0.00    -0.004 C 
ATOM     13  C   UNL     1       2.695  -1.027   2.425  0.00  0.00    -0.019 C 
ATOM     14  C   UNL     1       1.998  -0.211   1.333  0.00  0.00    -0.078 C 
ATOM     15  H   UNL     1       0.695  -1.712   0.880  0.00  0.00    -0.081 HD
ENDBRANCH   7   9
ENDBRANCH   5   7
ENDBRANCH   1   5
BRANCH   2  16
ATOM     16  C   UNL     1      -2.498  -4.120  -0.875  0.00  0.00    +0.019 C 
BRANCH  16  17
ATOM     17  N   UNL     1      -3.853  -4.600  -1.176  0.00  0.00    +0.387 N 
ATOM     18  C   UNL     1      -4.296  -4.042  -2.461  0.00  0.00    -0.095 C 
ATOM     19  H   UNL     1      -4.484  -4.306  -0.446  0.00  0.00    -0.081 HD
BRANCH  17  20
ATOM     20  C   UNL     1      -3.846  -6.067  -1.256  0.00  0.00    -0.046 C 
ATOM     21  C   UNL     1      -5.269  -6.578  -1.537  0.00  0.00    +0.009 C 
ATOM     22  C   UNL     1      -5.335  -8.107  -1.307  0.00  0.00    +0.164 C 
ATOM     23  S   UNL     1      -4.027  -8.383  -0.044  0.00  0.00    -0.033 S 
ATOM     24  O   UNL     1      -3.017  -9.214  -0.600  0.00  0.00    -0.174 OA
ATOM     25  O   UNL     1      -4.639  -8.751   1.184  0.00  0.00    -0.174 OA
ATOM     26  C   UNL     1      -3.377  -6.665   0.101  0.00  0.00    +0.151 C 
ENDBRANCH  17  20
ENDBRANCH  16  17
ENDBRANCH   2  16
TORSDOF 6
