REMARK  Name = ZINC39710539
REMARK  13 active torsions:
REMARK  status: ('A' for Active; 'I' for Inactive)
REMARK    1  A    between atoms: C_1  and  C_2
REMARK    2  A    between atoms: C_2  and  C_3
REMARK    3  A    between atoms: C_10  and  C_15
REMARK    4  A    between atoms: C_15  and  C_17
REMARK    5  A    between atoms: C_15  and  N_27
REMARK    6  A    between atoms: N_22  and  C_23
REMARK    7  A    between atoms: C_23  and  C_24
REMARK    8  A    between atoms: C_23  and  C_25
REMARK    9  A    between atoms: C_23  and  C_26
REMARK   10  A    between atoms: N_27  and  C_28
REMARK   11  A    between atoms: N_27  and  C_34
REMARK   12  A    between atoms: C_28  and  C_29
REMARK   13  A    between atoms: C_34  and  C_35
REMARK                            x       y       z     vdW  Elec       q    Type
REMARK                         _______ _______ _______ _____ _____    ______ ____
ROOT
ATOM      1  C   UNL     1       1.103  -1.438   6.685  0.00  0.00    -0.009 C 
ENDROOT
BRANCH   1   9
ATOM      2  C   UNL     1       0.810  -1.789   0.868  0.00  0.00    -0.047 A 
ATOM      3  C   UNL     1       2.191  -1.957   0.760  0.00  0.00    +0.005 A 
ATOM      4  C   UNL     1       2.982  -2.223   1.832  0.00  0.00    +0.024 A 
ATOM      5  C   UNL     1       2.426  -2.341   3.119  0.00  0.00    +0.040 A 
ATOM      6  N   UNL     1       3.212  -2.601   4.163  0.00  0.00    -0.285 N 
ATOM      7  C   UNL     1       2.756  -2.725   5.398  0.00  0.00    +0.223 C 
ATOM      8  O   UNL     1       3.523  -2.963   6.312  0.00  0.00    -0.275 OA
ATOM      9  C   UNL     1       1.276  -2.569   5.670  0.00  0.00    +0.088 C 
ATOM     10  C   UNL     1       0.378  -2.272   4.486  0.00  0.00    -0.006 C 
ATOM     11  C   UNL     1       0.970  -2.168   3.262  0.00  0.00    -0.007 A 
ATOM     12  C   UNL     1       0.178  -1.878   2.067  0.00  0.00    +0.013 A 
ATOM     13  H   UNL     1       4.165  -2.705   4.010  0.00  0.00    +0.155 HD
BRANCH   2  15
ATOM     14  C   UNL     1      -0.074   0.018  -0.583  0.00  0.00    +0.009 C 
ATOM     15  C   UNL     1       0.004  -1.496  -0.371  0.00  0.00    +0.032 C 
ENDBRANCH   2  15
ENDBRANCH   1   9
BRANCH   1  16
ATOM     16  C   UNL     1       1.744  -0.160   6.140  0.00  0.00    +0.205 C 
ATOM     17  N   UNL     1       3.209  -0.273   6.162  0.00  0.00    -0.152 NA
ATOM     18  N   UNL     1       3.666   0.607   6.895  0.00  0.00    -0.070 NA
ATOM     19  N   UNL     1       2.676   1.412   7.458  0.00  0.00    -0.179 N 
ATOM     20  N   UNL     1       1.445   0.986   7.025  0.00  0.00    -0.183 NA
ATOM     21  H   UNL     1       2.832   2.156   8.061  0.00  0.00    +0.191 HD
BRANCH  20  22
ATOM     22  C   UNL     1       0.746   2.049   6.290  0.00  0.00    +0.035 C 
ATOM     23  C   UNL     1      -0.539   1.486   5.680  0.00  0.00    +0.029 C 
ATOM     24  C   UNL     1       0.398   3.188   7.251  0.00  0.00    +0.029 C 
ATOM     25  C   UNL     1       1.650   2.579   5.176  0.00  0.00    +0.029 C 
ENDBRANCH  20  22
ENDBRANCH   1  16
BRANCH   1  26
ATOM     26  N   UNL     1       1.751  -1.810   7.950  0.00  0.00    +0.391 N 
ATOM     27  H   UNL     1       2.751  -1.848   7.817  0.00  0.00    -0.080 HD
BRANCH  26  28
ATOM     28  C   UNL     1       1.264  -3.128   8.380  0.00  0.00    -0.002 C 
BRANCH  28  29
ATOM     29  C   UNL     1      -0.234  -3.084   8.536  0.00  0.00    +0.089 A 
ATOM     30  C   UNL     1      -1.133  -3.455   7.607  0.00  0.00    +0.042 A 
ATOM     31  C   UNL     1      -2.413  -3.250   8.171  0.00  0.00    +0.041 A 
ATOM     32  C   UNL     1      -2.220  -2.765   9.411  0.00  0.00    +0.195 A 
ATOM     33  O   UNL     1      -0.898  -2.672   9.629  0.00  0.00    -0.470 OA
ENDBRANCH  28  29
ENDBRANCH  26  28
BRANCH  26  34
ATOM     34  C   UNL     1       1.431  -0.811   8.978  0.00  0.00    -0.046 C 
BRANCH  34  35
ATOM     35  C   UNL     1       2.142  -1.175  10.282  0.00  0.00    +0.102 C 
ATOM     36  C   UNL     1       1.793  -0.142  11.375  0.00  0.00    +0.032 C 
ATOM     37  C   UNL     1       3.149   0.029  12.113  0.00  0.00    +0.030 C 
ATOM     38  C   UNL     1       4.146  -0.138  10.938  0.00  0.00    +0.160 C 
ATOM     39  O   UNL     1       3.561  -1.140  10.088  0.00  0.00    -0.378 OA
ENDBRANCH  34  35
ENDBRANCH  26  34
ENDBRANCH   1  26
TORSDOF 9
