REMARK  Name = ZINC27667586
REMARK  12 active torsions:
REMARK  status: ('A' for Active; 'I' for Inactive)
REMARK    1  A    between atoms: C_1  and  C_2
REMARK    2  A    between atoms: C_5  and  S_8
REMARK    3  A    between atoms: S_8  and  N_11
REMARK    4  A    between atoms: N_11  and  C_12
REMARK    5  A    between atoms: N_11  and  C_13
REMARK    6  A    between atoms: C_13  and  C_14
REMARK    7  A    between atoms: N_16  and  C_17
REMARK    8  A    between atoms: C_17  and  C_18
REMARK    9  A    between atoms: C_18  and  C_20
REMARK   10  A    between atoms: C_18  and  N_28
REMARK   11  A    between atoms: C_23  and  O_26
REMARK   12  A    between atoms: O_26  and  C_27
REMARK                            x       y       z     vdW  Elec       q    Type
REMARK                         _______ _______ _______ _____ _____    ______ ____
ROOT
ATOM      1  C   UNL     1      -2.596   0.438   1.315  0.00  0.00    +0.229 C 
ATOM      2  O   UNL     1      -2.443  -0.373   0.427  0.00  0.00    -0.274 OA
ATOM      3  N   UNL     1      -2.132   1.695   1.167  0.00  0.00    -0.315 N 
ATOM      4  H   UNL     1      -2.275   2.433   1.970  0.00  0.00    +0.149 HD
ENDROOT
BRANCH   1   5
ATOM      5  C   UNL     1      -3.304   0.042   2.585  0.00  0.00    +0.204 C 
BRANCH   5   6
ATOM      6  N   UNL     1      -3.708  -1.364   2.500  0.00  0.00    -0.171 NA
ATOM      7  C   UNL     1      -2.761  -2.421   2.864  0.00  0.00    +0.132 C 
BRANCH   6   8
ATOM      8  S   UNL     1      -5.234  -1.758   1.992  0.00  0.00    +0.061 S 
ATOM      9  O   UNL     1      -5.520  -3.044   2.526  0.00  0.00    -0.153 OA
ATOM     10  O   UNL     1      -6.053  -0.627   2.252  0.00  0.00    -0.153 OA
BRANCH   8  15
ATOM     11  C   UNL     1      -5.014  -2.390  -4.004  0.00  0.00    +0.044 C 
ATOM     12  C   UNL     1      -5.069  -2.232  -2.506  0.00  0.00    -0.050 A 
ATOM     13  C   UNL     1      -4.838  -3.322  -1.688  0.00  0.00    +0.005 A 
ATOM     14  C   UNL     1      -4.888  -3.177  -0.314  0.00  0.00    +0.029 A 
ATOM     15  C   UNL     1      -5.170  -1.943   0.241  0.00  0.00    +0.105 A 
ATOM     16  C   UNL     1      -5.406  -0.854  -0.577  0.00  0.00    +0.029 A 
ATOM     17  C   UNL     1      -5.351  -0.998  -1.951  0.00  0.00    +0.005 A 
ENDBRANCH   8  15
ENDBRANCH   6   8
ENDBRANCH   5   6
ENDBRANCH   1   5
BRANCH   3  18
ATOM     18  C   UNL     1      -1.438   2.079  -0.065  0.00  0.00    +0.093 C 
BRANCH  18  19
ATOM     19  C   UNL     1      -1.143   3.580  -0.037  0.00  0.00    -0.020 C 
BRANCH  19  20
ATOM     20  N   UNL     1      -0.384   3.952  -1.239  0.00  0.00    +0.385 N 
ATOM     21  C   UNL     1       0.862   3.179  -1.334  0.00  0.00    -0.078 C 
ATOM     22  C   UNL     1       1.553   3.485  -2.665  0.00  0.00    -0.019 C 
ATOM     23  C   UNL     1       1.853   4.984  -2.745  0.00  0.00    -0.004 C 
ATOM     24  C   UNL     1       0.546   5.768  -2.595  0.00  0.00    -0.019 C 
ATOM     25  C   UNL     1      -0.116   5.396  -1.266  0.00  0.00    -0.078 C 
ATOM     26  H   UNL     1      -0.998   3.708  -2.118  0.00  0.00    -0.081 HD
ENDBRANCH  19  20
BRANCH  19  27
ATOM     27  C   UNL     1      -2.440   4.347  -0.006  0.00  0.00    -0.059 A 
ATOM     28  C   UNL     1      -3.151   4.548  -1.175  0.00  0.00    +0.005 A 
ATOM     29  C   UNL     1      -4.343   5.246  -1.148  0.00  0.00    +0.046 A 
ATOM     30  C   UNL     1      -4.821   5.755   0.051  0.00  0.00    +0.120 A 
ATOM     31  C   UNL     1      -4.103   5.556   1.221  0.00  0.00    +0.046 A 
ATOM     32  C   UNL     1      -2.914   4.852   1.190  0.00  0.00    +0.005 A 
BRANCH  30  33
ATOM     33  O   UNL     1      -5.990   6.447   0.079  0.00  0.00    -0.495 OA
ATOM     34  C   UNL     1      -6.676   6.612  -1.163  0.00  0.00    +0.277 C 
ENDBRANCH  30  33
ENDBRANCH  19  27
ENDBRANCH  18  19
ENDBRANCH   3  18
TORSDOF 9
