REMARK  Name = ZINC43216390
REMARK  11 active torsions:
REMARK  status: ('A' for Active; 'I' for Inactive)
REMARK    1  A    between atoms: C_1  and  C_2
REMARK    2  A    between atoms: C_2  and  C_3
REMARK    3  A    between atoms: C_2  and  C_4
REMARK    4  A    between atoms: C_14  and  C_32
REMARK    5  A    between atoms: C_18  and  C_19
REMARK    6  A    between atoms: C_18  and  C_20
REMARK    7  A    between atoms: C_20  and  N_21
REMARK    8  A    between atoms: C_22  and  C_24
REMARK    9  A    between atoms: C_27  and  C_29
REMARK   10  A    between atoms: C_29  and  C_30
REMARK   11  A    between atoms: C_30  and  N_31
REMARK                            x       y       z     vdW  Elec       q    Type
REMARK                         _______ _______ _______ _____ _____    ______ ____
ROOT
ATOM      1  C   UNL     1      -1.290  -0.368   0.054  0.00  0.00    -0.045 A 
ATOM      2  C   UNL     1      -2.143  -0.052   1.096  0.00  0.00    +0.004 A 
ATOM      3  C   UNL     1      -3.424  -0.567   1.108  0.00  0.00    +0.005 A 
ATOM      4  C   UNL     1      -3.857  -1.393   0.085  0.00  0.00    -0.038 A 
ATOM      5  C   UNL     1      -3.013  -1.713  -0.956  0.00  0.00    -0.043 A 
ATOM      6  C   UNL     1      -1.722  -1.192  -0.962  0.00  0.00    +0.007 A 
ATOM      7  C   UNL     1      -3.401  -2.602  -2.105  0.00  0.00    +0.036 C 
ATOM      8  C   UNL     1      -4.757  -3.277  -1.886  0.00  0.00    +0.009 C 
ATOM      9  C   UNL     1      -5.709  -2.249  -1.278  0.00  0.00    +0.007 C 
ATOM     10  C   UNL     1      -5.270  -1.936   0.140  0.00  0.00    -0.003 C 
ATOM     11  C   UNL     1      -6.201  -0.911   0.781  0.00  0.00    +0.011 C 
ATOM     12  C   UNL     1      -7.639  -1.431   0.740  0.00  0.00    +0.001 C 
ATOM     13  C   UNL     1      -8.080  -1.633  -0.703  0.00  0.00    +0.008 C 
ATOM     14  C   UNL     1      -7.168  -2.607  -1.451  0.00  0.00    -0.013 C 
ATOM     15  C   UNL     1      -7.523  -2.484  -2.953  0.00  0.00    +0.013 C 
ATOM     16  C   UNL     1      -5.226  -3.183   1.024  0.00  0.00    +0.016 C 
ENDROOT
BRANCH   1  18
ATOM     17  C   UNL     1       0.051   1.718   0.009  0.00  0.00    +0.012 C 
ATOM     18  C   UNL     1       0.110   0.189   0.031  0.00  0.00    +0.013 C 
ATOM     19  C   UNL     1       0.864  -0.274   1.279  0.00  0.00    +0.012 C 
ENDBRANCH   1  18
BRANCH  14  20
ATOM     20  C   UNL     1      -7.474  -4.044  -1.028  0.00  0.00    +0.111 C 
BRANCH  20  21
ATOM     21  N   UNL     1      -8.869  -4.359  -1.345  0.00  0.00    -0.309 N 
ATOM     22  C   UNL     1      -9.367  -5.579  -1.059  0.00  0.00    +0.266 C 
ATOM     23  O   UNL     1      -8.657  -6.418  -0.538  0.00  0.00    -0.268 OA
ATOM     24  H   UNL     1      -9.435  -3.690  -1.761  0.00  0.00    +0.149 HD
BRANCH  22  25
ATOM     25  C   UNL     1     -10.771  -5.895  -1.378  0.00  0.00    +0.163 A 
ATOM     26  C   UNL     1     -11.407  -7.075  -1.142  0.00  0.00    +0.230 A 
ATOM     27  O   UNL     1     -12.667  -6.935  -1.583  0.00  0.00    -0.447 OA
ATOM     28  C   UNL     1     -12.803  -5.697  -2.078  0.00  0.00    +0.194 A 
ATOM     29  N   UNL     1     -11.676  -5.061  -1.957  0.00  0.00    -0.209 NA
BRANCH  28  30
ATOM     30  C   UNL     1     -14.065  -5.130  -2.677  0.00  0.00    +0.076 C 
BRANCH  30  31
ATOM     31  C   UNL     1     -14.089  -5.415  -4.180  0.00  0.00    -0.077 C 
BRANCH  31  32
ATOM     32  N   UNL     1     -15.319  -4.862  -4.763  0.00  0.00    +0.378 N 
ATOM     33  H   UNL     1     -16.121  -5.292  -4.326  0.00  0.00    -0.090 HD
ATOM     34  H   UNL     1     -15.346  -3.866  -4.609  0.00  0.00    -0.090 HD
ATOM     35  H   UNL     1     -15.335  -5.050  -5.754  0.00  0.00    -0.090 HD
ENDBRANCH  31  32
ENDBRANCH  30  31
ENDBRANCH  28  30
ENDBRANCH  22  25
ENDBRANCH  20  21
ENDBRANCH  14  20
TORSDOF 7
