REMARK  Name = ZINC31983175
REMARK  17 active torsions:
REMARK  status: ('A' for Active; 'I' for Inactive)
REMARK    1  A    between atoms: C_1  and  C_2
REMARK    2  A    between atoms: C_2  and  N_3
REMARK    3  A    between atoms: N_3  and  C_4
REMARK    4  A    between atoms: N_3  and  C_6
REMARK    5  A    between atoms: C_4  and  C_5
REMARK    6  A    between atoms: C_6  and  C_7
REMARK    7  A    between atoms: C_7  and  S_8
REMARK    8  A    between atoms: S_8  and  C_9
REMARK    9  A    between atoms: C_9  and  C_10
REMARK   10  A    between atoms: C_10  and  O_12
REMARK   11  A    between atoms: O_12  and  C_13
REMARK   12  A    between atoms: C_16  and  C_37
REMARK   13  A    between atoms: C_16  and  C_38
REMARK   14  A    between atoms: C_17  and  O_36
REMARK   15  A    between atoms: C_19  and  C_35
REMARK   16  A    between atoms: C_24  and  C_34
REMARK   17  A    between atoms: C_26  and  C_33
REMARK                            x       y       z     vdW  Elec       q    Type
REMARK                         _______ _______ _______ _____ _____    ______ ____
ROOT
ATOM      1  C   UNL     1       0.419  -0.229  -1.381  0.00  0.00    +0.184 C 
ATOM      2  C   UNL     1      -0.967  -0.239  -2.081  0.00  0.00    +0.058 C 
ATOM      3  C   UNL     1      -1.907   0.875  -1.965  0.00  0.00    +0.015 C 
ATOM      4  C   UNL     1      -2.405   1.805  -0.879  0.00  0.00    +0.128 C 
ATOM      5  C   UNL     1      -2.743   1.407   0.541  0.00  0.00    +0.022 C 
ATOM      6  C   UNL     1      -2.012   0.303   1.267  0.00  0.00    -0.014 C 
ATOM      7  C   UNL     1      -1.089   0.620   2.440  0.00  0.00    +0.008 C 
ATOM      8  C   UNL     1       0.185  -0.210   2.525  0.00  0.00    +0.004 C 
ATOM      9  C   UNL     1       1.049  -0.217   1.248  0.00  0.00    -0.004 C 
ATOM     10  C   UNL     1       0.107  -0.082   0.098  0.00  0.00    +0.018 C 
ATOM     11  C   UNL     1      -1.261  -0.650   0.356  0.00  0.00    +0.071 C 
ATOM     12  C   UNL     1      -1.273  -1.989   1.067  0.00  0.00    +0.138 C 
ATOM     13  O   UNL     1      -0.423  -2.837   1.098  0.00  0.00    -0.297 OA
ATOM     14  C   UNL     1      -2.653  -2.057   1.705  0.00  0.00    +0.075 C 
ATOM     15  C   UNL     1      -3.118  -0.605   1.911  0.00  0.00    +0.015 C 
ATOM     16  C   UNL     1       0.075   1.442   0.122  0.00  0.00    +0.016 C 
ATOM     17  C   UNL     1       1.958  -1.433   1.136  0.00  0.00    +0.008 C 
ATOM     18  C   UNL     1      -2.848   2.659   1.423  0.00  0.00    +0.011 C 
ATOM     19  C   UNL     1      -1.443   1.856  -3.086  0.00  0.00    +0.018 C 
ENDROOT
BRANCH   4  20
ATOM     20  O   UNL     1      -3.638   2.381  -1.417  0.00  0.00    -0.391 OA
ATOM     21  H   UNL     1      -4.214   3.104  -0.821  0.00  0.00    +0.210 HD
ENDBRANCH   4  20
BRANCH   3  22
ATOM     22  C   UNL     1      -3.203   0.324  -2.582  0.00  0.00    -0.025 C 
ATOM     23  C   UNL     1      -3.461   0.523  -3.851  0.00  0.00    +0.004 C 
ENDBRANCH   3  22
BRANCH   1  24
ATOM     24  O   UNL     1       1.266   0.867  -1.832  0.00  0.00    -0.460 OA
BRANCH  24  25
ATOM     25  C   UNL     1       2.110   0.608  -2.843  0.00  0.00    +0.317 C 
ATOM     26  O   UNL     1       2.143  -0.495  -3.336  0.00  0.00    -0.250 OA
BRANCH  25  27
ATOM     27  C   UNL     1       3.017   1.693  -3.364  0.00  0.00    +0.189 C 
BRANCH  27  28
ATOM     28  S   UNL     1       4.029   1.036  -4.719  0.00  0.00    -0.151 S 
BRANCH  28  29
ATOM     29  C   UNL     1       5.051   2.446  -5.227  0.00  0.00    +0.051 C 
BRANCH  29  30
ATOM     30  C   UNL     1       5.964   2.026  -6.380  0.00  0.00    -0.068 C 
BRANCH  30  31
ATOM     31  N   UNL     1       6.791   3.168  -6.791  0.00  0.00    +0.380 N 
ATOM     32  H   UNL     1       6.122   4.021  -6.976  0.00  0.00    -0.082 HD
BRANCH  31  34
ATOM     33  C   UNL     1       8.713   2.407  -5.477  0.00  0.00    -0.017 C 
ATOM     34  C   UNL     1       7.727   3.551  -5.726  0.00  0.00    -0.082 C 
ENDBRANCH  31  34
BRANCH  31  35
ATOM     35  C   UNL     1       7.507   2.876  -8.041  0.00  0.00    -0.082 C 
ATOM     36  C   UNL     1       8.045   4.179  -8.636  0.00  0.00    -0.017 C 
ENDBRANCH  31  35
ENDBRANCH  30  31
ENDBRANCH  29  30
ENDBRANCH  28  29
ENDBRANCH  27  28
ENDBRANCH  25  27
ENDBRANCH  24  25
ENDBRANCH   1  24
TORSDOF 11
