REMARK  Name = ZINC36977106
REMARK  5 active torsions:
REMARK  status: ('A' for Active; 'I' for Inactive)
REMARK    1  A    between atoms: C_1  and  C_2
REMARK    2  A    between atoms: C_2  and  C_4
REMARK    3  A    between atoms: C_2  and  N_13
REMARK    4  A    between atoms: C_9  and  N_10
REMARK    5  A    between atoms: N_13  and  C_14
REMARK                            x       y       z     vdW  Elec       q    Type
REMARK                         _______ _______ _______ _____ _____    ______ ____
ROOT
ATOM      1  N   UNL     1       0.494  -0.279  -1.433  0.00  0.00    +0.391 N 
ATOM      2  H   UNL     1       1.454  -0.255  -1.743  0.00  0.00    -0.084 HD
ATOM      3  H   UNL     1       0.225  -1.233  -1.245  0.00  0.00    -0.084 HD
ENDROOT
BRANCH   1   4
ATOM      4  C   UNL     1      -0.372   0.276  -2.482  0.00  0.00    +0.017 C 
ATOM      5  C   UNL     1      -1.761  -0.361  -2.393  0.00  0.00    -0.007 C 
ATOM      6  C   UNL     1      -1.659  -1.813  -1.960  0.00  0.00    +0.000 C 
ATOM      7  C   UNL     1      -0.987  -2.711  -2.983  0.00  0.00    +0.019 C 
ATOM      8  C   UNL     1       0.491  -2.350  -3.138  0.00  0.00    +0.104 C 
ATOM      9  N   UNL     1       0.611  -1.274  -4.136  0.00  0.00    -0.317 N 
ATOM     10  C   UNL     1       0.216  -0.030  -3.843  0.00  0.00    +0.199 C 
ATOM     11  O   UNL     1       0.322   0.852  -4.668  0.00  0.00    -0.278 OA
ATOM     12  H   UNL     1       0.981  -1.467  -5.011  0.00  0.00    +0.149 HD
ENDBRANCH   1   4
BRANCH   1  14
ATOM     13  C   UNL     1       0.917   1.923  -0.448  0.00  0.00    -0.009 C 
ATOM     14  C   UNL     1       0.355   0.520  -0.209  0.00  0.00    -0.041 C 
BRANCH  14  15
ATOM     15  C   UNL     1       1.114  -0.141   0.912  0.00  0.00    -0.031 A 
ATOM     16  C   UNL     1       2.163  -0.996   0.627  0.00  0.00    +0.004 A 
ATOM     17  C   UNL     1       2.860  -1.603   1.655  0.00  0.00    +0.000 A 
ATOM     18  C   UNL     1       2.508  -1.354   2.969  0.00  0.00    +0.002 A 
ATOM     19  C   UNL     1       1.461  -0.499   3.254  0.00  0.00    +0.033 A 
ATOM     20  C   UNL     1       0.766   0.111   2.226  0.00  0.00    +0.128 A 
BRANCH  20  21
ATOM     21  N   UNL     1      -0.352   1.031   2.532  0.00  0.00    +0.057 N 
ATOM     22  O   UNL     1      -0.724   1.171   3.674  0.00  0.00    -0.126 OA
ATOM     23  O   UNL     1      -0.894   1.642   1.640  0.00  0.00    -0.126 OA
ENDBRANCH  20  21
ENDBRANCH  14  15
ENDBRANCH   1  14
TORSDOF 4
