REMARK  Name = ZINC40376980
REMARK  9 active torsions:
REMARK  status: ('A' for Active; 'I' for Inactive)
REMARK    1  A    between atoms: C_1  and  C_2
REMARK    2  A    between atoms: C_2  and  C_3
REMARK    3  A    between atoms: C_3  and  C_4
REMARK    4  A    between atoms: C_3  and  C_6
REMARK    5  A    between atoms: C_3  and  N_10
REMARK    6  A    between atoms: C_4  and  C_5
REMARK    7  A    between atoms: N_7  and  O_8
REMARK    8  A    between atoms: N_10  and  S_11
REMARK    9  A    between atoms: S_11  and  C_14
REMARK                            x       y       z     vdW  Elec       q    Type
REMARK                         _______ _______ _______ _____ _____    ______ ____
ROOT
ATOM      1  C   UNL     1       0.702  -0.007   2.130  0.00  0.00    +0.097 C 
ENDROOT
BRANCH   1   2
ATOM      2  C   UNL     1       1.809   1.009   2.242  0.00  0.00    +0.153 C 
ATOM      3  N   UNL     1       3.019   0.623   2.478  0.00  0.00    -0.075 NA
ATOM      4  N   UNL     1       1.531   2.350   2.093  0.00  0.00    -0.342 N 
ATOM      5  H   UNL     1       0.613   2.646   1.991  0.00  0.00    +0.144 HD
ATOM      6  H   UNL     1       2.253   2.998   2.090  0.00  0.00    +0.144 HD
BRANCH   3   7
ATOM      7  O   UNL     1       4.059   1.578   2.584  0.00  0.00    -0.408 OA
ATOM      8  H   UNL     1       4.929   1.194   2.762  0.00  0.00    +0.328 HD
ENDBRANCH   3   7
ENDBRANCH   1   2
BRANCH   1  10
ATOM      9  C   UNL     1       1.325  -0.245  -0.278  0.00  0.00    +0.006 C 
ATOM     10  C   UNL     1       0.167  -0.022   0.696  0.00  0.00    +0.028 C 
ENDBRANCH   1  10
BRANCH   1  11
ATOM     11  C   UNL     1       1.244  -1.393   2.486  0.00  0.00    +0.028 C 
ATOM     12  C   UNL     1       1.632  -1.424   3.966  0.00  0.00    +0.006 C 
ENDBRANCH   1  11
BRANCH   1  13
ATOM     13  N   UNL     1      -0.380   0.346   3.052  0.00  0.00    -0.176 NA
ATOM     14  H   UNL     1      -0.284   1.109   3.643  0.00  0.00    +0.149 HD
BRANCH  13  15
ATOM     15  S   UNL     1      -1.768  -0.558   3.084  0.00  0.00    +0.066 S 
ATOM     16  O   UNL     1      -2.624   0.048   4.043  0.00  0.00    -0.153 OA
ATOM     17  O   UNL     1      -2.156  -0.754   1.732  0.00  0.00    -0.153 OA
BRANCH  15  18
ATOM     18  C   UNL     1      -1.341  -2.144   3.721  0.00  0.00    +0.143 A 
ATOM     19  C   UNL     1      -1.101  -2.513   5.003  0.00  0.00    +0.037 A 
ATOM     20  C   UNL     1      -0.779  -3.830   5.273  0.00  0.00    +0.025 A 
ATOM     21  C   UNL     1      -0.714  -4.714   4.247  0.00  0.00    +0.057 A 
ATOM     22  S   UNL     1      -1.122  -3.685   2.846  0.00  0.00    -0.062 S 
ATOM     23 BR   UNL     1      -0.305  -6.560   4.289  0.00  0.00    -0.043 Br
ENDBRANCH  15  18
ENDBRANCH  13  15
ENDBRANCH   1  13
TORSDOF 7
