REMARK  Name = ZINC66350566
REMARK  2 active torsions:
REMARK  status: ('A' for Active; 'I' for Inactive)
REMARK    1  A    between atoms: N_4  and  C_6
REMARK    2  A    between atoms: C_6  and  N_7
REMARK                            x       y       z     vdW  Elec       q    Type
REMARK                         _______ _______ _______ _____ _____    ______ ____
ROOT
ATOM      1  N   UNL     1       1.861  -2.323   1.351  0.00  0.00    -0.276 NA
ATOM      2  C   UNL     1       0.512  -2.427   1.929  0.00  0.00    +0.114 C 
ATOM      3  C   UNL     1       0.614  -2.915   3.376  0.00  0.00    +0.175 C 
ATOM      4  O   UNL     1       1.320  -4.159   3.412  0.00  0.00    -0.374 OA
ATOM      5  C   UNL     1       2.636  -4.081   2.861  0.00  0.00    +0.135 C 
ATOM      6  C   UNL     1       2.544  -3.622   1.404  0.00  0.00    +0.087 C 
ATOM      7  C   UNL     1       3.953  -3.499   0.824  0.00  0.00    +0.021 C 
ATOM      8  C   UNL     1       4.642  -4.865   0.879  0.00  0.00    +0.002 C 
ATOM      9  C   UNL     1       4.722  -5.342   2.330  0.00  0.00    +0.003 C 
ATOM     10  C   UNL     1       3.312  -5.452   2.914  0.00  0.00    +0.033 C 
ENDROOT
BRANCH   1  11
ATOM     11  C   UNL     1       1.805  -1.812  -0.025  0.00  0.00    +0.230 C 
BRANCH  11  15
ATOM     12  C   UNL     1      -0.016   1.304   0.009  0.00  0.00    +0.154 A 
ATOM     13  C   UNL     1       1.307   1.760  -0.001  0.00  0.00    +0.078 A 
ATOM     14  C   UNL     1       2.120   0.677  -0.015  0.00  0.00    +0.129 A 
ATOM     15  N   UNL     1       1.338  -0.424  -0.013  0.00  0.00    -0.256 N 
ATOM     16  N   UNL     1       0.002  -0.004   0.002  0.00  0.00    -0.177 NA
ATOM     17 CL   UNL     1       1.817   3.419   0.003  0.00  0.00    -0.080 Cl
ENDBRANCH  11  15
ENDBRANCH   1  11
TORSDOF 2
