REMARK  Name = ZINC16311463
REMARK  4 active torsions:
REMARK  status: ('A' for Active; 'I' for Inactive)
REMARK    1  A    between atoms: C_1  and  C_2
REMARK    2  A    between atoms: C_5  and  N_8
REMARK    3  A    between atoms: C_9  and  C_13
REMARK    4  A    between atoms: C_20  and  C_21
REMARK                            x       y       z     vdW  Elec       q    Type
REMARK                         _______ _______ _______ _____ _____    ______ ____
ROOT
ATOM      1  C   UNL     1       3.461   2.577  -1.715  0.00  0.00    +0.063 A 
ATOM      2  C   UNL     1       2.413   3.476  -1.763  0.00  0.00    +0.101 A 
ATOM      3  N   UNL     1       2.611   4.685  -2.336  0.00  0.00    -0.312 N 
ATOM      4  H   UNL     1       1.883   5.325  -2.372  0.00  0.00    +0.170 HD
ATOM      5  C   UNL     1       3.806   5.006  -2.861  0.00  0.00    +0.346 A 
ATOM      6  O   UNL     1       3.955   6.102  -3.375  0.00  0.00    -0.245 OA
ATOM      7  N   UNL     1       4.832   4.157  -2.832  0.00  0.00    -0.192 NA
ATOM      8  C   UNL     1       4.707   2.957  -2.281  0.00  0.00    +0.089 A 
ENDROOT
BRANCH   8   9
ATOM      9  C   UNL     1       5.854   2.023  -2.257  0.00  0.00    +0.001 A 
ATOM     10  C   UNL     1       6.063   1.199  -1.150  0.00  0.00    +0.011 A 
ATOM     11  C   UNL     1       7.131   0.327  -1.136  0.00  0.00    +0.020 A 
ATOM     12  C   UNL     1       8.002   0.275  -2.212  0.00  0.00    +0.041 A 
ATOM     13  C   UNL     1       7.803   1.095  -3.311  0.00  0.00    +0.020 A 
ATOM     14  C   UNL     1       6.735   1.967  -3.339  0.00  0.00    +0.011 A 
ATOM     15 CL   UNL     1       9.348  -0.821  -2.183  0.00  0.00    -0.084 Cl
ENDBRANCH   8   9
BRANCH   1  17
ATOM     16  N   UNL     1       2.926   0.995   0.198  0.00  0.00    -0.193 N 
ATOM     17  C   UNL     1       3.287   1.248  -1.094  0.00  0.00    +0.190 A 
ATOM     18  N   UNL     1       3.452   0.079  -1.681  0.00  0.00    -0.108 NA
ATOM     19  N   UNL     1       3.221  -0.876  -0.854  0.00  0.00    -0.022 NA
ATOM     20  N   UNL     1       2.903  -0.407   0.303  0.00  0.00    -0.039 NA
BRANCH  16  25
ATOM     21  C   UNL     1       1.791   4.781   4.270  0.00  0.00    +0.044 C 
ATOM     22  C   UNL     1       2.093   3.776   3.189  0.00  0.00    -0.050 A 
ATOM     23  C   UNL     1       1.291   2.658   3.043  0.00  0.00    +0.005 A 
ATOM     24  C   UNL     1       1.568   1.732   2.056  0.00  0.00    +0.028 A 
ATOM     25  C   UNL     1       2.646   1.930   1.203  0.00  0.00    +0.069 A 
ATOM     26  C   UNL     1       3.446   3.055   1.349  0.00  0.00    +0.028 A 
ATOM     27  C   UNL     1       3.167   3.975   2.341  0.00  0.00    +0.005 A 
ENDBRANCH  16  25
ENDBRANCH   1  17
TORSDOF 3
