REMARK  Name = ZINC50443774
REMARK  8 active torsions:
REMARK  status: ('A' for Active; 'I' for Inactive)
REMARK    1  A    between atoms: C_1  and  C_2
REMARK    2  A    between atoms: C_4  and  C_8
REMARK    3  A    between atoms: C_5  and  C_7
REMARK    4  A    between atoms: C_8  and  C_10
REMARK    5  A    between atoms: C_8  and  N_11
REMARK    6  A    between atoms: N_11  and  C_12
REMARK    7  A    between atoms: C_12  and  C_13
REMARK    8  A    between atoms: C_18  and  N_19
REMARK                            x       y       z     vdW  Elec       q    Type
REMARK                         _______ _______ _______ _____ _____    ______ ____
ROOT
ATOM      1  N   UNL     1      -3.137  -2.572   0.475  0.00  0.00    +0.386 N 
ATOM      2  H   UNL     1      -2.964  -2.160   1.380  0.00  0.00    -0.085 HD
ATOM      3  H   UNL     1      -3.414  -1.852  -0.175  0.00  0.00    -0.085 HD
ENDROOT
BRANCH   1   4
ATOM      4  C   UNL     1      -1.912  -3.224  -0.008  0.00  0.00    -0.043 C 
ATOM      5  C   UNL     1      -2.137  -3.741  -1.430  0.00  0.00    -0.009 C 
BRANCH   4   9
ATOM      6  C   UNL     1      -0.018   1.503   0.010  0.00  0.00    +0.051 C 
ATOM      7  C   UNL     1       0.002  -0.004   0.002  0.00  0.00    -0.013 A 
ATOM      8  C   UNL     1      -1.039  -0.872   0.002  0.00  0.00    +0.013 A 
ATOM      9  C   UNL     1      -0.780  -2.230  -0.007  0.00  0.00    -0.051 A 
ATOM     10  C   UNL     1       0.507  -2.653  -0.016  0.00  0.00    -0.011 A 
ATOM     11  S   UNL     1       1.404  -1.109  -0.018  0.00  0.00    -0.098 S 
ATOM     12  C   UNL     1       1.043  -4.062  -0.027  0.00  0.00    +0.052 C 
ENDBRANCH   4   9
ENDBRANCH   1   4
BRANCH   1  13
ATOM     13  C   UNL     1      -4.210  -3.569   0.589  0.00  0.00    -0.044 C 
BRANCH  13  14
ATOM     14  C   UNL     1      -5.466  -2.900   1.085  0.00  0.00    -0.034 A 
ATOM     15  C   UNL     1      -5.817  -2.990   2.419  0.00  0.00    +0.005 A 
ATOM     16  C   UNL     1      -6.969  -2.377   2.874  0.00  0.00    +0.020 A 
ATOM     17  C   UNL     1      -7.771  -1.672   1.994  0.00  0.00    +0.043 A 
ATOM     18  C   UNL     1      -7.419  -1.581   0.659  0.00  0.00    +0.053 A 
ATOM     19  C   UNL     1      -6.264  -2.191   0.206  0.00  0.00    +0.129 A 
ATOM     20 CL   UNL     1      -9.218  -0.901   2.565  0.00  0.00    -0.083 Cl
BRANCH  19  21
ATOM     21  N   UNL     1      -5.885  -2.089  -1.220  0.00  0.00    +0.057 N 
ATOM     22  O   UNL     1      -6.583  -1.470  -1.989  0.00  0.00    -0.126 OA
ATOM     23  O   UNL     1      -4.877  -2.626  -1.618  0.00  0.00    -0.126 OA
ENDBRANCH  19  21
ENDBRANCH  13  14
ENDBRANCH   1  13
TORSDOF 5
