REMARK  Name = ZINC09187443
REMARK  11 active torsions:
REMARK  status: ('A' for Active; 'I' for Inactive)
REMARK    1  A    between atoms: C_1  and  C_2
REMARK    2  A    between atoms: C_2  and  O_3
REMARK    3  A    between atoms: O_3  and  C_4
REMARK    4  A    between atoms: C_6  and  C_19
REMARK    5  A    between atoms: C_9  and  O_10
REMARK    6  A    between atoms: O_10  and  C_11
REMARK    7  A    between atoms: C_11  and  C_12
REMARK    8  A    between atoms: C_20  and  C_21
REMARK    9  A    between atoms: C_20  and  C_23
REMARK   10  A    between atoms: C_28  and  C_34
REMARK   11  A    between atoms: C_29  and  C_33
REMARK                            x       y       z     vdW  Elec       q    Type
REMARK                         _______ _______ _______ _____ _____    ______ ____
ROOT
ATOM      1  C   UNL     1       3.749  -8.220  -0.368  0.00  0.00    +0.162 A 
ATOM      2  C   UNL     1       3.017  -7.054  -0.264  0.00  0.00    +0.057 A 
ATOM      3  C   UNL     1       3.679  -5.823  -0.162  0.00  0.00    -0.020 A 
ATOM      4  C   UNL     1       5.080  -5.782  -0.173  0.00  0.00    +0.012 A 
ATOM      5  C   UNL     1       5.800  -6.952  -0.272  0.00  0.00    +0.050 A 
ATOM      6  C   UNL     1       5.143  -8.171  -0.372  0.00  0.00    +0.163 A 
ENDROOT
BRANCH   3   7
ATOM      7  C   UNL     1       2.908  -4.580  -0.051  0.00  0.00    +0.030 C 
ATOM      8  C   UNL     1       3.426  -3.514   0.626  0.00  0.00    +0.094 C 
BRANCH   8   9
ATOM      9  C   UNL     1       2.721  -2.219   0.612  0.00  0.00    +0.150 A 
ATOM     10  N   UNL     1       3.144  -1.084   1.253  0.00  0.00    -0.337 N 
ATOM     11  H   UNL     1       3.973  -0.988   1.805  0.00  0.00    +0.167 HD
ATOM     12  C   UNL     1       2.212  -0.098   0.994  0.00  0.00    +0.067 A 
ATOM     13  C   UNL     1       2.093   1.235   1.361  0.00  0.00    +0.031 A 
ATOM     14  C   UNL     1       1.011   1.971   0.925  0.00  0.00    -0.045 A 
ATOM     15  C   UNL     1       0.041   1.387   0.123  0.00  0.00    -0.045 A 
ATOM     16  C   UNL     1       0.139   0.076  -0.248  0.00  0.00    +0.033 A 
ATOM     17  C   UNL     1       1.228  -0.690   0.182  0.00  0.00    +0.090 A 
ATOM     18  N   UNL     1       1.594  -1.980  -0.016  0.00  0.00    -0.227 NA
ATOM     19  C   UNL     1      -1.131   2.210  -0.348  0.00  0.00    +0.044 C 
ATOM     20  C   UNL     1       0.882   3.419   1.322  0.00  0.00    +0.044 C 
ENDBRANCH   8   9
BRANCH   8  21
ATOM     21  C   UNL     1       4.653  -3.654   1.351  0.00  0.00    +0.103 C 
ATOM     22  N   UNL     1       5.627  -3.764   1.925  0.00  0.00    -0.191 NA
ENDBRANCH   8  21
ENDBRANCH   3   7
BRANCH   1  23
ATOM     23  O   UNL     1       3.111  -9.416  -0.466  0.00  0.00    -0.489 OA
BRANCH  23  25
ATOM     24  C   UNL     1       1.147 -10.820  -0.575  0.00  0.00    +0.048 C 
ATOM     25  C   UNL     1       1.682  -9.392  -0.456  0.00  0.00    +0.226 C 
ENDBRANCH  23  25
ENDBRANCH   1  23
BRANCH   6  26
ATOM     26  O   UNL     1       5.860  -9.320  -0.474  0.00  0.00    -0.479 OA
BRANCH  26  27
ATOM     27  C   UNL     1       7.284  -9.198  -0.472  0.00  0.00    +0.324 C 
BRANCH  27  28
ATOM     28  C   UNL     1       7.905 -10.566  -0.593  0.00  0.00    +0.253 C 
ATOM     29  O   UNL     1       7.198 -11.548  -0.672  0.00  0.00    -0.272 OA
ATOM     30  N   UNL     1       9.246 -10.698  -0.612  0.00  0.00    -0.299 N 
ATOM     31  C   UNL     1      10.216  -9.597  -0.529  0.00  0.00    +0.108 C 
ATOM     32  C   UNL     1      11.625 -10.221  -0.613  0.00  0.00    +0.020 C 
ATOM     33  C   UNL     1      11.361 -11.579  -1.314  0.00  0.00    +0.020 C 
ATOM     34  C   UNL     1       9.983 -11.970  -0.724  0.00  0.00    +0.108 C 
ENDBRANCH  27  28
ENDBRANCH  26  27
ENDBRANCH   6  26
TORSDOF 8
