REMARK  Name = ZINC03999999
REMARK  8 active torsions:
REMARK  status: ('A' for Active; 'I' for Inactive)
REMARK    1  A    between atoms: C_1  and  C_2
REMARK    2  A    between atoms: C_2  and  C_3
REMARK    3  A    between atoms: C_3  and  O_4
REMARK    4  A    between atoms: O_4  and  C_5
REMARK    5  A    between atoms: C_8  and  C_11
REMARK    6  A    between atoms: C_12  and  C_13
REMARK    7  A    between atoms: C_14  and  C_26
REMARK    8  A    between atoms: C_14  and  C_27
REMARK                            x       y       z     vdW  Elec       q    Type
REMARK                         _______ _______ _______ _____ _____    ______ ____
ROOT
ATOM      1  C   UNL     1       2.212   0.613   0.413  0.00  0.00    +0.131 C 
ATOM      2  C   UNL     1       1.418   1.872  -0.001  0.00  0.00    +0.034 C 
ATOM      3  C   UNL     1      -0.017   1.385   0.010  0.00  0.00    -0.017 A 
ATOM      4  C   UNL     1      -1.214   2.069   0.030  0.00  0.00    +0.006 A 
ATOM      5  C   UNL     1      -2.410   1.373   0.043  0.00  0.00    +0.000 A 
ATOM      6  C   UNL     1      -2.402  -0.009   0.041  0.00  0.00    +0.002 A 
ATOM      7  C   UNL     1      -1.207  -0.698   0.021  0.00  0.00    +0.023 A 
ATOM      8  C   UNL     1       0.002  -0.004   0.002  0.00  0.00    +0.036 A 
ATOM      9  N   UNL     1       1.315  -0.490  -0.027  0.00  0.00    -0.296 N 
ATOM     10  C   UNL     1       1.735  -0.725  -1.429  0.00  0.00    +0.203 C 
ATOM     11  C   UNL     1       3.174  -0.263  -1.488  0.00  0.00    +0.232 C 
ATOM     12  O   UNL     1       3.971  -0.538  -2.359  0.00  0.00    -0.274 OA
ATOM     13  N   UNL     1       3.422   0.507  -0.409  0.00  0.00    -0.289 N 
ATOM     14  C   UNL     1       1.617   2.997   1.017  0.00  0.00    +0.020 C 
ATOM     15  C   UNL     1       1.824   2.331  -1.403  0.00  0.00    +0.020 C 
ATOM     16  H   UNL     1       4.272   0.928  -0.208  0.00  0.00    +0.151 HD
ENDROOT
BRANCH   1  18
ATOM     17  C   UNL     1       2.007  -0.407   2.636  0.00  0.00    +0.007 C 
ATOM     18  C   UNL     1       2.513   0.564   1.889  0.00  0.00    +0.020 C 
BRANCH  17  22
ATOM     19  C   UNL     1       2.855  -0.546   6.797  0.00  0.00    +0.121 A 
ATOM     20  C   UNL     1       2.048  -1.519   6.222  0.00  0.00    +0.046 A 
ATOM     21  C   UNL     1       1.771  -1.477   4.872  0.00  0.00    +0.011 A 
ATOM     22  C   UNL     1       2.302  -0.456   4.083  0.00  0.00    -0.025 A 
ATOM     23  C   UNL     1       3.118   0.517   4.664  0.00  0.00    +0.011 A 
ATOM     24  C   UNL     1       3.385   0.472   6.016  0.00  0.00    +0.046 A 
BRANCH  19  25
ATOM     25  O   UNL     1       3.125  -0.589   8.128  0.00  0.00    -0.492 OA
BRANCH  25  26
ATOM     26  C   UNL     1       3.962   0.443   8.654  0.00  0.00    +0.229 C 
BRANCH  26  28
ATOM     27  C   UNL     1       5.048   1.333  10.720  0.00  0.00    +0.007 C 
ATOM     28  C   UNL     1       4.153   0.228  10.157  0.00  0.00    +0.038 C 
ENDBRANCH  26  28
ENDBRANCH  25  26
ENDBRANCH  19  25
ENDBRANCH  17  22
ENDBRANCH   1  18
TORSDOF 5
