REMARK  Name = ZINC14415576
REMARK  5 active torsions:
REMARK  status: ('A' for Active; 'I' for Inactive)
REMARK    1  A    between atoms: C_1  and  C_2
REMARK    2  A    between atoms: C_7  and  O_27
REMARK    3  A    between atoms: C_9  and  O_26
REMARK    4  A    between atoms: C_17  and  O_25
REMARK    5  A    between atoms: C_19  and  O_24
REMARK                            x       y       z     vdW  Elec       q    Type
REMARK                         _______ _______ _______ _____ _____    ______ ____
ROOT
ATOM      1  C   UNL     1       6.033   2.892   3.160  0.00  0.00    +0.052 C 
ATOM      2  C   UNL     1       6.743   2.400   1.897  0.00  0.00    +0.177 C 
ATOM      3  C   UNL     1       5.939   1.257   1.272  0.00  0.00    +0.071 C 
ATOM      4  C   UNL     1       4.491   1.388   1.657  0.00  0.00    -0.025 C 
ATOM      5  C   UNL     1       3.574   0.745   0.979  0.00  0.00    +0.002 C 
ATOM      6  C   UNL     1       2.120   0.875   1.362  0.00  0.00    +0.166 C 
ATOM      7  C   UNL     1       1.300   1.252   0.126  0.00  0.00    +0.147 C 
ATOM      8  C   UNL     1       1.085   2.767   0.098  0.00  0.00    +0.038 C 
ATOM      9  C   UNL     1       1.315   3.304  -1.316  0.00  0.00    +0.030 C 
ATOM     10  C   UNL     1       2.435   4.310  -1.290  0.00  0.00    -0.026 C 
ATOM     11  C   UNL     1       3.626   4.000  -1.755  0.00  0.00    +0.005 C 
ATOM     12  C   UNL     1       4.763   4.930  -1.770  0.00  0.00    -0.004 A 
ATOM     13  C   UNL     1       4.761   6.004  -2.660  0.00  0.00    +0.054 A 
ATOM     14  C   UNL     1       5.838   6.880  -2.691  0.00  0.00    +0.121 A 
ATOM     15  C   UNL     1       6.919   6.698  -1.838  0.00  0.00    +0.091 A 
ATOM     16  C   UNL     1       6.936   5.642  -0.947  0.00  0.00    +0.135 A 
ATOM     17  C   UNL     1       5.857   4.753  -0.899  0.00  0.00    +0.108 A 
ATOM     18  C   UNL     1       5.843   3.645   0.067  0.00  0.00    +0.344 C 
ATOM     19  O   UNL     1       4.915   2.860   0.070  0.00  0.00    -0.245 OA
ATOM     20  O   UNL     1       6.851   3.492   0.946  0.00  0.00    -0.458 OA
ENDROOT
BRANCH  16  21
ATOM     21  O   UNL     1       7.998   5.466  -0.121  0.00  0.00    -0.506 OA
ATOM     22  H   UNL     1       8.696   4.908  -0.491  0.00  0.00    +0.292 HD
ENDBRANCH  16  21
BRANCH  14  23
ATOM     23  O   UNL     1       5.835   7.920  -3.562  0.00  0.00    -0.507 OA
ATOM     24  H   UNL     1       6.228   7.715  -4.421  0.00  0.00    +0.292 HD
ENDBRANCH  14  23
BRANCH   7  25
ATOM     25  O   UNL     1       0.033   0.593   0.176  0.00  0.00    -0.389 OA
ATOM     26  H   UNL     1       0.092  -0.372   0.196  0.00  0.00    +0.210 HD
ENDBRANCH   7  25
BRANCH   6  27
ATOM     27  O   UNL     1       1.652  -0.371   1.883  0.00  0.00    -0.385 OA
ATOM     28  H   UNL     1       2.128  -0.672   2.669  0.00  0.00    +0.210 HD
ENDBRANCH   6  27
TORSDOF 4
