REMARK  Name = ZINC40778121
REMARK  3 active torsions:
REMARK  status: ('A' for Active; 'I' for Inactive)
REMARK    1  A    between atoms: C_12  and  N_26
REMARK    2  A    between atoms: C_13  and  N_17
REMARK    3  A    between atoms: N_17  and  C_18
REMARK                            x       y       z     vdW  Elec       q    Type
REMARK                         _______ _______ _______ _____ _____    ______ ____
ROOT
ATOM      1  C   UNL     1       2.141  -0.782   3.901  0.00  0.00    +0.000 A 
ATOM      2  C   UNL     1       3.436  -0.357   3.665  0.00  0.00    +0.002 A 
ATOM      3  C   UNL     1       3.918  -0.306   2.373  0.00  0.00    +0.024 A 
ATOM      4  C   UNL     1       3.104  -0.683   1.310  0.00  0.00    +0.038 A 
ATOM      5  C   UNL     1       1.808  -1.112   1.548  0.00  0.00    -0.026 A 
ATOM      6  C   UNL     1       1.331  -1.158   2.847  0.00  0.00    +0.005 A 
ATOM      7  C   UNL     1       0.901  -1.538   0.423  0.00  0.00    +0.038 C 
ATOM      8  C   UNL     1       1.388  -0.959  -0.905  0.00  0.00    +0.024 C 
ATOM      9  C   UNL     1       2.877  -1.290  -1.075  0.00  0.00    +0.113 C 
ATOM     10  N   UNL     1       3.611  -0.619   0.007  0.00  0.00    -0.283 N 
ATOM     11  C   UNL     1       4.791   0.067  -0.260  0.00  0.00    +0.151 A 
ATOM     12  C   UNL     1       4.757   1.397  -0.683  0.00  0.00    +0.104 A 
ATOM     13  C   UNL     1       5.971   2.039  -0.937  0.00  0.00    +0.126 A 
ATOM     14  N   UNL     1       7.105   1.364  -0.767  0.00  0.00    -0.333 N 
ATOM     15  C   UNL     1       7.093   0.109  -0.366  0.00  0.00    +0.200 A 
ATOM     16  N   UNL     1       5.970  -0.532  -0.110  0.00  0.00    -0.220 NA
ATOM     17  H   UNL     1       7.953   1.802  -0.942  0.00  0.00    +0.168 HD
ENDROOT
BRANCH  12  18
ATOM     18  N   UNL     1       3.537   2.071  -0.850  0.00  0.00    -0.353 N 
ATOM     19  H   UNL     1       2.706   1.637  -0.599  0.00  0.00    +0.143 HD
ATOM     20  H   UNL     1       3.524   2.969  -1.216  0.00  0.00    +0.143 HD
ENDBRANCH  12  18
BRANCH  13  21
ATOM     21  N   UNL     1       5.994   3.363  -1.362  0.00  0.00    -0.298 N 
ATOM     22  H   UNL     1       5.171   3.875  -1.397  0.00  0.00    +0.154 HD
BRANCH  21  23
ATOM     23  C   UNL     1       7.203   3.956  -1.737  0.00  0.00    +0.052 A 
ATOM     24  C   UNL     1       7.745   4.977  -0.968  0.00  0.00    +0.044 A 
ATOM     25  C   UNL     1       8.941   5.561  -1.342  0.00  0.00    +0.043 A 
ATOM     26  C   UNL     1       9.598   5.129  -2.481  0.00  0.00    +0.021 A 
ATOM     27  C   UNL     1       9.060   4.112  -3.248  0.00  0.00    +0.023 A 
ATOM     28  C   UNL     1       7.869   3.520  -2.877  0.00  0.00    +0.062 A 
ATOM     29 CL   UNL     1       7.199   2.238  -3.837  0.00  0.00    -0.082 Cl
ATOM     30 CL   UNL     1       9.620   6.838  -0.381  0.00  0.00    -0.083 Cl
ENDBRANCH  21  23
ENDBRANCH  13  21
TORSDOF 3
