REMARK  Name = ZINC13689279
REMARK  10 active torsions:
REMARK  status: ('A' for Active; 'I' for Inactive)
REMARK    1  A    between atoms: C_1  and  C_2
REMARK    2  A    between atoms: C_2  and  C_3
REMARK    3  A    between atoms: C_3  and  C_33
REMARK    4  A    between atoms: C_13  and  S_19
REMARK    5  A    between atoms: C_15  and  S_17
REMARK    6  A    between atoms: S_17  and  C_18
REMARK    7  A    between atoms: S_19  and  C_20
REMARK    8  A    between atoms: C_20  and  C_21
REMARK    9  A    between atoms: N_23  and  C_24
REMARK   10  A    between atoms: C_29  and  C_30
REMARK                            x       y       z     vdW  Elec       q    Type
REMARK                         _______ _______ _______ _____ _____    ______ ____
ROOT
ATOM      1  C   UNL     1      -0.092   9.973   0.720  0.00  0.00    +0.071 C 
ATOM      2  C   UNL     1      -0.847   8.731   1.204  0.00  0.00    +0.071 C 
ATOM      3  C   UNL     1      -0.368   7.537   0.383  0.00  0.00    -0.019 A 
ATOM      4  C   UNL     1       0.283   7.748  -0.785  0.00  0.00    +0.021 A 
ATOM      5  S   UNL     1       0.657   6.131  -1.397  0.00  0.00    -0.071 S 
ATOM      6  C   UNL     1      -0.062   5.176  -0.083  0.00  0.00    +0.115 A 
ATOM      7  C   UNL     1      -0.570   6.151   0.789  0.00  0.00    +0.056 A 
ATOM      8  C   UNL     1      -1.239   5.623   1.998  0.00  0.00    +0.174 A 
ATOM      9  N   UNL     1      -1.829   6.179   3.027  0.00  0.00    -0.128 NA
ATOM     10  N   UNL     1      -2.259   5.265   3.826  0.00  0.00    -0.122 NA
ATOM     11  C   UNL     1      -1.970   4.074   3.354  0.00  0.00    +0.198 A 
ATOM     12  N   UNL     1      -1.314   4.258   2.167  0.00  0.00    -0.248 N 
ATOM     13  C   UNL     1      -0.770   3.412   1.238  0.00  0.00    +0.177 A 
ATOM     14  N   UNL     1      -0.175   3.873   0.163  0.00  0.00    -0.216 NA
ATOM     15  C   UNL     1       0.599   9.079  -1.395  0.00  0.00    +0.203 C 
ATOM     16  O   UNL     1      -0.172  10.075  -0.704  0.00  0.00    -0.368 OA
ATOM     17  C   UNL     1       1.377   9.866   1.136  0.00  0.00    +0.042 C 
ENDROOT
BRANCH   1  19
ATOM     18  C   UNL     1       0.044  12.463   0.872  0.00  0.00    +0.007 C 
ATOM     19  C   UNL     1      -0.709  11.221   1.354  0.00  0.00    +0.032 C 
ENDBRANCH   1  19
BRANCH  13  20
ATOM     20  S   UNL     1      -0.877   1.671   1.488  0.00  0.00    -0.091 S 
ATOM     21  C   UNL     1      -0.030   1.087  -0.002  0.00  0.00    +0.093 C 
ENDBRANCH  13  20
BRANCH  11  22
ATOM     22  S   UNL     1      -2.359   2.529   4.106  0.00  0.00    -0.076 S 
BRANCH  22  23
ATOM     23  C   UNL     1      -3.225   2.989   5.632  0.00  0.00    +0.173 C 
BRANCH  23  24
ATOM     24  C   UNL     1      -3.619   1.742   6.381  0.00  0.00    +0.227 C 
ATOM     25  O   UNL     1      -3.343   0.650   5.930  0.00  0.00    -0.275 OA
ATOM     26  N   UNL     1      -4.278   1.839   7.552  0.00  0.00    -0.285 N 
ATOM     27  H   UNL     1      -4.429   2.710   7.953  0.00  0.00    +0.155 HD
BRANCH  26  28
ATOM     28  C   UNL     1      -4.746   0.685   8.190  0.00  0.00    +0.036 A 
ATOM     29  C   UNL     1      -5.010  -0.461   7.451  0.00  0.00    +0.023 A 
ATOM     30  C   UNL     1      -5.466  -1.600   8.084  0.00  0.00    +0.002 A 
ATOM     31  C   UNL     1      -5.671  -1.597   9.452  0.00  0.00    +0.000 A 
ATOM     32  C   UNL     1      -5.414  -0.457  10.190  0.00  0.00    +0.005 A 
ATOM     33  C   UNL     1      -4.952   0.684   9.563  0.00  0.00    -0.029 A 
ATOM     34  C   UNL     1      -4.673   1.927  10.369  0.00  0.00    +0.045 C 
ENDBRANCH  26  28
ENDBRANCH  23  24
ENDBRANCH  22  23
ENDBRANCH  11  22
TORSDOF 6
