REMARK  Name = ZINC14536835
REMARK  7 active torsions:
REMARK  status: ('A' for Active; 'I' for Inactive)
REMARK    1  A    between atoms: C_1  and  N_2
REMARK    2  A    between atoms: C_5  and  C_7
REMARK    3  A    between atoms: N_9  and  C_10
REMARK    4  A    between atoms: C_10  and  C_11
REMARK    5  A    between atoms: C_11  and  C_12
REMARK    6  A    between atoms: C_19  and  N_59
REMARK    7  A    between atoms: C_23  and  N_59
REMARK                            x       y       z     vdW  Elec       q    Type
REMARK                         _______ _______ _______ _____ _____    ______ ____
ROOT
ATOM      1  C   UNL     1       3.747  -1.789   0.237  0.00  0.00    +0.172 C 
ATOM      2  N   UNL     1       3.339  -0.383   0.185  0.00  0.00    -0.270 N 
ATOM      3  C   UNL     1       4.181   0.662   0.138  0.00  0.00    +0.043 A 
ATOM      4  C   UNL     1       3.423   1.786   0.091  0.00  0.00    +0.004 A 
ATOM      5  C   UNL     1       2.087   1.352   0.126  0.00  0.00    +0.150 A 
ATOM      6  N   UNL     1       2.119   0.032   0.178  0.00  0.00    -0.166 NA
ATOM      7  C   UNL     1       3.972   3.184   0.033  0.00  0.00    +0.023 C 
ATOM      8  C   UNL     1       5.447   3.104  -0.385  0.00  0.00    -0.067 C 
ATOM      9  C   UNL     1       6.170   2.076   0.488  0.00  0.00    -0.009 C 
ATOM     10  C   UNL     1       5.688   0.664   0.130  0.00  0.00    +0.054 C 
ENDROOT
BRANCH   5  11
ATOM     11  C   UNL     1       0.882   2.205   0.102  0.00  0.00    +0.264 C 
ATOM     12  O   UNL     1       0.994   3.415   0.052  0.00  0.00    -0.268 OA
ATOM     13  N   UNL     1      -0.343   1.643   0.135  0.00  0.00    -0.310 N 
ATOM     14  H   UNL     1      -0.432   0.678   0.174  0.00  0.00    +0.149 HD
BRANCH  13  15
ATOM     15  C   UNL     1      -1.538   2.489   0.105  0.00  0.00    +0.109 C 
BRANCH  15  16
ATOM     16  C   UNL     1      -2.788   1.608   0.145  0.00  0.00    +0.054 C 
BRANCH  16  17
ATOM     17  C   UNL     1      -4.018   2.478   0.115  0.00  0.00    -0.046 A 
ATOM     18  C   UNL     1      -4.581   2.921   1.297  0.00  0.00    +0.004 A 
ATOM     19  C   UNL     1      -5.707   3.723   1.268  0.00  0.00    +0.000 A 
ATOM     20  C   UNL     1      -6.275   4.074   0.058  0.00  0.00    +0.000 A 
ATOM     21  C   UNL     1      -5.715   3.627  -1.124  0.00  0.00    +0.000 A 
ATOM     22  C   UNL     1      -4.587   2.829  -1.096  0.00  0.00    +0.004 A 
ENDBRANCH  16  17
ENDBRANCH  15  16
ENDBRANCH  13  15
ENDBRANCH   5  11
BRANCH   8  23
ATOM     23  N   UNL     1       6.082   4.423  -0.206  0.00  0.00    +0.383 N 
ATOM     24  H   UNL     1       7.090   4.297  -0.060  0.00  0.00    -0.085 HD
ATOM     25  H   UNL     1       5.673   4.888   0.613  0.00  0.00    -0.085 HD
BRANCH  23  26
ATOM     26  C   UNL     1       5.864   5.262  -1.400  0.00  0.00    -0.071 C 
ATOM     27  C   UNL     1       6.966   4.987  -2.425  0.00  0.00    -0.016 C 
ATOM     28  C   UNL     1       6.746   5.864  -3.659  0.00  0.00    -0.002 C 
ATOM     29  C   UNL     1       6.785   7.338  -3.251  0.00  0.00    -0.000 C 
ATOM     30  C   UNL     1       5.683   7.614  -2.226  0.00  0.00    -0.002 C 
ATOM     31  C   UNL     1       5.904   6.736  -0.992  0.00  0.00    -0.016 C 
ENDBRANCH  23  26
ENDBRANCH   8  23
TORSDOF 6
