REMARK  Name = ZINC36309934
REMARK  16 active torsions:
REMARK  status: ('A' for Active; 'I' for Inactive)
REMARK    1  A    between atoms: C_1  and  C_2
REMARK    2  A    between atoms: C_2  and  N_3
REMARK    3  A    between atoms: N_3  and  C_4
REMARK    4  A    between atoms: N_3  and  C_13
REMARK    5  A    between atoms: C_4  and  C_5
REMARK    6  A    between atoms: C_5  and  C_7
REMARK    7  A    between atoms: C_5  and  O_12
REMARK    8  A    between atoms: C_7  and  O_8
REMARK    9  A    between atoms: O_8  and  C_9
REMARK   10  A    between atoms: C_9  and  C_10
REMARK   11  A    between atoms: C_9  and  C_11
REMARK   12  A    between atoms: C_13  and  C_14
REMARK   13  A    between atoms: C_24  and  C_26
REMARK   14  A    between atoms: C_26  and  O_27
REMARK   15  A    between atoms: O_27  and  C_28
REMARK   16  A    between atoms: C_33  and  C_34
REMARK                            x       y       z     vdW  Elec       q    Type
REMARK                         _______ _______ _______ _____ _____    ______ ____
ROOT
ATOM      1  C   UNL     1      -1.356  -2.199   1.622  0.00  0.00    +0.200 C 
ATOM      2  O   UNL     1      -0.969  -1.337   2.383  0.00  0.00    -0.278 OA
ATOM      3  N   UNL     1      -1.464  -3.473   2.047  0.00  0.00    -0.292 N 
ATOM      4  C   UNL     1      -1.926  -4.527   1.131  0.00  0.00    +0.113 C 
ATOM      5  C   UNL     1      -0.774  -5.521   0.919  0.00  0.00    +0.061 C 
ATOM      6  C   UNL     1      -0.127  -5.793   2.238  0.00  0.00    -0.004 A 
ATOM      7  C   UNL     1      -0.238  -5.074   3.388  0.00  0.00    -0.014 A 
ATOM      8  C   UNL     1       0.481  -5.537   4.488  0.00  0.00    +0.013 A 
ATOM      9  C   UNL     1       1.237  -6.654   4.380  0.00  0.00    +0.046 A 
ATOM     10  S   UNL     1       0.966  -7.119   2.677  0.00  0.00    -0.101 S 
ATOM     11  C   UNL     1      -1.117  -3.830   3.429  0.00  0.00    +0.144 C 
ENDROOT
BRANCH   1  12
ATOM     12  C   UNL     1      -1.716  -1.844   0.202  0.00  0.00    +0.019 C 
BRANCH  12  13
ATOM     13  N   UNL     1      -1.513  -0.405  -0.010  0.00  0.00    +0.387 N 
ATOM     14  H   UNL     1      -2.037   0.113   0.679  0.00  0.00    -0.081 HD
BRANCH  13  16
ATOM     15  C   UNL     1       0.703  -0.826  -0.963  0.00  0.00    -0.017 C 
ATOM     16  C   UNL     1      -0.085  -0.087   0.120  0.00  0.00    -0.081 C 
ENDBRANCH  13  16
BRANCH  13  17
ATOM     17  C   UNL     1      -1.976  -0.038  -1.355  0.00  0.00    -0.044 C 
BRANCH  17  18
ATOM     18  C   UNL     1      -1.881   1.479  -1.530  0.00  0.00    +0.124 C 
BRANCH  18  19
ATOM     19  O   UNL     1      -2.704   2.123  -0.556  0.00  0.00    -0.391 OA
ATOM     20  H   UNL     1      -3.640   1.887  -0.612  0.00  0.00    +0.210 HD
ENDBRANCH  18  19
BRANCH  18  21
ATOM     21  C   UNL     1      -2.359   1.861  -2.933  0.00  0.00    +0.189 C 
BRANCH  21  22
ATOM     22  O   UNL     1      -2.162   3.261  -3.139  0.00  0.00    -0.375 OA
BRANCH  22  23
ATOM     23  C   UNL     1      -2.578   3.723  -4.425  0.00  0.00    +0.112 C 
ATOM     24  C   UNL     1      -3.035   5.179  -4.320  0.00  0.00    +0.037 C 
ATOM     25  C   UNL     1      -1.407   3.626  -5.405  0.00  0.00    +0.037 C 
ENDBRANCH  22  23
ENDBRANCH  21  22
ENDBRANCH  18  21
ENDBRANCH  17  18
ENDBRANCH  13  17
ENDBRANCH  12  13
ENDBRANCH   1  12
BRANCH  11  26
ATOM     26  C   UNL     1      -2.390  -4.126   4.224  0.00  0.00    +0.256 C 
BRANCH  26  27
ATOM     27  O   UNL     1      -3.027  -5.287   3.686  0.00  0.00    -0.490 OA
BRANCH  27  28
ATOM     28  C   UNL     1      -4.181  -5.689   4.282  0.00  0.00    +0.123 A 
ATOM     29  C   UNL     1      -4.691  -4.978   5.359  0.00  0.00    +0.046 A 
ATOM     30  C   UNL     1      -5.864  -5.389   5.962  0.00  0.00    +0.004 A 
ATOM     31  C   UNL     1      -6.528  -6.508   5.495  0.00  0.00    +0.000 A 
ATOM     32  C   UNL     1      -6.021  -7.218   4.423  0.00  0.00    +0.007 A 
ATOM     33  C   UNL     1      -4.852  -6.808   3.812  0.00  0.00    -0.009 A 
ATOM     34  C   UNL     1      -4.303  -7.580   2.640  0.00  0.00    +0.047 C 
ENDBRANCH  27  28
ENDBRANCH  26  27
ENDBRANCH  11  26
TORSDOF 12
