REMARK  Name = ZINC37377364
REMARK  10 active torsions:
REMARK  status: ('A' for Active; 'I' for Inactive)
REMARK    1  A    between atoms: C_1  and  C_2
REMARK    2  A    between atoms: C_2  and  C_3
REMARK    3  A    between atoms: C_3  and  C_4
REMARK    4  A    between atoms: C_4  and  C_5
REMARK    5  A    between atoms: C_5  and  C_6
REMARK    6  A    between atoms: C_16  and  C_38
REMARK    7  A    between atoms: N_18  and  C_31
REMARK    8  A    between atoms: C_21  and  C_23
REMARK    9  A    between atoms: C_23  and  C_24
REMARK   10  A    between atoms: C_27  and  C_30
REMARK                            x       y       z     vdW  Elec       q    Type
REMARK                         _______ _______ _______ _____ _____    ______ ____
ROOT
ATOM      1  C   UNL     1       1.769  -3.214   2.933  0.00  0.00    +0.216 C 
ATOM      2  O   UNL     1       2.324  -3.243   1.855  0.00  0.00    -0.276 OA
ATOM      3  N   UNL     1       2.299  -3.872   3.983  0.00  0.00    -0.298 N 
ATOM      4  C   UNL     1       1.633  -3.850   5.293  0.00  0.00    +0.126 C 
ATOM      5  C   UNL     1       1.391  -5.296   5.744  0.00  0.00    +0.125 C 
ATOM      6  N   UNL     1       2.644  -6.050   5.599  0.00  0.00    -0.312 N 
ATOM      7  C   UNL     1       3.310  -6.072   4.288  0.00  0.00    +0.125 C 
ATOM      8  C   UNL     1       3.549  -4.631   3.836  0.00  0.00    +0.126 C 
ATOM      9  C   UNL     1       3.187  -6.725   6.674  0.00  0.00    +0.136 A 
ATOM     10  C   UNL     1       2.930  -8.096   6.870  0.00  0.00    +0.082 A 
ATOM     11  C   UNL     1       2.181  -9.073   6.181  0.00  0.00    +0.073 A 
ATOM     12  N   UNL     1       2.293 -10.205   6.817  0.00  0.00    -0.169 NA
ATOM     13  N   UNL     1       3.110 -10.035   7.942  0.00  0.00    -0.214 N 
ATOM     14  C   UNL     1       3.511  -8.731   7.985  0.00  0.00    +0.169 A 
ATOM     15  N   UNL     1       4.277  -8.014   8.805  0.00  0.00    -0.212 NA
ATOM     16  C   UNL     1       4.489  -6.736   8.581  0.00  0.00    +0.138 A 
ATOM     17  N   UNL     1       3.969  -6.098   7.546  0.00  0.00    -0.216 NA
ATOM     18  C   UNL     1       1.384  -8.847   4.922  0.00  0.00    +0.068 C 
ENDROOT
BRANCH  13  19
ATOM     19  C   UNL     1       3.456 -11.032   8.864  0.00  0.00    +0.068 A 
ATOM     20  C   UNL     1       4.712 -11.027   9.455  0.00  0.00    +0.030 A 
ATOM     21  C   UNL     1       5.051 -12.010  10.364  0.00  0.00    +0.040 A 
ATOM     22  C   UNL     1       4.138 -13.001  10.686  0.00  0.00    +0.124 A 
ATOM     23  C   UNL     1       2.885 -13.008  10.098  0.00  0.00    +0.040 A 
ATOM     24  C   UNL     1       2.540 -12.023   9.193  0.00  0.00    +0.030 A 
ATOM     25  F   UNL     1       4.471 -13.961  11.575  0.00  0.00    -0.205 F 
ENDBRANCH  13  19
BRANCH   1  26
ATOM     26  C   UNL     1       0.486  -2.440   3.099  0.00  0.00    +0.096 C 
BRANCH  26  27
ATOM     27  C   UNL     1       0.106  -1.792   1.766  0.00  0.00    +0.009 C 
BRANCH  27  28
ATOM     28  C   UNL     1      -1.196  -1.006   1.934  0.00  0.00    +0.000 C 
BRANCH  28  30
ATOM     29  C   UNL     1      -2.879   0.427   0.769  0.00  0.00    +0.004 C 
ATOM     30  C   UNL     1      -1.576  -0.358   0.601  0.00  0.00    -0.003 C 
ENDBRANCH  28  30
ENDBRANCH  27  28
ENDBRANCH  26  27
ENDBRANCH   1  26
BRANCH  16  31
ATOM     31  C   UNL     1       5.362  -5.968   9.539  0.00  0.00    +0.111 C 
BRANCH  31  32
ATOM     32  C   UNL     1       6.795  -6.038   9.078  0.00  0.00    -0.040 A 
ATOM     33  C   UNL     1       7.612  -7.066   9.512  0.00  0.00    +0.004 A 
ATOM     34  C   UNL     1       8.926  -7.130   9.089  0.00  0.00    +0.003 A 
ATOM     35  C   UNL     1       9.425  -6.166   8.233  0.00  0.00    -0.050 A 
ATOM     36  C   UNL     1       8.608  -5.139   7.798  0.00  0.00    +0.003 A 
ATOM     37  C   UNL     1       7.292  -5.077   8.218  0.00  0.00    +0.004 A 
ATOM     38  C   UNL     1      10.858  -6.236   7.772  0.00  0.00    +0.044 C 
ENDBRANCH  31  32
ENDBRANCH  16  31
TORSDOF 7
