REMARK  Name = ZINC39545407
REMARK  7 active torsions:
REMARK  status: ('A' for Active; 'I' for Inactive)
REMARK    1  A    between atoms: C_1  and  S_2
REMARK    2  A    between atoms: S_2  and  C_3
REMARK    3  A    between atoms: C_5  and  C_17
REMARK    4  A    between atoms: N_19  and  C_20
REMARK    5  A    between atoms: N_19  and  C_27
REMARK    6  A    between atoms: C_25  and  O_26
REMARK    7  A    between atoms: C_32  and  O_33
REMARK                            x       y       z     vdW  Elec       q    Type
REMARK                         _______ _______ _______ _____ _____    ______ ____
ROOT
ATOM      1  C   UNL     1       2.742  -2.278  -3.048  0.00  0.00    +0.244 C 
ATOM      2  O   UNL     1       3.677  -1.506  -3.090  0.00  0.00    -0.273 OA
ATOM      3  N   UNL     1       2.964  -3.598  -2.895  0.00  0.00    -0.232 N 
ENDROOT
BRANCH   1   6
ATOM      4  C   UNL     1       0.422   0.024  -1.829  0.00  0.00    +0.022 C 
ATOM      5  C   UNL     1       0.752  -1.451  -1.774  0.00  0.00    +0.075 C 
ATOM      6  C   UNL     1       1.332  -1.760  -3.167  0.00  0.00    +0.150 C 
ATOM      7  N   UNL     1       1.314  -0.462  -3.860  0.00  0.00    -0.369 NA
ATOM      8  C   UNL     1       0.745   0.498  -3.011  0.00  0.00    +0.084 C 
ATOM      9  N   UNL     1       0.548   1.828  -3.462  0.00  0.00    -0.303 N 
ATOM     10  C   UNL     1       0.199   1.945  -4.817  0.00  0.00    +0.037 A 
ATOM     11  C   UNL     1      -0.121   3.189  -5.341  0.00  0.00    +0.023 A 
ATOM     12  C   UNL     1      -0.456   3.307  -6.676  0.00  0.00    +0.002 A 
ATOM     13  C   UNL     1      -0.469   2.183  -7.483  0.00  0.00    +0.000 A 
ATOM     14  C   UNL     1      -0.152   0.944  -6.960  0.00  0.00    +0.007 A 
ATOM     15  C   UNL     1       0.179   0.815  -5.622  0.00  0.00    -0.010 A 
ATOM     16  C   UNL     1       0.502  -0.548  -5.079  0.00  0.00    +0.124 C 
ATOM     17  H   UNL     1       0.647   2.597  -2.879  0.00  0.00    +0.153 HD
ATOM     18  H   UNL     1       2.256  -0.190  -4.097  0.00  0.00    +0.129 HD
BRANCH   4  20
ATOM     19  C   UNL     1      -1.928   0.216  -0.286  0.00  0.00    +0.089 C 
ATOM     20  S   UNL     1      -0.289   0.959  -0.516  0.00  0.00    -0.130 S 
ENDBRANCH   4  20
ENDBRANCH   1   6
BRANCH   3  21
ATOM     21  C   UNL     1       4.277  -4.091  -2.877  0.00  0.00    +0.083 A 
ATOM     22  C   UNL     1       4.965  -4.196  -1.677  0.00  0.00    +0.027 A 
ATOM     23  C   UNL     1       6.258  -4.682  -1.663  0.00  0.00    +0.002 A 
ATOM     24  C   UNL     1       6.870  -5.064  -2.842  0.00  0.00    +0.004 A 
ATOM     25  C   UNL     1       6.191  -4.962  -4.042  0.00  0.00    +0.047 A 
ATOM     26  C   UNL     1       4.892  -4.481  -4.065  0.00  0.00    +0.138 A 
BRANCH  26  27
ATOM     27  O   UNL     1       4.221  -4.385  -5.244  0.00  0.00    -0.505 OA
ATOM     28  H   UNL     1       4.337  -3.537  -5.694  0.00  0.00    +0.292 HD
ENDBRANCH  26  27
ENDBRANCH   3  21
BRANCH   3  29
ATOM     29  C   UNL     1       1.883  -4.479  -2.753  0.00  0.00    +0.083 A 
ATOM     30  C   UNL     1       1.302  -5.053  -3.874  0.00  0.00    +0.027 A 
ATOM     31  C   UNL     1       0.237  -5.922  -3.732  0.00  0.00    +0.002 A 
ATOM     32  C   UNL     1      -0.253  -6.220  -2.474  0.00  0.00    +0.004 A 
ATOM     33  C   UNL     1       0.321  -5.652  -1.351  0.00  0.00    +0.047 A 
ATOM     34  C   UNL     1       1.393  -4.785  -1.485  0.00  0.00    +0.138 A 
BRANCH  34  35
ATOM     35  O   UNL     1       1.962  -4.229  -0.383  0.00  0.00    -0.505 OA
ATOM     36  H   UNL     1       1.622  -3.350  -0.165  0.00  0.00    +0.292 HD
ENDBRANCH  34  35
ENDBRANCH   3  29
TORSDOF 6
