REMARK  Name = ZINC31055846
REMARK  9 active torsions:
REMARK  status: ('A' for Active; 'I' for Inactive)
REMARK    1  A    between atoms: C_4  and  S_7
REMARK    2  A    between atoms: S_7  and  C_8
REMARK    3  A    between atoms: C_8  and  C_9
REMARK    4  A    between atoms: C_9  and  C_10
REMARK    5  A    between atoms: C_10  and  N_11
REMARK    6  A    between atoms: C_12  and  C_14
REMARK    7  A    between atoms: N_19  and  C_21
REMARK    8  A    between atoms: C_21  and  C_22
REMARK    9  A    between atoms: C_24  and  C_27
REMARK                            x       y       z     vdW  Elec       q    Type
REMARK                         _______ _______ _______ _____ _____    ______ ____
ROOT
ATOM      1  C   UNL     1       4.798   7.674  -0.003  0.00  0.00    +0.058 C 
ATOM      2  C   UNL     1       4.137   8.235   1.259  0.00  0.00    +0.009 C 
ATOM      3  C   UNL     1       4.319   9.755   1.288  0.00  0.00    -0.018 C 
ATOM      4  C   UNL     1       5.813  10.086   1.239  0.00  0.00    -0.078 C 
ATOM      5  N   UNL     1       6.399   9.528   0.013  0.00  0.00    +0.386 N 
ATOM      6  C   UNL     1       6.278   8.065  -0.015  0.00  0.00    -0.065 C 
ATOM      7  H   UNL     1       5.832   9.928  -0.841  0.00  0.00    -0.081 HD
ENDROOT
BRANCH   1   9
ATOM      8  N   UNL     1       3.457   5.596  -0.001  0.00  0.00    -0.315 N 
ATOM      9  C   UNL     1       4.675   6.172  -0.009  0.00  0.00    +0.214 C 
ATOM     10  O   UNL     1       5.672   5.482  -0.023  0.00  0.00    -0.276 OA
ATOM     11  H   UNL     1       2.552   6.222   0.011  0.00  0.00    +0.149 HD
BRANCH   8  12
ATOM     12  C   UNL     1       3.337   4.136  -0.008  0.00  0.00    +0.105 C 
BRANCH  12  13
ATOM     13  C   UNL     1       1.857   3.745   0.004  0.00  0.00    +0.030 C 
BRANCH  13  14
ATOM     14  C   UNL     1       1.732   2.220  -0.003  0.00  0.00    +0.076 C 
BRANCH  14  15
ATOM     15  S   UNL     1      -0.022   1.758   0.012  0.00  0.00    -0.125 S 
BRANCH  15  19
ATOM     16  C   UNL     1       0.040  -2.771  -0.014  0.00  0.00    +0.000 A 
ATOM     17  C   UNL     1      -1.168  -2.098   0.002  0.00  0.00    +0.001 A 
ATOM     18  C   UNL     1      -1.191  -0.717   0.010  0.00  0.00    +0.015 A 
ATOM     19  C   UNL     1       0.002  -0.004   0.002  0.00  0.00    +0.008 A 
ATOM     20  C   UNL     1       1.214  -0.684  -0.019  0.00  0.00    +0.015 A 
ATOM     21  C   UNL     1       1.229  -2.065  -0.021  0.00  0.00    +0.001 A 
ENDBRANCH  15  19
ENDBRANCH  14  15
ENDBRANCH  13  14
ENDBRANCH  12  13
ENDBRANCH   8  12
ENDBRANCH   1   9
BRANCH   5  22
ATOM     22  C   UNL     1       7.800   9.944  -0.137  0.00  0.00    +0.022 C 
BRANCH  22  23
ATOM     23  C   UNL     1       7.918  11.420   0.140  0.00  0.00    +0.211 A 
ATOM     24  N   UNL     1       8.144  11.978   1.304  0.00  0.00    -0.193 NA
ATOM     25  C   UNL     1       8.170  13.309   1.070  0.00  0.00    +0.203 A 
ATOM     26  N   UNL     1       7.953  13.481  -0.209  0.00  0.00    -0.056 NA
ATOM     27  O   UNL     1       7.807  12.407  -0.754  0.00  0.00    -0.340 OA
BRANCH  25  28
ATOM     28  C   UNL     1       8.397  14.376   2.075  0.00  0.00    +0.041 A 
ATOM     29  C   UNL     1       8.392  15.715   1.688  0.00  0.00    +0.014 A 
ATOM     30  C   UNL     1       8.604  16.703   2.627  0.00  0.00    +0.021 A 
ATOM     31  C   UNL     1       8.821  16.368   3.953  0.00  0.00    +0.042 A 
ATOM     32  C   UNL     1       8.827  15.041   4.344  0.00  0.00    +0.040 A 
ATOM     33  C   UNL     1       8.611  14.043   3.413  0.00  0.00    +0.053 A 
ATOM     34 CL   UNL     1       8.612  12.379   3.905  0.00  0.00    -0.083 Cl
ATOM     35 CL   UNL     1       9.086  17.617   5.128  0.00  0.00    -0.083 Cl
ENDBRANCH  25  28
ENDBRANCH  22  23
ENDBRANCH   5  22
TORSDOF 9
