REMARK  Name = ZINC32516202
REMARK  12 active torsions:
REMARK  status: ('A' for Active; 'I' for Inactive)
REMARK    1  A    between atoms: C_1  and  C_2
REMARK    2  A    between atoms: C_2  and  O_3
REMARK    3  A    between atoms: O_3  and  C_4
REMARK    4  A    between atoms: C_7  and  C_13
REMARK    5  A    between atoms: C_9  and  N_10
REMARK    6  A    between atoms: C_13  and  O_15
REMARK    7  A    between atoms: O_15  and  C_16
REMARK    8  A    between atoms: C_16  and  C_17
REMARK    9  A    between atoms: C_19  and  O_20
REMARK   10  A    between atoms: C_29  and  O_31
REMARK   11  A    between atoms: O_31  and  C_32
REMARK   12  A    between atoms: C_32  and  C_33
REMARK                            x       y       z     vdW  Elec       q    Type
REMARK                         _______ _______ _______ _____ _____    ______ ____
ROOT
ATOM      1  C   UNL     1      -6.092   3.016   0.053  0.00  0.00    +0.007 A 
ATOM      2  C   UNL     1      -5.921   1.683  -0.142  0.00  0.00    +0.095 A 
ATOM      3  C   UNL     1      -7.045   0.849  -0.314  0.00  0.00    +0.285 A 
ATOM      4  O   UNL     1      -8.295   1.337  -0.291  0.00  0.00    -0.425 OA
ATOM      5  C   UNL     1      -8.535   2.652  -0.101  0.00  0.00    +0.141 A 
ATOM      6  C   UNL     1      -7.459   3.541   0.083  0.00  0.00    +0.024 A 
ATOM      7  C   UNL     1      -7.702   4.906   0.274  0.00  0.00    +0.014 A 
ATOM      8  C   UNL     1      -8.985   5.370   0.292  0.00  0.00    +0.024 A 
ATOM      9  C   UNL     1     -10.056   4.494   0.116  0.00  0.00    +0.040 A 
ATOM     10  C   UNL     1      -9.832   3.139  -0.080  0.00  0.00    +0.070 A 
ATOM     11  N   UNL     1     -11.362   4.984   0.136  0.00  0.00    -0.251 N 
ATOM     12  C   UNL     1     -12.358   4.226   0.636  0.00  0.00    +0.405 C 
ATOM     13  O   UNL     1     -12.106   3.157   1.156  0.00  0.00    -0.226 OA
ATOM     14  H   UNL     1     -11.579   5.989  -0.255  0.00  0.00    +0.158 HD
ENDROOT
BRANCH   3  15
ATOM     15  O   UNL     1      -6.877  -0.345  -0.489  0.00  0.00    -0.480 OA
ATOM     16  H   UNL     1      -7.744  -1.008  -0.624  0.00  0.00    +0.295 HD
ENDBRANCH   3  15
BRANCH   1  17
ATOM     17  C   UNL     1      -4.908   3.930   0.240  0.00  0.00    +0.269 C 
BRANCH  17  18
ATOM     18  O   UNL     1      -3.683   3.154   0.172  0.00  0.00    -0.456 OA
BRANCH  18  19
ATOM     19  C   UNL     1      -2.524   3.825   0.321  0.00  0.00    +0.340 C 
ATOM     20  O   UNL     1      -2.538   5.027   0.503  0.00  0.00    -0.245 OA
BRANCH  19  24
ATOM     21  C   UNL     1       1.173   1.744   0.156  0.00  0.00    +0.151 A 
ATOM     22  C   UNL     1      -0.022   1.050   0.001  0.00  0.00    +0.049 A 
ATOM     23  C   UNL     1      -1.222   1.721   0.049  0.00  0.00    +0.019 A 
ATOM     24  C   UNL     1      -1.240   3.103   0.264  0.00  0.00    +0.061 A 
ATOM     25  C   UNL     1      -0.037   3.797   0.418  0.00  0.00    +0.051 A 
ATOM     26  C   UNL     1       1.159   3.119   0.364  0.00  0.00    +0.168 A 
BRANCH  26  27
ATOM     27  N   UNL     1       2.434   3.853   0.528  0.00  0.00    +0.060 N 
ATOM     28  O   UNL     1       2.424   5.058   0.711  0.00  0.00    -0.126 OA
ATOM     29  O   UNL     1       3.493   3.254   0.480  0.00  0.00    -0.126 OA
ENDBRANCH  26  27
BRANCH  21  30
ATOM     30  O   UNL     1       2.354   1.079   0.103  0.00  0.00    -0.490 OA
BRANCH  30  32
ATOM     31  C   UNL     1       3.714  -0.903  -0.144  0.00  0.00    +0.048 C 
ATOM     32  C   UNL     1       2.295  -0.332  -0.115  0.00  0.00    +0.226 C 
ENDBRANCH  30  32
ENDBRANCH  21  30
ENDBRANCH  19  24
ENDBRANCH  18  19
ENDBRANCH  17  18
ENDBRANCH   1  17
BRANCH  12  33
ATOM     33  O   UNL     1     -13.633   4.653   0.559  0.00  0.00    -0.450 OA
BRANCH  33  34
ATOM     34  C   UNL     1     -14.654   3.785   1.118  0.00  0.00    +0.230 C 
ATOM     35  C   UNL     1     -16.028   4.433   0.938  0.00  0.00    +0.048 C 
ENDBRANCH  33  34
ENDBRANCH  12  33
TORSDOF 10
