REMARK  Name = ZINC60032327
REMARK  9 active torsions:
REMARK  status: ('A' for Active; 'I' for Inactive)
REMARK    1  A    between atoms: C_1  and  S_2
REMARK    2  A    between atoms: S_2  and  N_5
REMARK    3  A    between atoms: N_5  and  C_6
REMARK    4  A    between atoms: C_6  and  C_7
REMARK    5  A    between atoms: N_9  and  C_10
REMARK    6  A    between atoms: C_10  and  C_11
REMARK    7  A    between atoms: C_11  and  C_13
REMARK    8  A    between atoms: C_11  and  C_19
REMARK    9  A    between atoms: C_28  and  C_29
REMARK                            x       y       z     vdW  Elec       q    Type
REMARK                         _______ _______ _______ _____ _____    ______ ____
ROOT
ATOM      1  C   UNL     1       6.113  -1.075  -4.356  0.00  0.00    +0.069 C 
ENDROOT
BRANCH   1   2
ATOM      2  C   UNL     1       7.230  -1.844  -5.012  0.00  0.00    -0.006 A 
ATOM      3  C   UNL     1       8.253  -1.302  -5.905  0.00  0.00    +0.004 A 
ATOM      4  C   UNL     1       8.521  -0.025  -6.407  0.00  0.00    +0.010 A 
ATOM      5  C   UNL     1       9.582   0.165  -7.246  0.00  0.00    +0.001 A 
ATOM      6  C   UNL     1      10.397  -0.901  -7.605  0.00  0.00    +0.002 A 
ATOM      7  C   UNL     1      10.151  -2.168  -7.122  0.00  0.00    +0.026 A 
ATOM      8  C   UNL     1       9.077  -2.385  -6.266  0.00  0.00    +0.047 A 
ATOM      9  N   UNL     1       8.585  -3.505  -5.633  0.00  0.00    -0.354 N 
ATOM     10  H   UNL     1       8.961  -4.396  -5.704  0.00  0.00    +0.166 HD
ATOM     11  C   UNL     1       7.483  -3.170  -4.881  0.00  0.00    +0.051 A 
BRANCH  11  12
ATOM     12  C   UNL     1       6.693  -4.111  -4.059  0.00  0.00    -0.001 A 
ATOM     13  C   UNL     1       6.301  -3.755  -2.768  0.00  0.00    +0.010 A 
ATOM     14  C   UNL     1       5.563  -4.638  -2.006  0.00  0.00    +0.001 A 
ATOM     15  C   UNL     1       5.212  -5.874  -2.519  0.00  0.00    +0.000 A 
ATOM     16  C   UNL     1       5.598  -6.233  -3.799  0.00  0.00    +0.001 A 
ATOM     17  C   UNL     1       6.331  -5.357  -4.573  0.00  0.00    +0.010 A 
ENDBRANCH  11  12
ENDBRANCH   1   2
BRANCH   1  18
ATOM     18  C   UNL     1       6.210   0.379  -4.742  0.00  0.00    -0.038 A 
ATOM     19  C   UNL     1       5.721   0.804  -5.963  0.00  0.00    +0.004 A 
ATOM     20  C   UNL     1       5.810   2.138  -6.317  0.00  0.00    +0.000 A 
ATOM     21  C   UNL     1       6.387   3.046  -5.449  0.00  0.00    +0.000 A 
ATOM     22  C   UNL     1       6.875   2.621  -4.228  0.00  0.00    +0.000 A 
ATOM     23  C   UNL     1       6.782   1.288  -3.872  0.00  0.00    +0.004 A 
ENDBRANCH   1  18
BRANCH   1  24
ATOM     24  C   UNL     1       4.767  -1.636  -4.819  0.00  0.00    +0.117 C 
BRANCH  24  27
ATOM     25  C   UNL     1       2.401  -1.305  -4.337  0.00  0.00    +0.229 C 
ATOM     26  O   UNL     1       2.145  -2.159  -5.159  0.00  0.00    -0.274 OA
ATOM     27  N   UNL     1       3.683  -0.970  -4.092  0.00  0.00    -0.313 N 
ATOM     28  H   UNL     1       3.889  -0.286  -3.435  0.00  0.00    +0.149 HD
BRANCH  25  29
ATOM     29  C   UNL     1       1.287  -0.619  -3.590  0.00  0.00    +0.201 C 
BRANCH  29  30
ATOM     30  N   UNL     1      -0.002  -1.157  -4.033  0.00  0.00    -0.186 NA
ATOM     31  H   UNL     1      -0.054  -1.680  -4.848  0.00  0.00    +0.148 HD
BRANCH  30  33
ATOM     32  C   UNL     1      -1.621   0.921  -3.236  0.00  0.00    +0.214 C 
ATOM     33  S   UNL     1      -1.368  -0.873  -3.142  0.00  0.00    +0.027 S 
ATOM     34  O   UNL     1      -1.022  -1.249  -1.817  0.00  0.00    -0.158 OA
ATOM     35  O   UNL     1      -2.404  -1.550  -3.841  0.00  0.00    -0.158 OA
ENDBRANCH  30  33
ENDBRANCH  29  30
ENDBRANCH  25  29
ENDBRANCH  24  27
ENDBRANCH   1  24
TORSDOF 8
