REMARK  Name = ZINC39774605
REMARK  10 active torsions:
REMARK  status: ('A' for Active; 'I' for Inactive)
REMARK    1  A    between atoms: C_1  and  C_2
REMARK    2  A    between atoms: C_2  and  C_3
REMARK    3  A    between atoms: C_3  and  C_4
REMARK    4  A    between atoms: C_3  and  C_5
REMARK    5  A    between atoms: C_3  and  N_6
REMARK    6  A    between atoms: C_7  and  C_9
REMARK    7  A    between atoms: C_9  and  S_10
REMARK    8  A    between atoms: S_10  and  C_11
REMARK    9  A    between atoms: C_15  and  C_20
REMARK   10  A    between atoms: N_16  and  C_17
REMARK                            x       y       z     vdW  Elec       q    Type
REMARK                         _______ _______ _______ _____ _____    ______ ____
ROOT
ATOM      1  C   UNL     1       2.128  -6.456  -3.599  0.00  0.00    +0.237 C 
ATOM      2  N   UNL     1       0.703  -6.767  -3.400  0.00  0.00    -0.237 N 
ATOM      3  N   UNL     1       0.627  -7.573  -2.258  0.00  0.00    -0.169 NA
ATOM      4  C   UNL     1       1.812  -7.786  -1.748  0.00  0.00    +0.147 C 
ATOM      5  N   UNL     1       2.811  -7.147  -2.494  0.00  0.00    -0.282 N 
ATOM      6  H   UNL     1      -0.038  -6.471  -3.951  0.00  0.00    +0.171 HD
ENDROOT
BRANCH   4   7
ATOM      7  C   UNL     1       2.052  -8.557  -0.601  0.00  0.00    +0.022 C 
ATOM      8  C   UNL     1       1.122  -9.298   0.128  0.00  0.00    +0.006 A 
ATOM      9  C   UNL     1      -0.265  -9.507  -0.031  0.00  0.00    +0.010 A 
ATOM     10  C   UNL     1      -0.932 -10.297   0.849  0.00  0.00    +0.001 A 
ATOM     11  C   UNL     1      -0.279 -10.915   1.918  0.00  0.00    +0.002 A 
ATOM     12  C   UNL     1       1.051 -10.759   2.130  0.00  0.00    +0.026 A 
ATOM     13  C   UNL     1       1.815  -9.947   1.252  0.00  0.00    +0.043 A 
ATOM     14  N   UNL     1       3.098  -9.642   1.242  0.00  0.00    -0.380 N 
ATOM     15  C   UNL     1       3.376  -8.763   0.101  0.00  0.00    +0.152 C 
ATOM     16  H   UNL     1       3.754  -9.952   1.885  0.00  0.00    +0.160 HD
ENDBRANCH   4   7
BRANCH   5  17
ATOM     17  C   UNL     1       4.251  -7.162  -2.227  0.00  0.00    +0.078 C 
ATOM     18  C   UNL     1       5.146  -6.315  -3.133  0.00  0.00    +0.024 C 
ATOM     19  C   UNL     1       5.154  -7.840  -3.260  0.00  0.00    +0.024 C 
ENDBRANCH   5  17
BRANCH   1  20
ATOM     20  S   UNL     1       2.407  -4.667  -3.498  0.00  0.00    -0.109 S 
BRANCH  20  21
ATOM     21  C   UNL     1       1.762  -4.214  -1.864  0.00  0.00    +0.168 C 
BRANCH  21  23
ATOM     22  N   UNL     1       1.525  -2.167  -0.496  0.00  0.00    -0.310 N 
ATOM     23  C   UNL     1       1.935  -2.732  -1.648  0.00  0.00    +0.223 C 
ATOM     24  O   UNL     1       2.443  -2.049  -2.512  0.00  0.00    -0.275 OA
ATOM     25  H   UNL     1       1.118  -2.713   0.195  0.00  0.00    +0.149 HD
BRANCH  22  26
ATOM     26  C   UNL     1       1.693  -0.727  -0.286  0.00  0.00    +0.029 C 
ATOM     27  C   UNL     1       0.926   0.039  -1.367  0.00  0.00    +0.031 C 
ATOM     28  C   UNL     1       3.178  -0.369  -0.365  0.00  0.00    +0.031 C 
BRANCH  26  30
ATOM     29  C   UNL     1       1.324   1.159   1.310  0.00  0.00    +0.006 C 
ATOM     30  C   UNL     1       1.149  -0.345   1.092  0.00  0.00    +0.022 C 
ENDBRANCH  26  30
ENDBRANCH  22  26
ENDBRANCH  21  23
ENDBRANCH  20  21
ENDBRANCH   1  20
TORSDOF 7
