REMARK  Name = ZINC66945330
REMARK  6 active torsions:
REMARK  status: ('A' for Active; 'I' for Inactive)
REMARK    1  A    between atoms: N_8  and  C_12
REMARK    2  A    between atoms: C_12  and  C_13
REMARK    3  A    between atoms: C_13  and  C_14
REMARK    4  A    between atoms: C_14  and  C_15
REMARK    5  A    between atoms: C_21  and  C_23
REMARK    6  A    between atoms: C_23  and  N_24
REMARK                            x       y       z     vdW  Elec       q    Type
REMARK                         _______ _______ _______ _____ _____    ______ ____
ROOT
ATOM      1  C   UNL     1       1.628  -6.189   0.092  0.00  0.00    +0.097 C 
ENDROOT
BRANCH   1   2
ATOM      2  C   UNL     1       0.557  -7.247   0.024  0.00  0.00    +0.216 C 
ATOM      3  O   UNL     1      -0.524  -6.984  -0.458  0.00  0.00    -0.276 OA
ATOM      4  N   UNL     1       0.801  -8.484   0.498  0.00  0.00    -0.300 N 
ATOM      5  C   UNL     1       2.095  -8.966   1.015  0.00  0.00    +0.108 C 
ATOM      6  C   UNL     1       2.043 -10.505   0.841  0.00  0.00    +0.021 C 
ATOM      7  C   UNL     1       0.556 -10.805   1.165  0.00  0.00    +0.022 C 
ATOM      8  C   UNL     1      -0.180  -9.575   0.592  0.00  0.00    +0.060 C 
BRANCH   8   9
ATOM      9  C   UNL     1      -1.323  -9.168   1.524  0.00  0.00    -0.056 C 
BRANCH   9  10
ATOM     10  N   UNL     1      -2.391 -10.173   1.457  0.00  0.00    +0.381 N 
ATOM     11  C   UNL     1      -1.946 -11.437   2.098  0.00  0.00    -0.079 C 
ATOM     12  C   UNL     1      -3.279 -12.145   2.450  0.00  0.00    -0.020 C 
ATOM     13  C   UNL     1      -4.190 -10.972   2.880  0.00  0.00    -0.020 C 
ATOM     14  C   UNL     1      -3.567  -9.721   2.232  0.00  0.00    -0.079 C 
ATOM     15  H   UNL     1      -2.651 -10.342   0.497  0.00  0.00    -0.082 HD
ENDBRANCH   9  10
ENDBRANCH   8   9
ENDBRANCH   1   2
BRANCH   1  16
ATOM     16  C   UNL     1       1.097  -4.886  -0.509  0.00  0.00    +0.029 C 
BRANCH  16  17
ATOM     17  C   UNL     1       2.184  -3.812  -0.440  0.00  0.00    +0.118 C 
BRANCH  17  25
ATOM     18  C   UNL     1      -0.954   1.256  -1.604  0.00  0.00    +0.003 C 
ATOM     19  C   UNL     1       0.473   1.840  -1.683  0.00  0.00    +0.003 C 
ATOM     20  C   UNL     1       1.351   0.812  -0.923  0.00  0.00    +0.035 C 
ATOM     21  C   UNL     1       0.710  -0.531  -1.309  0.00  0.00    +0.113 C 
ATOM     22  C   UNL     1      -0.796  -0.261  -1.378  0.00  0.00    +0.035 C 
ATOM     23  C   UNL     1       1.039  -1.605  -0.308  0.00  0.00    +0.246 C 
ATOM     24  O   UNL     1       0.788  -1.608   0.878  0.00  0.00    -0.273 OA
ATOM     25  N   UNL     1       1.676  -2.564  -1.016  0.00  0.00    -0.224 N 
ATOM     26  C   UNL     1       1.784  -2.232  -2.309  0.00  0.00    +0.309 C 
ATOM     27  O   UNL     1       2.317  -2.934  -3.145  0.00  0.00    -0.252 OA
ATOM     28  N   UNL     1       1.233  -1.030  -2.579  0.00  0.00    -0.285 N 
ATOM     29  H   UNL     1       1.193  -0.587  -3.441  0.00  0.00    +0.151 HD
ENDBRANCH  17  25
ENDBRANCH  16  17
ENDBRANCH   1  16
TORSDOF 6
