REMARK  Name = ZINC21531069
REMARK  13 active torsions:
REMARK  status: ('A' for Active; 'I' for Inactive)
REMARK    1  A    between atoms: C_1  and  C_2
REMARK    2  A    between atoms: C_2  and  C_3
REMARK    3  A    between atoms: C_3  and  C_4
REMARK    4  A    between atoms: C_4  and  N_5
REMARK    5  A    between atoms: C_10  and  C_24
REMARK    6  A    between atoms: C_14  and  C_15
REMARK    7  A    between atoms: C_14  and  C_16
REMARK    8  A    between atoms: N_18  and  C_19
REMARK    9  A    between atoms: N_26  and  C_27
REMARK   10  A    between atoms: C_27  and  C_28
REMARK   11  A    between atoms: C_28  and  N_29
REMARK   12  A    between atoms: N_32  and  C_35
REMARK   13  A    between atoms: C_35  and  C_36
REMARK                            x       y       z     vdW  Elec       q    Type
REMARK                         _______ _______ _______ _____ _____    ______ ____
ROOT
ATOM      1  N   UNL     1      -8.175  -6.593  -1.207  0.00  0.00    -0.281 N 
ATOM      2  C   UNL     1      -6.872  -6.941  -1.072  0.00  0.00    +0.266 C 
ATOM      3  O   UNL     1      -6.511  -8.102  -1.110  0.00  0.00    -0.268 OA
ATOM      4  C   UNL     1      -5.918  -5.837  -0.877  0.00  0.00    +0.124 A 
ATOM      5  C   UNL     1      -4.565  -5.813  -0.902  0.00  0.00    +0.067 A 
ATOM      6  C   UNL     1      -4.215  -4.463  -0.673  0.00  0.00    +0.148 A 
ATOM      7  N   UNL     1      -5.339  -3.777  -0.536  0.00  0.00    -0.166 NA
ATOM      8  N   UNL     1      -6.349  -4.549  -0.639  0.00  0.00    -0.256 N 
ATOM      9  C   UNL     1      -7.780  -4.236  -0.525  0.00  0.00    +0.179 C 
ATOM     10  C   UNL     1      -8.579  -5.205  -1.396  0.00  0.00    +0.130 C 
ATOM     11  C   UNL     1     -10.063  -5.071  -1.050  0.00  0.00    +0.044 C 
ENDROOT
BRANCH  10  12
ATOM     12  C   UNL     1      -8.381  -4.833  -2.843  0.00  0.00    +0.238 C 
ATOM     13  O   UNL     1      -9.153  -4.070  -3.384  0.00  0.00    -0.273 OA
ATOM     14  N   UNL     1      -7.346  -5.347  -3.536  0.00  0.00    -0.311 N 
ATOM     15  H   UNL     1      -6.645  -6.039  -3.045  0.00  0.00    +0.149 HD
BRANCH  14  16
ATOM     16  C   UNL     1      -7.153  -4.986  -4.942  0.00  0.00    +0.073 C 
ATOM     17  C   UNL     1      -7.954  -5.944  -5.848  0.00  0.00    +0.022 C 
ATOM     18  C   UNL     1      -7.042  -6.148  -7.084  0.00  0.00    +0.002 C 
ATOM     19  C   UNL     1      -5.626  -6.198  -6.459  0.00  0.00    +0.002 C 
ATOM     20  C   UNL     1      -5.673  -5.147  -5.330  0.00  0.00    +0.022 C 
ENDBRANCH  14  16
ENDBRANCH  10  12
BRANCH   6  21
ATOM     21  C   UNL     1      -2.845  -3.915  -0.607  0.00  0.00    +0.264 C 
ATOM     22  O   UNL     1      -1.888  -4.651  -0.750  0.00  0.00    -0.268 OA
ATOM     23  N   UNL     1      -2.655  -2.599  -0.387  0.00  0.00    -0.309 N 
ATOM     24  H   UNL     1      -3.520  -1.932  -0.257  0.00  0.00    +0.149 HD
BRANCH  23  25
ATOM     25  C   UNL     1      -1.296  -2.055  -0.321  0.00  0.00    +0.120 C 
BRANCH  25  26
ATOM     26  C   UNL     1      -1.361  -0.549  -0.064  0.00  0.00    +0.103 C 
BRANCH  26  27
ATOM     27  N   UNL     1       0.002  -0.004   0.002  0.00  0.00    -0.304 NA
ATOM     28  C   UNL     1      -0.018   1.465   0.010  0.00  0.00    +0.066 C 
ATOM     29  C   UNL     1       1.419   1.992  -0.001  0.00  0.00    -0.063 C 
ATOM     30  N   UNL     1       2.138   1.472   1.171  0.00  0.00    +0.381 N 
ATOM     31  C   UNL     1       2.158   0.003   1.162  0.00  0.00    -0.063 C 
ATOM     32  C   UNL     1       0.721  -0.525   1.173  0.00  0.00    +0.066 C 
ATOM     33  H   UNL     1       1.600   1.799   2.072  0.00  0.00    -0.082 HD
BRANCH  30  34
ATOM     34  C   UNL     1       3.501   2.017   1.237  0.00  0.00    -0.082 C 
ATOM     35  C   UNL     1       3.459   3.526   0.993  0.00  0.00    -0.017 C 
ENDBRANCH  30  34
ENDBRANCH  26  27
ENDBRANCH  25  26
ENDBRANCH  23  25
ENDBRANCH   6  21
BRANCH   1  36
ATOM     36  C   UNL     1      -9.201  -7.637  -1.162  0.00  0.00    +0.109 C 
BRANCH  36  37
ATOM     37  C   UNL     1      -9.663  -7.837   0.283  0.00  0.00    +0.019 C 
BRANCH  37  39
ATOM     38  C   UNL     1     -11.197  -9.126   1.775  0.00  0.00    +0.004 C 
ATOM     39  C   UNL     1     -10.736  -8.927   0.330  0.00  0.00    -0.002 C 
ENDBRANCH  37  39
ENDBRANCH  36  37
ENDBRANCH   1  36
TORSDOF 10
