REMARK  Name = ZINC36588635
REMARK  18 active torsions:
REMARK  status: ('A' for Active; 'I' for Inactive)
REMARK    1  A    between atoms: C_1  and  C_2
REMARK    2  A    between atoms: C_2  and  C_3
REMARK    3  A    between atoms: C_2  and  C_4
REMARK    4  A    between atoms: C_2  and  N_5
REMARK    5  A    between atoms: C_6  and  C_8
REMARK    6  A    between atoms: C_8  and  C_10
REMARK    7  A    between atoms: C_8  and  N_19
REMARK    8  A    between atoms: C_11  and  O_18
REMARK    9  A    between atoms: C_13  and  O_17
REMARK   10  A    between atoms: C_15  and  O_16
REMARK   11  A    between atoms: N_19  and  C_36
REMARK   12  A    between atoms: C_20  and  C_22
REMARK   13  A    between atoms: C_22  and  C_23
REMARK   14  A    between atoms: C_22  and  C_29
REMARK   15  A    between atoms: C_22  and  O_35
REMARK   16  A    between atoms: C_36  and  C_37
REMARK   17  A    between atoms: C_36  and  C_38
REMARK   18  A    between atoms: C_36  and  C_39
REMARK                            x       y       z     vdW  Elec       q    Type
REMARK                         _______ _______ _______ _____ _____    ______ ____
ROOT
ATOM      1  N   UNL     1       4.911   0.585  -2.688  0.00  0.00    -0.278 N 
ATOM      2  C   UNL     1       5.343  -0.691  -2.721  0.00  0.00    +0.258 C 
ATOM      3  O   UNL     1       5.333  -1.308  -3.765  0.00  0.00    -0.272 OA
ENDROOT
BRANCH   1   4
ATOM      4  C   UNL     1       4.975   1.349  -1.440  0.00  0.00    +0.030 C 
ATOM      5  C   UNL     1       3.766   1.004  -0.568  0.00  0.00    +0.031 C 
ATOM      6  C   UNL     1       6.261   0.993  -0.691  0.00  0.00    +0.031 C 
ATOM      7  C   UNL     1       4.966   2.846  -1.756  0.00  0.00    +0.031 C 
ENDBRANCH   1   4
BRANCH   1   8
ATOM      8  C   UNL     1       4.377   1.209  -3.902  0.00  0.00    +0.200 C 
BRANCH   8   9
ATOM      9  C   UNL     1       4.102   0.146  -4.934  0.00  0.00    +0.065 A 
ATOM     10  C   UNL     1       5.152  -0.577  -5.480  0.00  0.00    +0.129 A 
ATOM     11  C   UNL     1       4.899  -1.555  -6.430  0.00  0.00    +0.091 A 
ATOM     12  C   UNL     1       3.597  -1.810  -6.834  0.00  0.00    +0.124 A 
ATOM     13  C   UNL     1       2.547  -1.087  -6.287  0.00  0.00    +0.091 A 
ATOM     14  C   UNL     1       2.800  -0.112  -5.334  0.00  0.00    +0.129 A 
BRANCH  14  15
ATOM     15  O   UNL     1       1.771   0.593  -4.794  0.00  0.00    -0.506 OA
ATOM     16  H   UNL     1       1.550   1.400  -5.279  0.00  0.00    +0.292 HD
ENDBRANCH  14  15
BRANCH  12  17
ATOM     17  O   UNL     1       3.349  -2.768  -7.765  0.00  0.00    -0.507 OA
ATOM     18  H   UNL     1       3.197  -3.648  -7.394  0.00  0.00    +0.292 HD
ENDBRANCH  12  17
BRANCH  10  19
ATOM     19  O   UNL     1       6.427  -0.327  -5.085  0.00  0.00    -0.506 OA
ATOM     20  H   UNL     1       6.685  -0.788  -4.274  0.00  0.00    +0.292 HD
ENDBRANCH  10  19
ENDBRANCH   8   9
BRANCH   8  22
ATOM     21  N   UNL     1       5.178   2.768  -5.646  0.00  0.00    -0.309 N 
ATOM     22  C   UNL     1       5.382   2.191  -4.446  0.00  0.00    +0.239 C 
ATOM     23  O   UNL     1       6.375   2.461  -3.804  0.00  0.00    -0.273 OA
ATOM     24  H   UNL     1       4.384   2.553  -6.160  0.00  0.00    +0.149 HD
BRANCH  21  26
ATOM     25  C   UNL     1       7.513   3.033  -6.324  0.00  0.00    +0.031 C 
ATOM     26  C   UNL     1       6.156   3.723  -6.176  0.00  0.00    +0.026 C 
ATOM     27  C   UNL     1       6.287   4.905  -5.214  0.00  0.00    +0.031 C 
ATOM     28  C   UNL     1       5.688   4.226  -7.543  0.00  0.00    +0.031 C 
ENDBRANCH  21  26
ENDBRANCH   8  22
ENDBRANCH   1   8
BRANCH   2  29
ATOM     29  C   UNL     1       5.838  -1.351  -1.460  0.00  0.00    +0.192 C 
BRANCH  29  30
ATOM     30  C   UNL     1       4.752  -1.319  -0.416  0.00  0.00    -0.003 A 
ATOM     31  C   UNL     1       3.485  -1.779  -0.723  0.00  0.00    +0.007 A 
ATOM     32  C   UNL     1       2.488  -1.750   0.235  0.00  0.00    +0.000 A 
ATOM     33  C   UNL     1       2.759  -1.260   1.499  0.00  0.00    +0.000 A 
ATOM     34  C   UNL     1       4.026  -0.801   1.806  0.00  0.00    +0.000 A 
ATOM     35  C   UNL     1       5.024  -0.835   0.850  0.00  0.00    +0.007 A 
ENDBRANCH  29  30
BRANCH  29  36
ATOM     36  C   UNL     1       6.209  -2.782  -1.755  0.00  0.00    -0.003 A 
ATOM     37  C   UNL     1       5.542  -3.479  -2.744  0.00  0.00    +0.007 A 
ATOM     38  C   UNL     1       5.882  -4.792  -3.014  0.00  0.00    +0.000 A 
ATOM     39  C   UNL     1       6.891  -5.406  -2.296  0.00  0.00    +0.000 A 
ATOM     40  C   UNL     1       7.559  -4.708  -1.308  0.00  0.00    +0.000 A 
ATOM     41  C   UNL     1       7.221  -3.395  -1.040  0.00  0.00    +0.007 A 
ENDBRANCH  29  36
BRANCH  29  42
ATOM     42  O   UNL     1       6.986  -0.652  -0.975  0.00  0.00    -0.371 OA
ATOM     43  H   UNL     1       7.699  -0.569  -1.623  0.00  0.00    +0.212 HD
ENDBRANCH  29  42
ENDBRANCH   2  29
TORSDOF 12
