REMARK  Name = ZINC12017263
REMARK  8 active torsions:
REMARK  status: ('A' for Active; 'I' for Inactive)
REMARK    1  A    between atoms: C_1  and  C_2
REMARK    2  A    between atoms: C_2  and  O_3
REMARK    3  A    between atoms: O_3  and  C_4
REMARK    4  A    between atoms: C_4  and  C_6
REMARK    5  A    between atoms: C_10  and  N_11
REMARK    6  A    between atoms: C_16  and  C_30
REMARK    7  A    between atoms: N_18  and  C_24
REMARK    8  A    between atoms: C_33  and  C_36
REMARK                            x       y       z     vdW  Elec       q    Type
REMARK                         _______ _______ _______ _____ _____    ______ ____
ROOT
ATOM      1  N   UNL     1      -3.032  -2.522   2.502  0.00  0.00    -0.201 N 
ATOM      2  C   UNL     1      -3.788  -2.756   3.581  0.00  0.00    +0.235 C 
ATOM      3  O   UNL     1      -4.938  -3.139   3.561  0.00  0.00    -0.274 OA
ATOM      4  C   UNL     1      -2.984  -2.469   4.827  0.00  0.00    +0.145 C 
ATOM      5  C   UNL     1      -3.566  -1.225   5.537  0.00  0.00    +0.157 C 
ATOM      6  N   UNL     1      -2.358  -0.407   5.805  0.00  0.00    -0.244 N 
ATOM      7  O   UNL     1      -1.545  -0.577   4.642  0.00  0.00    -0.257 OA
ATOM      8  C   UNL     1      -1.617  -1.985   4.272  0.00  0.00    +0.249 C 
ATOM      9  C   UNL     1      -1.792  -2.098   2.773  0.00  0.00    +0.259 C 
ATOM     10  O   UNL     1      -0.942  -1.843   1.947  0.00  0.00    -0.272 OA
ENDROOT
BRANCH   1  15
ATOM     11  C   UNL     1      -3.446  -3.863   0.440  0.00  0.00    +0.091 A 
ATOM     12  C   UNL     1      -4.009  -3.799  -0.898  0.00  0.00    -0.021 A 
ATOM     13  C   UNL     1      -4.513  -2.590  -1.228  0.00  0.00    -0.004 A 
ATOM     14  S   UNL     1      -4.240  -1.585   0.202  0.00  0.00    -0.077 S 
ATOM     15  C   UNL     1      -3.495  -2.708   1.204  0.00  0.00    +0.096 A 
ATOM     16  C   UNL     1      -5.155  -2.207  -2.525  0.00  0.00    +0.043 C 
ATOM     17  C   UNL     1      -4.820  -3.285  -3.566  0.00  0.00    +0.005 C 
ATOM     18  C   UNL     1      -5.088  -4.664  -2.956  0.00  0.00    +0.005 C 
ATOM     19  C   UNL     1      -4.050  -4.966  -1.873  0.00  0.00    +0.037 C 
BRANCH  11  20
ATOM     20  C   UNL     1      -2.856  -5.099   0.961  0.00  0.00    +0.342 C 
ATOM     21  O   UNL     1      -3.551  -5.902   1.555  0.00  0.00    -0.245 OA
BRANCH  20  22
ATOM     22  O   UNL     1      -1.543  -5.347   0.783  0.00  0.00    -0.461 OA
BRANCH  22  24
ATOM     23  C   UNL     1       0.462  -6.676   1.019  0.00  0.00    +0.048 C 
ATOM     24  C   UNL     1      -1.035  -6.571   1.317  0.00  0.00    +0.229 C 
ENDBRANCH  22  24
ENDBRANCH  20  22
ENDBRANCH  11  20
ENDBRANCH   1  15
BRANCH   5  25
ATOM     25  C   UNL     1      -4.523  -0.493   4.633  0.00  0.00    -0.022 A 
ATOM     26  C   UNL     1      -4.037   0.351   3.651  0.00  0.00    +0.006 A 
ATOM     27  C   UNL     1      -4.915   1.023   2.821  0.00  0.00    +0.004 A 
ATOM     28  C   UNL     1      -6.278   0.851   2.972  0.00  0.00    -0.050 A 
ATOM     29  C   UNL     1      -6.763   0.007   3.953  0.00  0.00    +0.004 A 
ATOM     30  C   UNL     1      -5.886  -0.669   4.780  0.00  0.00    +0.006 A 
ATOM     31  C   UNL     1      -7.235   1.584   2.068  0.00  0.00    +0.044 C 
ENDBRANCH   5  25
BRANCH   6  32
ATOM     32  C   UNL     1      -2.078   0.359   6.939  0.00  0.00    +0.065 A 
ATOM     33  C   UNL     1      -2.987   0.407   7.988  0.00  0.00    +0.028 A 
ATOM     34  C   UNL     1      -2.707   1.164   9.108  0.00  0.00    +0.002 A 
ATOM     35  C   UNL     1      -1.524   1.875   9.186  0.00  0.00    +0.000 A 
ATOM     36  C   UNL     1      -0.616   1.829   8.144  0.00  0.00    +0.002 A 
ATOM     37  C   UNL     1      -0.887   1.069   7.023  0.00  0.00    +0.028 A 
ENDBRANCH   6  32
TORSDOF 6
