REMARK  Name = ZINC39389103
REMARK  9 active torsions:
REMARK  status: ('A' for Active; 'I' for Inactive)
REMARK    1  A    between atoms: C_1  and  C_2
REMARK    2  A    between atoms: C_2  and  N_3
REMARK    3  A    between atoms: N_3  and  C_4
REMARK    4  A    between atoms: C_4  and  C_5
REMARK    5  A    between atoms: C_6  and  C_8
REMARK    6  A    between atoms: C_8  and  N_9
REMARK    7  A    between atoms: C_17  and  C_18
REMARK    8  A    between atoms: C_17  and  C_20
REMARK    9  A    between atoms: C_26  and  C_30
REMARK                            x       y       z     vdW  Elec       q    Type
REMARK                         _______ _______ _______ _____ _____    ______ ____
ROOT
ATOM      1  N   UNL     1      -3.140  -1.139   2.946  0.00  0.00    -0.258 N 
ATOM      2  C   UNL     1      -3.062  -2.350   3.627  0.00  0.00    +0.045 A 
ATOM      3  C   UNL     1      -2.348  -3.513   3.362  0.00  0.00    +0.025 A 
ATOM      4  C   UNL     1      -2.446  -4.596   4.212  0.00  0.00    +0.017 A 
ATOM      5  C   UNL     1      -3.255  -4.541   5.336  0.00  0.00    +0.019 A 
ATOM      6  C   UNL     1      -3.973  -3.394   5.615  0.00  0.00    +0.025 A 
ATOM      7  C   UNL     1      -3.880  -2.297   4.764  0.00  0.00    +0.011 A 
ATOM      8  C   UNL     1      -4.499  -0.954   4.773  0.00  0.00    +0.063 C 
ATOM      9  C   UNL     1      -5.369  -0.448   5.690  0.00  0.00    +0.084 C 
ATOM     10  C   UNL     1      -3.961  -0.277   3.569  0.00  0.00    +0.253 C 
ATOM     11  O   UNL     1      -4.219   0.855   3.208  0.00  0.00    -0.270 OA
ATOM     12 BR   UNL     1      -3.376  -6.036   6.488  0.00  0.00    -0.050 Br
ENDROOT
BRANCH   9  13
ATOM     13  C   UNL     1      -5.673  -1.221   6.947  0.00  0.00    +0.217 C 
ATOM     14  N   UNL     1      -5.831  -0.300   8.079  0.00  0.00    -0.359 N 
ATOM     15  C   UNL     1      -7.040  -0.450   8.539  0.00  0.00    +0.060 A 
ATOM     16  C   UNL     1      -7.774   0.183   9.643  0.00  0.00    +0.027 A 
ATOM     17  C   UNL     1      -9.048  -0.182   9.890  0.00  0.00    +0.005 A 
ATOM     18  C   UNL     1      -9.719  -1.156   9.128  0.00  0.00    -0.048 A 
ATOM     19  C   UNL     1      -9.139  -1.796   8.094  0.00  0.00    +0.030 A 
ATOM     20  C   UNL     1      -7.750  -1.480   7.733  0.00  0.00    +0.061 A 
ATOM     21  N   UNL     1      -6.952  -1.929   6.806  0.00  0.00    -0.359 N 
ATOM     22  C   UNL     1     -11.144  -1.496   9.482  0.00  0.00    +0.044 C 
ATOM     23  H   UNL     1      -5.158   0.308   8.423  0.00  0.00    +0.162 HD
ATOM     24  H   UNL     1      -7.163  -2.606   6.144  0.00  0.00    +0.162 HD
ENDBRANCH   9  13
BRANCH   9  25
ATOM     25  C   UNL     1      -5.995   0.819   5.460  0.00  0.00    +0.100 C 
ATOM     26  N   UNL     1      -6.492   1.824   5.277  0.00  0.00    -0.191 NA
ENDBRANCH   9  25
BRANCH   1  27
ATOM     27  C   UNL     1      -2.414  -0.840   1.709  0.00  0.00    +0.209 C 
BRANCH  27  29
ATOM     28  N   UNL     1      -0.225   0.111   1.060  0.00  0.00    -0.301 N 
ATOM     29  C   UNL     1      -1.071  -0.245   2.046  0.00  0.00    +0.233 C 
ATOM     30  O   UNL     1      -0.752  -0.087   3.206  0.00  0.00    -0.274 OA
BRANCH  28  32
ATOM     31  C   UNL     1       0.955   2.212   1.482  0.00  0.00    +0.024 C 
ATOM     32  C   UNL     1       1.081   0.690   1.388  0.00  0.00    +0.104 C 
ENDBRANCH  28  32
BRANCH  28  33
ATOM     33  C   UNL     1      -0.610  -0.080  -0.341  0.00  0.00    +0.104 C 
ATOM     34  C   UNL     1      -0.165  -1.467  -0.807  0.00  0.00    +0.024 C 
ENDBRANCH  28  33
ENDBRANCH  27  29
ENDBRANCH   1  27
TORSDOF 6
