REMARK  Name = ZINC03319465
REMARK  8 active torsions:
REMARK  status: ('A' for Active; 'I' for Inactive)
REMARK    1  A    between atoms: C_1  and  C_2
REMARK    2  A    between atoms: C_6  and  N_9
REMARK    3  A    between atoms: C_10  and  C_12
REMARK    4  A    between atoms: C_12  and  O_13
REMARK    5  A    between atoms: O_13  and  C_14
REMARK    6  A    between atoms: C_14  and  C_16
REMARK    7  A    between atoms: N_19  and  S_22
REMARK    8  A    between atoms: S_22  and  C_25
REMARK                            x       y       z     vdW  Elec       q    Type
REMARK                         _______ _______ _______ _____ _____    ______ ____
ROOT
ATOM      1  C   UNL     1      -5.875  -2.529   7.228  0.00  0.00    +0.311 C 
ATOM      2  O   UNL     1      -6.278  -2.539   6.089  0.00  0.00    -0.251 OA
ENDROOT
BRANCH   1   3
ATOM      3  C   UNL     1      -5.828  -1.235   7.999  0.00  0.00    +0.100 C 
ATOM      4  C   UNL     1      -6.342  -0.096   7.116  0.00  0.00    +0.032 C 
ATOM      5  C   UNL     1      -6.325   1.211   7.914  0.00  0.00    +0.110 C 
ATOM      6  N   UNL     1      -4.972   1.424   8.445  0.00  0.00    -0.176 NA
ATOM      7  C   UNL     1      -4.345   0.351   9.229  0.00  0.00    +0.110 C 
ATOM      8  C   UNL     1      -4.386  -0.945   8.421  0.00  0.00    +0.032 C 
BRANCH   6   9
ATOM      9  S   UNL     1      -4.167   2.843   8.161  0.00  0.00    +0.067 S 
ATOM     10  O   UNL     1      -4.730   3.399   6.981  0.00  0.00    -0.152 OA
ATOM     11  O   UNL     1      -2.781   2.554   8.281  0.00  0.00    -0.152 OA
BRANCH   9  12
ATOM     12  C   UNL     1      -4.569   3.942   9.478  0.00  0.00    +0.143 A 
ATOM     13  C   UNL     1      -3.940   4.118  10.665  0.00  0.00    +0.036 A 
ATOM     14  C   UNL     1      -4.439   5.049  11.557  0.00  0.00    +0.010 A 
ATOM     15  C   UNL     1      -5.542   5.759  11.217  0.00  0.00    +0.047 A 
ATOM     16  S   UNL     1      -5.911   5.114   9.594  0.00  0.00    -0.077 S 
ENDBRANCH   9  12
ENDBRANCH   6   9
ENDBRANCH   1   3
BRANCH   1  17
ATOM     17  O   UNL     1      -5.469  -3.670   7.807  0.00  0.00    -0.455 OA
BRANCH  17  18
ATOM     18  C   UNL     1      -5.542  -4.878   7.005  0.00  0.00    +0.328 C 
BRANCH  18  20
ATOM     19  N   UNL     1      -5.025  -7.282   7.271  0.00  0.00    -0.280 N 
ATOM     20  C   UNL     1      -5.048  -6.049   7.814  0.00  0.00    +0.255 C 
ATOM     21  O   UNL     1      -4.672  -5.882   8.955  0.00  0.00    -0.272 OA
ATOM     22  H   UNL     1      -5.393  -7.429   6.385  0.00  0.00    +0.155 HD
BRANCH  19  28
ATOM     23  C   UNL     1      -5.591 -11.035  10.400  0.00  0.00    +0.045 C 
ATOM     24  C   UNL     1      -4.721 -10.188   9.508  0.00  0.00    -0.030 A 
ATOM     25  C   UNL     1      -3.371 -10.466   9.394  0.00  0.00    +0.006 A 
ATOM     26  C   UNL     1      -2.569  -9.691   8.577  0.00  0.00    +0.022 A 
ATOM     27  C   UNL     1      -3.115  -8.638   7.867  0.00  0.00    +0.064 A 
ATOM     28  C   UNL     1      -4.469  -8.352   7.984  0.00  0.00    +0.071 A 
ATOM     29  C   UNL     1      -5.273  -9.133   8.806  0.00  0.00    +0.066 A 
ATOM     30 CL   UNL     1      -6.967  -8.784   8.950  0.00  0.00    -0.081 Cl
ATOM     31 CL   UNL     1      -2.108  -7.669   6.837  0.00  0.00    -0.082 Cl
ENDBRANCH  19  28
ENDBRANCH  18  20
ENDBRANCH  17  18
ENDBRANCH   1  17
TORSDOF 7
