REMARK  Name = ZINC24901750
REMARK  7 active torsions:
REMARK  status: ('A' for Active; 'I' for Inactive)
REMARK    1  A    between atoms: C_1  and  C_2
REMARK    2  A    between atoms: C_2  and  O_3
REMARK    3  A    between atoms: O_3  and  C_4
REMARK    4  A    between atoms: C_4  and  C_6
REMARK    5  A    between atoms: C_6  and  N_7
REMARK    6  A    between atoms: C_13  and  N_16
REMARK    7  A    between atoms: C_25  and  C_27
REMARK                            x       y       z     vdW  Elec       q    Type
REMARK                         _______ _______ _______ _____ _____    ______ ____
ROOT
ATOM      1  N   UNL     1      -5.604  -0.903   1.812  0.00  0.00    +0.389 N 
ATOM      2  C   UNL     1      -5.107  -0.607   3.165  0.00  0.00    -0.072 C 
ATOM      3  C   UNL     1      -6.251  -0.811   4.158  0.00  0.00    +0.017 C 
ATOM      4  C   UNL     1      -6.892  -2.157   3.935  0.00  0.00    -0.047 A 
ATOM      5  C   UNL     1      -7.698  -2.680   4.935  0.00  0.00    +0.004 A 
ATOM      6  C   UNL     1      -8.310  -3.906   4.767  0.00  0.00    +0.000 A 
ATOM      7  C   UNL     1      -8.119  -4.616   3.596  0.00  0.00    +0.000 A 
ATOM      8  C   UNL     1      -7.316  -4.097   2.601  0.00  0.00    +0.002 A 
ATOM      9  C   UNL     1      -6.699  -2.866   2.768  0.00  0.00    -0.054 A 
ATOM     10  C   UNL     1      -5.827  -2.343   1.656  0.00  0.00    -0.006 C 
ATOM     11  H   UNL     1      -6.566  -0.388   1.672  0.00  0.00    -0.080 HD
ENDROOT
BRANCH   1  18
ATOM     12  N   UNL     1      -0.011   0.966   0.003  0.00  0.00    -0.289 N 
ATOM     13  C   UNL     1      -1.187   1.624   0.017  0.00  0.00    +0.303 C 
ATOM     14  O   UNL     1      -1.206   2.835   0.119  0.00  0.00    -0.253 OA
ATOM     15  N   UNL     1      -2.344   0.939  -0.084  0.00  0.00    -0.286 N 
ATOM     16  C   UNL     1      -2.344  -0.531  -0.099  0.00  0.00    +0.108 C 
ATOM     17  C   UNL     1      -3.299  -1.031   0.996  0.00  0.00    +0.004 C 
ATOM     18  C   UNL     1      -4.678  -0.400   0.789  0.00  0.00    -0.064 C 
ATOM     19  C   UNL     1      -4.567   1.122   0.905  0.00  0.00    +0.004 C 
ATOM     20  C   UNL     1      -3.627   1.647  -0.185  0.00  0.00    +0.108 C 
ATOM     21  H   UNL     1       0.004  -0.134  -0.004  0.00  0.00    +0.151 HD
BRANCH  12  22
ATOM     22  C   UNL     1       1.248   1.716  -0.003  0.00  0.00    +0.226 C 
BRANCH  22  23
ATOM     23  C   UNL     1       2.406   0.753  -0.025  0.00  0.00    +0.324 C 
ATOM     24  O   UNL     1       2.202  -0.438  -0.035  0.00  0.00    -0.249 OA
BRANCH  23  25
ATOM     25  O   UNL     1       3.665   1.218  -0.035  0.00  0.00    -0.464 OA
BRANCH  25  27
ATOM     26  C   UNL     1       6.085   0.946  -0.063  0.00  0.00    +0.048 C 
ATOM     27  C   UNL     1       4.732   0.233  -0.056  0.00  0.00    +0.229 C 
ENDBRANCH  25  27
ENDBRANCH  23  25
ENDBRANCH  22  23
ENDBRANCH  12  22
ENDBRANCH   1  18
BRANCH  10  28
ATOM     28  C   UNL     1      -6.502  -2.602   0.333  0.00  0.00    -0.057 A 
ATOM     29  C   UNL     1      -7.498  -1.754  -0.112  0.00  0.00    +0.002 A 
ATOM     30  C   UNL     1      -8.114  -1.989  -1.327  0.00  0.00    +0.000 A 
ATOM     31  C   UNL     1      -7.738  -3.077  -2.093  0.00  0.00    +0.000 A 
ATOM     32  C   UNL     1      -6.745  -3.928  -1.646  0.00  0.00    +0.000 A 
ATOM     33  C   UNL     1      -6.127  -3.690  -0.432  0.00  0.00    +0.002 A 
ENDBRANCH  10  28
TORSDOF 6
