REMARK  Name = ZINC21263551
REMARK  11 active torsions:
REMARK  status: ('A' for Active; 'I' for Inactive)
REMARK    1  A    between atoms: C_1  and  C_2
REMARK    2  A    between atoms: C_2  and  C_30
REMARK    3  A    between atoms: C_4  and  N_10
REMARK    4  A    between atoms: C_6  and  C_8
REMARK    5  A    between atoms: C_6  and  C_9
REMARK    6  A    between atoms: N_10  and  C_11
REMARK    7  A    between atoms: C_11  and  N_13
REMARK    8  A    between atoms: N_13  and  C_14
REMARK    9  A    between atoms: N_13  and  C_23
REMARK   10  A    between atoms: C_14  and  C_15
REMARK   11  A    between atoms: C_23  and  C_24
REMARK                            x       y       z     vdW  Elec       q    Type
REMARK                         _______ _______ _______ _____ _____    ______ ____
ROOT
ATOM      1  C   UNL     1       0.322   3.963  -1.681  0.00  0.00    +0.133 C 
ATOM      2  S   UNL     1       0.445   5.665  -1.825  0.00  0.00    -0.019 S 
ENDROOT
BRANCH   1   3
ATOM      3  N   UNL     1       1.330   3.176  -2.107  0.00  0.00    -0.324 N 
ATOM      4  H   UNL     1       1.252   2.083  -2.014  0.00  0.00    +0.148 HD
BRANCH   3   8
ATOM      5  C   UNL     1       5.524   4.522  -2.234  0.00  0.00    -0.010 C 
ATOM      6  C   UNL     1       4.975   3.414  -3.141  0.00  0.00    -0.072 C 
ATOM      7  C   UNL     1       3.713   2.823  -2.518  0.00  0.00    +0.009 C 
ATOM      8  C   UNL     1       2.534   3.779  -2.695  0.00  0.00    +0.069 C 
ATOM      9  C   UNL     1       2.307   3.999  -4.190  0.00  0.00    +0.009 C 
ATOM     10  C   UNL     1       3.552   4.607  -4.832  0.00  0.00    -0.072 C 
ATOM     11  N   UNL     1       4.767   3.898  -4.490  0.00  0.00    +0.386 N 
ATOM     12  C   UNL     1       3.651   6.090  -4.455  0.00  0.00    -0.010 C 
ATOM     13  C   UNL     1       3.367   4.536  -6.364  0.00  0.00    -0.010 C 
ATOM     14  C   UNL     1       6.038   2.294  -3.189  0.00  0.00    -0.010 C 
ATOM     15  H   UNL     1       5.567   4.605  -4.753  0.00  0.00    -0.084 HD
ATOM     16  H   UNL     1       4.782   3.050  -5.190  0.00  0.00    -0.084 HD
ENDBRANCH   3   8
ENDBRANCH   1   3
BRANCH   1  17
ATOM     17  N   UNL     1      -0.782   3.410  -1.141  0.00  0.00    -0.306 N 
BRANCH  17  18
ATOM     18  C   UNL     1      -1.840   4.267  -0.599  0.00  0.00    +0.146 C 
BRANCH  18  19
ATOM     19  C   UNL     1      -2.924   4.441  -1.631  0.00  0.00    +0.023 A 
ATOM     20  C   UNL     1      -2.864   5.495  -2.527  0.00  0.00    +0.129 A 
ATOM     21  C   UNL     1      -3.858   5.651  -3.478  0.00  0.00    +0.039 A 
ATOM     22  C   UNL     1      -4.915   4.762  -3.525  0.00  0.00    +0.004 A 
ATOM     23  C   UNL     1      -4.978   3.713  -2.627  0.00  0.00    +0.020 A 
ATOM     24  C   UNL     1      -3.982   3.552  -1.679  0.00  0.00    +0.048 A 
ATOM     25 CL   UNL     1      -4.062   2.235  -0.551  0.00  0.00    -0.083 Cl
ATOM     26  F   UNL     1      -1.833   6.367  -2.477  0.00  0.00    -0.205 F 
ENDBRANCH  18  19
ENDBRANCH  17  18
BRANCH  17  27
ATOM     27  C   UNL     1      -0.925   1.953  -1.097  0.00  0.00    +0.138 C 
BRANCH  27  28
ATOM     28  C   UNL     1      -0.332   1.421   0.209  0.00  0.00    +0.136 C 
ATOM     29  C   UNL     1      -0.477  -0.112   0.265  0.00  0.00    +0.035 C 
ATOM     30  C   UNL     1       0.976  -0.626   0.409  0.00  0.00    +0.031 C 
ATOM     31  C   UNL     1       1.709   0.625   0.958  0.00  0.00    +0.160 C 
ATOM     32  O   UNL     1       1.073   1.720   0.265  0.00  0.00    -0.375 OA
ENDBRANCH  27  28
ENDBRANCH  17  27
ENDBRANCH   1  17
TORSDOF 7
