REMARK  Name = ZINC14542188
REMARK  9 active torsions:
REMARK  status: ('A' for Active; 'I' for Inactive)
REMARK    1  A    between atoms: C_1  and  C_2
REMARK    2  A    between atoms: C_2  and  N_3
REMARK    3  A    between atoms: N_6  and  C_28
REMARK    4  A    between atoms: C_14  and  C_15
REMARK    5  A    between atoms: C_14  and  N_66
REMARK    6  A    between atoms: C_20  and  C_21
REMARK    7  A    between atoms: C_28  and  C_29
REMARK    8  A    between atoms: C_33  and  O_35
REMARK    9  A    between atoms: O_35  and  C_36
REMARK                            x       y       z     vdW  Elec       q    Type
REMARK                         _______ _______ _______ _____ _____    ______ ____
ROOT
ATOM      1  N   UNL     1      -2.217  -0.376   1.376  0.00  0.00    -0.271 N 
ATOM      2  C   UNL     1      -2.918  -0.640   2.495  0.00  0.00    +0.312 C 
ATOM      3  O   UNL     1      -3.168  -1.764   2.886  0.00  0.00    -0.252 OA
ATOM      4  N   UNL     1      -3.308   0.473   3.129  0.00  0.00    -0.220 N 
ATOM      5  C   UNL     1      -2.897   1.583   2.481  0.00  0.00    +0.247 C 
ATOM      6  O   UNL     1      -3.091   2.735   2.804  0.00  0.00    -0.273 OA
ATOM      7  C   UNL     1      -2.142   1.087   1.270  0.00  0.00    +0.112 C 
ATOM      8  C   UNL     1      -0.691   1.553   1.317  0.00  0.00    +0.017 C 
ATOM      9  C   UNL     1       0.041   1.059   0.065  0.00  0.00    -0.076 C 
ATOM     10  C   UNL     1      -2.015   1.071  -1.220  0.00  0.00    -0.076 C 
ATOM     11  C   UNL     1      -2.816   1.565  -0.012  0.00  0.00    +0.017 C 
ATOM     12  N   UNL     1      -0.638   1.602  -1.131  0.00  0.00    +0.383 N 
ATOM     13  H   UNL     1      -0.681   2.625  -1.054  0.00  0.00    -0.081 HD
ENDROOT
BRANCH   1  15
ATOM     14  C   UNL     1      -0.523  -2.126   1.150  0.00  0.00    +0.024 C 
ATOM     15  C   UNL     1      -1.643  -1.354   0.449  0.00  0.00    +0.107 C 
ENDBRANCH   1  15
BRANCH  12  16
ATOM     16  C   UNL     1       0.120   1.244  -2.347  0.00  0.00    -0.039 C 
BRANCH  16  17
ATOM     17  C   UNL     1      -0.715   1.562  -3.561  0.00  0.00    -0.019 A 
ATOM     18  C   UNL     1      -1.419   0.675  -4.297  0.00  0.00    +0.107 A 
ATOM     19  N   UNL     1      -2.028   1.352  -5.294  0.00  0.00    -0.284 N 
ATOM     20  H   UNL     1      -2.619   0.956  -5.997  0.00  0.00    +0.188 HD
ATOM     21  N   UNL     1      -1.691   2.706  -5.172  0.00  0.00    -0.174 NA
ATOM     22  C   UNL     1      -0.904   2.839  -4.126  0.00  0.00    +0.094 A 
BRANCH  22  23
ATOM     23  C   UNL     1      -0.317   4.109  -3.630  0.00  0.00    +0.002 A 
ATOM     24  C   UNL     1      -0.148   4.314  -2.263  0.00  0.00    +0.013 A 
ATOM     25  C   UNL     1       0.403   5.494  -1.807  0.00  0.00    +0.039 A 
ATOM     26  C   UNL     1       0.780   6.478  -2.706  0.00  0.00    +0.123 A 
ATOM     27  C   UNL     1       0.609   6.280  -4.067  0.00  0.00    +0.039 A 
ATOM     28  C   UNL     1       0.063   5.101  -4.532  0.00  0.00    +0.013 A 
ATOM     29  F   UNL     1       1.314   7.634  -2.255  0.00  0.00    -0.205 F 
ENDBRANCH  22  23
ENDBRANCH  16  17
ENDBRANCH  12  16
BRANCH   4  30
ATOM     30  C   UNL     1      -4.085   0.484   4.371  0.00  0.00    +0.153 C 
BRANCH  30  31
ATOM     31  C   UNL     1      -5.556   0.494   4.043  0.00  0.00    -0.026 A 
ATOM     32  C   UNL     1      -6.222   1.697   3.893  0.00  0.00    +0.005 A 
ATOM     33  C   UNL     1      -7.570   1.710   3.587  0.00  0.00    +0.004 A 
ATOM     34  C   UNL     1      -8.257   0.520   3.441  0.00  0.00    +0.045 A 
ATOM     35  C   UNL     1      -7.593  -0.687   3.596  0.00  0.00    +0.120 A 
ATOM     36  C   UNL     1      -6.238  -0.698   3.898  0.00  0.00    +0.050 A 
BRANCH  35  37
ATOM     37  O   UNL     1      -8.267  -1.859   3.454  0.00  0.00    -0.495 OA
ATOM     38  C   UNL     1      -9.659  -1.772   3.143  0.00  0.00    +0.277 C 
ENDBRANCH  35  37
ENDBRANCH  30  31
ENDBRANCH   4  30
TORSDOF 7
