REMARK  Name = ZINC35576618
REMARK  9 active torsions:
REMARK  status: ('A' for Active; 'I' for Inactive)
REMARK    1  A    between atoms: C_1  and  C_2
REMARK    2  A    between atoms: C_2  and  C_3
REMARK    3  A    between atoms: C_2  and  C_4
REMARK    4  A    between atoms: C_2  and  N_5
REMARK    5  A    between atoms: C_6  and  N_28
REMARK    6  A    between atoms: C_8  and  C_22
REMARK    7  A    between atoms: N_14  and  C_15
REMARK    8  A    between atoms: C_15  and  C_16
REMARK    9  A    between atoms: C_16  and  C_17
REMARK                            x       y       z     vdW  Elec       q    Type
REMARK                         _______ _______ _______ _____ _____    ______ ____
ROOT
ATOM      1  N   UNL     1       1.140  -0.581  -1.087  0.00  0.00    -0.243 N 
ATOM      2  C   UNL     1       0.959  -1.823  -1.567  0.00  0.00    +0.126 A 
ATOM      3  C   UNL     1       1.240  -1.792  -2.928  0.00  0.00    +0.086 A 
ATOM      4  C   UNL     1       1.243  -2.730  -3.983  0.00  0.00    +0.089 A 
ATOM      5  N   UNL     1       1.581  -2.312  -5.196  0.00  0.00    -0.214 NA
ATOM      6  C   UNL     1       1.913  -1.048  -5.441  0.00  0.00    +0.218 A 
ATOM      7  N   UNL     1       1.937  -0.109  -4.518  0.00  0.00    -0.193 NA
ATOM      8  C   UNL     1       1.615  -0.401  -3.243  0.00  0.00    +0.188 A 
ATOM      9  N   UNL     1       1.534   0.277  -2.120  0.00  0.00    -0.149 NA
ATOM     10  N   UNL     1       2.252  -0.700  -6.736  0.00  0.00    -0.313 N 
ATOM     11  H   UNL     1       2.244  -1.371  -7.437  0.00  0.00    +0.149 HD
ENDROOT
BRANCH   4  12
ATOM     12  C   UNL     1       0.879  -4.145  -3.743  0.00  0.00    +0.001 A 
ATOM     13  C   UNL     1      -0.248  -4.458  -2.982  0.00  0.00    +0.010 A 
ATOM     14  C   UNL     1      -0.583  -5.779  -2.761  0.00  0.00    +0.001 A 
ATOM     15  C   UNL     1       0.197  -6.791  -3.292  0.00  0.00    +0.000 A 
ATOM     16  C   UNL     1       1.316  -6.487  -4.046  0.00  0.00    +0.001 A 
ATOM     17  C   UNL     1       1.657  -5.170  -4.280  0.00  0.00    +0.010 A 
ENDBRANCH   4  12
BRANCH   1  19
ATOM     18  C   UNL     1       1.244   1.310   0.460  0.00  0.00    +0.036 C 
ATOM     19  C   UNL     1       0.948  -0.183   0.310  0.00  0.00    +0.057 C 
ATOM     20  C   UNL     1       1.897  -0.984   1.204  0.00  0.00    +0.036 C 
ATOM     21  C   UNL     1      -0.499  -0.461   0.725  0.00  0.00    +0.036 C 
ENDBRANCH   1  19
BRANCH   2  22
ATOM     22  N   UNL     1       0.565  -2.931  -0.840  0.00  0.00    -0.343 N 
ATOM     23  H   UNL     1       0.164  -2.819   0.036  0.00  0.00    +0.144 HD
ATOM     24  H   UNL     1       0.689  -3.821  -1.206  0.00  0.00    +0.144 HD
ENDBRANCH   2  22
BRANCH  10  25
ATOM     25  C   UNL     1       2.625   0.682  -7.050  0.00  0.00    +0.109 C 
BRANCH  25  26
ATOM     26  C   UNL     1       2.951   0.796  -8.541  0.00  0.00    +0.061 C 
BRANCH  26  27
ATOM     27  C   UNL     1       3.334   2.217  -8.864  0.00  0.00    -0.009 A 
ATOM     28  C   UNL     1       4.560   2.795  -8.848  0.00  0.00    +0.011 A 
ATOM     29  C   UNL     1       4.675   4.131  -9.186  0.00  0.00    +0.008 A 
ATOM     30  C   UNL     1       3.559   4.823  -9.523  0.00  0.00    +0.045 A 
ATOM     31  S   UNL     1       2.292   3.574  -9.373  0.00  0.00    -0.102 S 
ENDBRANCH  26  27
ENDBRANCH  25  26
ENDBRANCH  10  25
TORSDOF 6
