REMARK  Name = ZINC17192672
REMARK  6 active torsions:
REMARK  status: ('A' for Active; 'I' for Inactive)
REMARK    1  A    between atoms: C_4  and  N_7
REMARK    2  A    between atoms: C_8  and  C_21
REMARK    3  A    between atoms: C_11  and  S_12
REMARK    4  A    between atoms: S_12  and  C_13
REMARK    5  A    between atoms: C_13  and  C_14
REMARK    6  A    between atoms: C_21  and  C_22
REMARK                            x       y       z     vdW  Elec       q    Type
REMARK                         _______ _______ _______ _____ _____    ______ ____
ROOT
ATOM      1  N   UNL     1      -3.646   3.630   2.326  0.00  0.00    -0.274 N 
ATOM      2  C   UNL     1      -2.891   4.383   1.466  0.00  0.00    +0.144 A 
ATOM      3  N   UNL     1      -2.543   5.466   2.102  0.00  0.00    -0.133 NA
ATOM      4  N   UNL     1      -3.017   5.449   3.296  0.00  0.00    -0.122 NA
ATOM      5  C   UNL     1      -3.700   4.345   3.491  0.00  0.00    +0.196 A 
ENDROOT
BRANCH   1   9
ATOM      6  C   UNL     1      -5.405  -0.070   1.555  0.00  0.00    +0.000 A 
ATOM      7  C   UNL     1      -4.404   0.034   2.503  0.00  0.00    +0.002 A 
ATOM      8  C   UNL     1      -3.819   1.258   2.761  0.00  0.00    +0.026 A 
ATOM      9  C   UNL     1      -4.237   2.385   2.067  0.00  0.00    +0.050 A 
ATOM     10  C   UNL     1      -5.247   2.279   1.119  0.00  0.00    +0.026 A 
ATOM     11  C   UNL     1      -5.824   1.051   0.862  0.00  0.00    +0.002 A 
ENDBRANCH   1   9
BRANCH   5  12
ATOM     12  S   UNL     1      -4.534   3.875   4.971  0.00  0.00    -0.081 S 
BRANCH  12  13
ATOM     13  C   UNL     1      -4.153   5.304   6.013  0.00  0.00    +0.114 C 
BRANCH  13  14
ATOM     14  C   UNL     1      -4.783   5.119   7.370  0.00  0.00    -0.019 A 
ATOM     15  C   UNL     1      -6.062   5.585   7.607  0.00  0.00    +0.006 A 
ATOM     16  C   UNL     1      -6.642   5.411   8.850  0.00  0.00    +0.000 A 
ATOM     17  C   UNL     1      -5.939   4.779   9.859  0.00  0.00    +0.001 A 
ATOM     18  C   UNL     1      -4.658   4.317   9.624  0.00  0.00    +0.020 A 
ATOM     19  C   UNL     1      -4.079   4.487   8.379  0.00  0.00    +0.045 A 
ATOM     20 CL   UNL     1      -2.469   3.908   8.083  0.00  0.00    -0.083 Cl
ENDBRANCH  13  14
ENDBRANCH  12  13
ENDBRANCH   5  12
BRANCH   2  21
ATOM     21  C   UNL     1      -2.534   4.028   0.045  0.00  0.00    +0.130 C 
BRANCH  21  22
ATOM     22  C   UNL     1      -1.236   3.261   0.030  0.00  0.00    +0.033 A 
ATOM     23  C   UNL     1      -1.246   1.911   0.018  0.00  0.00    +0.091 A 
ATOM     24  C   UNL     1      -0.014   1.214   0.009  0.00  0.00    +0.254 A 
ATOM     25  O   UNL     1       0.002  -0.004   0.002  0.00  0.00    -0.268 OA
ATOM     26  N   UNL     1       1.140   1.910   0.001  0.00  0.00    -0.275 N 
ATOM     27  H   UNL     1       2.014   1.424  -0.010  0.00  0.00    +0.173 HD
ATOM     28  C   UNL     1       1.121   3.256   0.009  0.00  0.00    +0.327 A 
ATOM     29  O   UNL     1       2.170   3.870   0.003  0.00  0.00    -0.247 OA
ATOM     30  N   UNL     1      -0.043   3.930   0.023  0.00  0.00    -0.311 N 
ATOM     31  H   UNL     1      -0.035   4.931   0.028  0.00  0.00    +0.170 HD
ENDBRANCH  21  22
ENDBRANCH   2  21
TORSDOF 6
