REMARK  Name = ZINC59005224
REMARK  10 active torsions:
REMARK  status: ('A' for Active; 'I' for Inactive)
REMARK    1  A    between atoms: C_1  and  N_2
REMARK    2  A    between atoms: N_2  and  C_3
REMARK    3  A    between atoms: N_2  and  S_4
REMARK    4  A    between atoms: S_4  and  C_7
REMARK    5  A    between atoms: C_10  and  C_12
REMARK    6  A    between atoms: C_12  and  S_13
REMARK    7  A    between atoms: S_13  and  C_14
REMARK    8  A    between atoms: C_17  and  C_25
REMARK    9  A    between atoms: N_18  and  C_19
REMARK   10  A    between atoms: C_25  and  N_26
REMARK                            x       y       z     vdW  Elec       q    Type
REMARK                         _______ _______ _______ _____ _____    ______ ____
ROOT
ATOM      1  C   UNL     1       6.071   0.217  -6.062  0.00  0.00    +0.196 A 
ATOM      2  N   UNL     1       6.912   1.035  -5.473  0.00  0.00    -0.122 NA
ATOM      3  N   UNL     1       7.776   1.462  -6.323  0.00  0.00    -0.135 NA
ATOM      4  C   UNL     1       7.543   0.947  -7.497  0.00  0.00    +0.122 A 
ATOM      5  N   UNL     1       6.451   0.129  -7.373  0.00  0.00    -0.276 N 
ENDROOT
BRANCH   5   6
ATOM      6  C   UNL     1       5.846  -0.636  -8.381  0.00  0.00    +0.050 A 
ATOM      7  C   UNL     1       6.538  -1.688  -8.966  0.00  0.00    +0.026 A 
ATOM      8  C   UNL     1       5.940  -2.440  -9.958  0.00  0.00    +0.002 A 
ATOM      9  C   UNL     1       4.653  -2.146 -10.369  0.00  0.00    +0.000 A 
ATOM     10  C   UNL     1       3.961  -1.100  -9.788  0.00  0.00    +0.002 A 
ATOM     11  C   UNL     1       4.552  -0.347  -8.791  0.00  0.00    +0.026 A 
ENDBRANCH   5   6
BRANCH   1  12
ATOM     12  S   UNL     1       4.716  -0.617  -5.305  0.00  0.00    -0.078 S 
BRANCH  12  13
ATOM     13  C   UNL     1       4.773  -0.068  -3.577  0.00  0.00    +0.151 C 
BRANCH  13  17
ATOM     14  C   UNL     1       1.682  -1.059  -1.905  0.00  0.00    +0.258 A 
ATOM     15  C   UNL     1       2.449  -2.115  -1.578  0.00  0.00    +0.071 A 
ATOM     16  C   UNL     1       3.719  -1.893  -2.159  0.00  0.00    +0.047 A 
ATOM     17  C   UNL     1       3.652  -0.716  -2.807  0.00  0.00    +0.118 A 
ATOM     18  O   UNL     1       2.413  -0.218  -2.654  0.00  0.00    -0.441 OA
BRANCH  14  19
ATOM     19  S   UNL     1      -0.000  -0.824  -1.437  0.00  0.00    +0.093 S 
ATOM     20  O   UNL     1      -0.531  -2.115  -1.167  0.00  0.00    -0.150 OA
ATOM     21  O   UNL     1      -0.572   0.049  -2.401  0.00  0.00    -0.150 OA
BRANCH  19  23
ATOM     22  C   UNL     1      -0.018   1.461   0.010  0.00  0.00    +0.131 C 
ATOM     23  N   UNL     1       0.002  -0.004   0.002  0.00  0.00    -0.180 NA
ATOM     24  C   UNL     1       0.024  -0.743   1.267  0.00  0.00    +0.131 C 
ENDBRANCH  19  23
ENDBRANCH  14  19
ENDBRANCH  13  17
ENDBRANCH  12  13
ENDBRANCH   1  12
BRANCH   4  25
ATOM     25  C   UNL     1       8.331   1.199  -8.756  0.00  0.00    -0.001 C 
BRANCH  25  26
ATOM     26  N   UNL     1       9.414   0.212  -8.862  0.00  0.00    +0.384 N 
ATOM     27  C   UNL     1      10.360   0.406  -7.756  0.00  0.00    -0.078 C 
ATOM     28  C   UNL     1      11.447  -0.669  -7.814  0.00  0.00    -0.019 C 
ATOM     29  C   UNL     1      12.191  -0.564  -9.149  0.00  0.00    -0.004 C 
ATOM     30  C   UNL     1      11.183  -0.694 -10.295  0.00  0.00    -0.019 C 
ATOM     31  C   UNL     1      10.107   0.383 -10.145  0.00  0.00    -0.078 C 
ATOM     32  H   UNL     1       9.027  -0.718  -8.811  0.00  0.00    -0.081 HD
ENDBRANCH  25  26
ENDBRANCH   4  25
TORSDOF 8
