REMARK  Name = ZINC00705601
REMARK  12 active torsions:
REMARK  status: ('A' for Active; 'I' for Inactive)
REMARK    1  A    between atoms: C_1  and  C_2
REMARK    2  A    between atoms: C_3  and  C_25
REMARK    3  A    between atoms: C_14  and  C_18
REMARK    4  A    between atoms: C_15  and  N_17
REMARK    5  A    between atoms: C_18  and  O_20
REMARK    6  A    between atoms: O_20  and  C_21
REMARK    7  A    between atoms: C_21  and  C_22
REMARK    8  A    between atoms: C_21  and  C_23
REMARK    9  A    between atoms: C_21  and  C_24
REMARK   10  A    between atoms: C_25  and  O_27
REMARK   11  A    between atoms: O_27  and  C_28
REMARK   12  A    between atoms: C_28  and  C_29
REMARK                            x       y       z     vdW  Elec       q    Type
REMARK                         _______ _______ _______ _____ _____    ______ ____
ROOT
ATOM      1  C   UNL     1       2.292   1.101   0.069  0.00  0.00    +0.087 C 
ATOM      2  C   UNL     1       1.073   1.986   0.041  0.00  0.00    +0.116 C 
ATOM      3  C   UNL     1      -0.139   1.416   0.002  0.00  0.00    +0.098 C 
ATOM      4  C   UNL     1      -1.384   2.254  -0.030  0.00  0.00    +0.145 C 
ATOM      5  C   UNL     1      -2.012   2.218  -1.400  0.00  0.00    -0.002 A 
ATOM      6  C   UNL     1      -1.573   2.603  -2.647  0.00  0.00    +0.007 A 
ATOM      7  C   UNL     1      -2.395   2.444  -3.749  0.00  0.00    +0.000 A 
ATOM      8  C   UNL     1      -3.656   1.897  -3.594  0.00  0.00    +0.002 A 
ATOM      9  C   UNL     1      -4.099   1.510  -2.346  0.00  0.00    +0.023 A 
ATOM     10  C   UNL     1      -3.277   1.667  -1.232  0.00  0.00    +0.038 A 
ATOM     11  N   UNL     1      -3.494   1.357   0.112  0.00  0.00    -0.284 N 
ATOM     12  C   UNL     1      -2.436   1.668   0.882  0.00  0.00    +0.237 C 
ATOM     13  O   UNL     1      -2.344   1.508   2.081  0.00  0.00    -0.274 OA
ATOM     14  C   UNL     1      -1.075   3.668   0.376  0.00  0.00    +0.117 C 
ATOM     15  C   UNL     1       0.210   4.113   0.395  0.00  0.00    +0.195 C 
ATOM     16  O   UNL     1       1.238   3.317   0.056  0.00  0.00    -0.446 OA
ATOM     17  H   UNL     1      -4.313   0.963   0.451  0.00  0.00    +0.155 HD
ENDROOT
BRANCH  15  18
ATOM     18  N   UNL     1       0.463   5.405   0.768  0.00  0.00    -0.329 N 
ATOM     19  H   UNL     1       1.145   5.919   0.308  0.00  0.00    +0.145 HD
ATOM     20  H   UNL     1      -0.039   5.807   1.494  0.00  0.00    +0.145 HD
ENDBRANCH  15  18
BRANCH  14  21
ATOM     21  C   UNL     1      -2.118   4.537   0.732  0.00  0.00    +0.342 C 
ATOM     22  O   UNL     1      -1.866   5.660   1.129  0.00  0.00    -0.245 OA
BRANCH  21  23
ATOM     23  O   UNL     1      -3.401   4.127   0.634  0.00  0.00    -0.455 OA
BRANCH  23  24
ATOM     24  C   UNL     1      -4.412   5.063   1.013  0.00  0.00    +0.106 C 
ATOM     25  C   UNL     1      -4.310   6.309   0.130  0.00  0.00    +0.055 C 
ATOM     26  C   UNL     1      -5.791   4.424   0.836  0.00  0.00    +0.055 C 
ATOM     27  C   UNL     1      -4.217   5.458   2.478  0.00  0.00    +0.055 C 
ENDBRANCH  23  24
ENDBRANCH  21  23
ENDBRANCH  14  21
BRANCH   3  28
ATOM     28  C   UNL     1      -0.247   0.003  -0.015  0.00  0.00    +0.340 C 
ATOM     29  O   UNL     1      -0.489  -0.576  -1.057  0.00  0.00    -0.245 OA
BRANCH  28  30
ATOM     30  O   UNL     1      -0.081  -0.700   1.125  0.00  0.00    -0.457 OA
BRANCH  30  31
ATOM     31  C   UNL     1      -0.203  -2.120   1.034  0.00  0.00    +0.268 C 
BRANCH  31  32
ATOM     32  C   UNL     1       0.012  -2.731   2.395  0.00  0.00    -0.010 A 
ATOM     33  C   UNL     1       1.283  -3.103   2.792  0.00  0.00    +0.007 A 
ATOM     34  C   UNL     1       1.481  -3.659   4.042  0.00  0.00    +0.000 A 
ATOM     35  C   UNL     1       0.407  -3.852   4.891  0.00  0.00    +0.000 A 
ATOM     36  C   UNL     1      -0.864  -3.484   4.492  0.00  0.00    +0.000 A 
ATOM     37  C   UNL     1      -1.062  -2.924   3.244  0.00  0.00    +0.007 A 
ENDBRANCH  31  32
ENDBRANCH  30  31
ENDBRANCH  28  30
ENDBRANCH   3  28
TORSDOF 8
