REMARK  Name = ZINC02257596
REMARK  6 active torsions:
REMARK  status: ('A' for Active; 'I' for Inactive)
REMARK    1  A    between atoms: C_1  and  O_2
REMARK    2  A    between atoms: O_2  and  C_3
REMARK    3  A    between atoms: C_6  and  C_11
REMARK    4  A    between atoms: C_8  and  O_9
REMARK    5  A    between atoms: O_9  and  C_10
REMARK    6  A    between atoms: C_29  and  C_31
REMARK                            x       y       z     vdW  Elec       q    Type
REMARK                         _______ _______ _______ _____ _____    ______ ____
ROOT
ATOM      1  C   UNL     1      -4.966  -2.078   0.281  0.00  0.00    +0.234 C 
ATOM      2  C   UNL     1      -5.610  -2.499  -1.007  0.00  0.00    +0.027 C 
ATOM      3  C   UNL     1      -6.449  -1.669  -1.660  0.00  0.00    +0.083 C 
ATOM      4  C   UNL     1      -6.712  -0.342  -1.048  0.00  0.00    +0.044 A 
ATOM      5  C   UNL     1      -7.282   0.693  -1.776  0.00  0.00    +0.033 A 
ATOM      6  C   UNL     1      -7.508   1.913  -1.167  0.00  0.00    +0.042 A 
ATOM      7  C   UNL     1      -7.167   2.102   0.162  0.00  0.00    +0.023 A 
ATOM      8  C   UNL     1      -6.599   1.075   0.894  0.00  0.00    +0.048 A 
ATOM      9  C   UNL     1      -6.368  -0.151   0.296  0.00  0.00    +0.131 A 
ATOM     10  O   UNL     1      -5.819  -1.176   0.989  0.00  0.00    -0.479 OA
ATOM     11 CL   UNL     1      -8.222   3.213  -2.070  0.00  0.00    -0.084 Cl
ATOM     12  N   UNL     1      -7.034  -2.028  -2.829  0.00  0.00    -0.213 NA
ATOM     13  C   UNL     1      -6.855  -3.185  -3.422  0.00  0.00    +0.237 C 
ATOM     14  N   UNL     1      -7.354  -3.699  -4.568  0.00  0.00    -0.205 NA
ATOM     15  C   UNL     1      -6.896  -4.904  -4.763  0.00  0.00    +0.203 C 
ATOM     16  N   UNL     1      -6.063  -5.245  -3.740  0.00  0.00    -0.251 N 
ATOM     17  N   UNL     1      -6.029  -4.148  -2.876  0.00  0.00    -0.208 N 
ATOM     18  C   UNL     1      -5.340  -3.859  -1.613  0.00  0.00    +0.162 C 
ATOM     19  H   UNL     1      -5.588  -6.083  -3.633  0.00  0.00    +0.171 HD
ENDROOT
BRANCH  18  20
ATOM     20  C   UNL     1      -3.857  -3.985  -1.847  0.00  0.00    +0.014 A 
ATOM     21  C   UNL     1      -3.307  -3.556  -3.040  0.00  0.00    +0.008 A 
ATOM     22  C   UNL     1      -1.946  -3.671  -3.254  0.00  0.00    +0.001 A 
ATOM     23  C   UNL     1      -1.134  -4.215  -2.276  0.00  0.00    +0.003 A 
ATOM     24  C   UNL     1      -1.682  -4.644  -1.082  0.00  0.00    +0.039 A 
ATOM     25  C   UNL     1      -3.045  -4.524  -0.864  0.00  0.00    +0.129 A 
ATOM     26  F   UNL     1      -3.581  -4.939   0.305  0.00  0.00    -0.205 F 
ENDBRANCH  18  20
BRANCH   1  30
ATOM     27  C   UNL     1      -1.244  -0.147  -0.558  0.00  0.00    +0.162 A 
ATOM     28  C   UNL     1      -1.262  -1.368   0.097  0.00  0.00    +0.050 A 
ATOM     29  C   UNL     1      -2.467  -1.989   0.367  0.00  0.00    +0.011 A 
ATOM     30  C   UNL     1      -3.656  -1.396  -0.015  0.00  0.00    +0.001 A 
ATOM     31  C   UNL     1      -3.645  -0.178  -0.670  0.00  0.00    +0.057 A 
ATOM     32  C   UNL     1      -2.441   0.453  -0.938  0.00  0.00    +0.162 A 
BRANCH  27  34
ATOM     33  C   UNL     1       1.128  -0.208  -0.406  0.00  0.00    +0.277 C 
ATOM     34  O   UNL     1      -0.060   0.466  -0.825  0.00  0.00    -0.491 OA
ENDBRANCH  27  34
BRANCH  32  35
ATOM     35  O   UNL     1      -2.429   1.654  -1.576  0.00  0.00    -0.491 OA
ATOM     36  C   UNL     1      -3.695   2.265  -1.833  0.00  0.00    +0.277 C 
ENDBRANCH  32  35
ENDBRANCH   1  30
TORSDOF 4
