REMARK  Name = ZINC09554018
REMARK  13 active torsions:
REMARK  status: ('A' for Active; 'I' for Inactive)
REMARK    1  A    between atoms: C_1  and  C_2
REMARK    2  A    between atoms: C_2  and  N_3
REMARK    3  A    between atoms: N_3  and  C_4
REMARK    4  A    between atoms: N_3  and  C_6
REMARK    5  A    between atoms: C_4  and  C_5
REMARK    6  A    between atoms: C_9  and  C_12
REMARK    7  A    between atoms: C_17  and  C_22
REMARK    8  A    between atoms: C_30  and  C_38
REMARK    9  A    between atoms: C_31  and  C_32
REMARK   10  A    between atoms: C_32  and  O_34
REMARK   11  A    between atoms: O_34  and  C_35
REMARK   12  A    between atoms: C_35  and  C_36
REMARK   13  A    between atoms: C_35  and  C_37
REMARK                            x       y       z     vdW  Elec       q    Type
REMARK                         _______ _______ _______ _____ _____    ______ ____
ROOT
ATOM      1  C   UNL     1      -1.355   2.097   0.033  0.00  0.00    +0.092 C 
ATOM      2  C   UNL     1      -0.017   1.402   0.010  0.00  0.00    +0.024 C 
ATOM      3  C   UNL     1       1.130   2.114   0.003  0.00  0.00    +0.016 C 
ATOM      4  C   UNL     1       2.472   1.425  -0.001  0.00  0.00    +0.059 C 
ATOM      5  C   UNL     1       2.361   0.087  -0.734  0.00  0.00    +0.032 C 
ATOM      6  C   UNL     1       1.299  -0.766  -0.030  0.00  0.00    +0.088 C 
ATOM      7  C   UNL     1       0.002  -0.004   0.002  0.00  0.00    +0.162 C 
ATOM      8  O   UNL     1      -1.048  -0.615   0.021  0.00  0.00    -0.292 OA
ATOM      9  N   UNL     1       1.097   3.483  -0.005  0.00  0.00    -0.321 N 
ATOM     10  C   UNL     1      -0.031   4.151  -0.391  0.00  0.00    +0.016 C 
ATOM     11  C   UNL     1      -1.223   3.530  -0.394  0.00  0.00    +0.065 C 
ATOM     12  C   UNL     1       0.063   5.594  -0.816  0.00  0.00    +0.061 C 
ATOM     13  H   UNL     1       1.985   4.055   0.302  0.00  0.00    +0.152 HD
ENDROOT
BRANCH   5  14
ATOM     14  C   UNL     1       3.689  -0.624  -0.694  0.00  0.00    -0.043 A 
ATOM     15  C   UNL     1       4.271  -0.934   0.521  0.00  0.00    +0.005 A 
ATOM     16  C   UNL     1       5.486  -1.591   0.558  0.00  0.00    +0.020 A 
ATOM     17  C   UNL     1       6.125  -1.929  -0.622  0.00  0.00    +0.041 A 
ATOM     18  C   UNL     1       5.545  -1.613  -1.837  0.00  0.00    +0.020 A 
ATOM     19  C   UNL     1       4.327  -0.961  -1.873  0.00  0.00    +0.005 A 
ATOM     20 CL   UNL     1       7.655  -2.749  -0.576  0.00  0.00    -0.084 Cl
ENDBRANCH   5  14
BRANCH   1  24
ATOM     21  C   UNL     1      -2.948   1.945   3.996  0.00  0.00    +0.030 A 
ATOM     22  C   UNL     1      -3.647   1.369   2.942  0.00  0.00    +0.023 A 
ATOM     23  C   UNL     1      -3.130   1.420   1.663  0.00  0.00    +0.006 A 
ATOM     24  C   UNL     1      -1.917   2.043   1.430  0.00  0.00    -0.035 A 
ATOM     25  C   UNL     1      -1.216   2.612   2.478  0.00  0.00    +0.006 A 
ATOM     26  C   UNL     1      -1.730   2.569   3.759  0.00  0.00    +0.023 A 
BRANCH  21  27
ATOM     27  N   UNL     1      -3.469   1.894   5.291  0.00  0.00    -0.330 N 
BRANCH  27  29
ATOM     28  C   UNL     1      -3.159   3.962   6.560  0.00  0.00    +0.024 C 
ATOM     29  C   UNL     1      -2.730   2.502   6.401  0.00  0.00    +0.102 C 
ENDBRANCH  27  29
BRANCH  27  30
ATOM     30  C   UNL     1      -4.753   1.235   5.539  0.00  0.00    +0.102 C 
ATOM     31  C   UNL     1      -4.515  -0.244   5.853  0.00  0.00    +0.024 C 
ENDBRANCH  27  30
ENDBRANCH  21  27
ENDBRANCH   1  24
BRANCH  11  32
ATOM     32  C   UNL     1      -2.375   4.242  -0.805  0.00  0.00    +0.338 C 
ATOM     33  O   UNL     1      -2.280   5.404  -1.150  0.00  0.00    -0.245 OA
BRANCH  32  34
ATOM     34  O   UNL     1      -3.578   3.631  -0.813  0.00  0.00    -0.459 OA
BRANCH  34  35
ATOM     35  C   UNL     1      -4.698   4.409  -1.239  0.00  0.00    +0.171 C 
ATOM     36  C   UNL     1      -4.874   4.264  -2.752  0.00  0.00    +0.052 C 
ATOM     37  C   UNL     1      -5.961   3.917  -0.529  0.00  0.00    +0.052 C 
ENDBRANCH  34  35
ENDBRANCH  32  34
ENDBRANCH  11  32
TORSDOF 8
