REMARK  Name = ZINC39687753
REMARK  7 active torsions:
REMARK  status: ('A' for Active; 'I' for Inactive)
REMARK    1  A    between atoms: C_1  and  C_2
REMARK    2  A    between atoms: C_2  and  C_3
REMARK    3  A    between atoms: C_3  and  C_4
REMARK    4  A    between atoms: C_4  and  C_6
REMARK    5  A    between atoms: C_4  and  C_7
REMARK    6  A    between atoms: C_11  and  C_20
REMARK    7  A    between atoms: N_22  and  C_23
REMARK                            x       y       z     vdW  Elec       q    Type
REMARK                         _______ _______ _______ _____ _____    ______ ____
ROOT
ATOM      1  C   UNL     1       1.264  -2.488  -2.209  0.00  0.00    +0.218 C 
ATOM      2  O   UNL     1       1.647  -1.629  -2.975  0.00  0.00    -0.275 OA
ATOM      3  N   UNL     1       1.408  -3.789  -2.530  0.00  0.00    -0.300 N 
ATOM      4  C   UNL     1       1.000  -4.971  -1.735  0.00  0.00    +0.121 C 
ATOM      5  C   UNL     1       0.446  -5.970  -2.775  0.00  0.00    +0.100 C 
ATOM      6  C   UNL     1       1.113  -5.566  -4.101  0.00  0.00    -0.004 C 
ATOM      7  C   UNL     1       2.003  -4.361  -3.762  0.00  0.00    +0.115 C 
ATOM      8  C   UNL     1       1.960  -6.715  -4.638  0.00  0.00    -0.010 C 
ATOM      9  C   UNL     1       2.565  -6.310  -5.985  0.00  0.00    -0.082 C 
ATOM     10  N   UNL     1       1.490  -5.985  -6.930  0.00  0.00    +0.379 N 
ATOM     11  C   UNL     1       0.737  -4.819  -6.450  0.00  0.00    -0.082 C 
ATOM     12  C   UNL     1       0.054  -5.161  -5.123  0.00  0.00    -0.010 C 
ATOM     13  H   UNL     1       1.888  -5.778  -7.833  0.00  0.00    -0.086 HD
ATOM     14  H   UNL     1       0.867  -6.775  -7.013  0.00  0.00    -0.086 HD
ENDROOT
BRANCH   5  15
ATOM     15  C   UNL     1      -1.052  -5.843  -2.878  0.00  0.00    +0.218 C 
ATOM     16  O   UNL     1      -1.586  -4.773  -2.672  0.00  0.00    -0.275 OA
ATOM     17  N   UNL     1      -1.799  -6.917  -3.200  0.00  0.00    -0.312 N 
ATOM     18  H   UNL     1      -1.373  -7.773  -3.364  0.00  0.00    +0.149 HD
BRANCH  17  19
ATOM     19  C   UNL     1      -3.256  -6.794  -3.300  0.00  0.00    +0.076 C 
ATOM     20  C   UNL     1      -3.878  -6.957  -1.911  0.00  0.00    +0.041 C 
ATOM     21  C   UNL     1      -5.397  -6.793  -2.015  0.00  0.00    +0.108 C 
ATOM     22  N   UNL     1      -5.908  -7.736  -3.019  0.00  0.00    -0.314 N 
ATOM     23  C   UNL     1      -5.315  -7.725  -4.364  0.00  0.00    +0.108 C 
ATOM     24  C   UNL     1      -3.796  -7.879  -4.234  0.00  0.00    +0.041 C 
ATOM     25  C   UNL     1      -6.932  -8.622  -2.704  0.00  0.00    +0.140 A 
ATOM     26  C   UNL     1      -8.254  -8.270  -2.965  0.00  0.00    +0.081 A 
ATOM     27  C   UNL     1      -9.263  -9.162  -2.647  0.00  0.00    +0.025 A 
ATOM     28  C   UNL     1      -8.915 -10.379  -2.076  0.00  0.00    +0.021 A 
ATOM     29  C   UNL     1      -7.584 -10.662  -1.845  0.00  0.00    +0.113 A 
ATOM     30  N   UNL     1      -6.642  -9.794  -2.163  0.00  0.00    -0.239 NA
ATOM     31 CL   UNL     1      -8.631  -6.733  -3.680  0.00  0.00    -0.080 Cl
ENDBRANCH  17  19
ENDBRANCH   5  15
BRANCH   1  32
ATOM     32  C   UNL     1       0.629  -2.101  -0.898  0.00  0.00    +0.072 C 
ATOM     33  C   UNL     1       1.450  -2.678   0.256  0.00  0.00    +0.017 C 
BRANCH  32  34
ATOM     34  C   UNL     1       0.588  -0.576  -0.782  0.00  0.00    +0.012 C 
BRANCH  34  36
ATOM     35  C   UNL     1      -0.208   1.344   0.604  0.00  0.00    +0.004 C 
ATOM     36  C   UNL     1      -0.167  -0.181   0.488  0.00  0.00    -0.003 C 
ENDBRANCH  34  36
ENDBRANCH  32  34
ENDBRANCH   1  32
TORSDOF 5
