REMARK  Name = ZINC08791873
REMARK  9 active torsions:
REMARK  status: ('A' for Active; 'I' for Inactive)
REMARK    1  A    between atoms: C_1  and  O_2
REMARK    2  A    between atoms: O_2  and  C_3
REMARK    3  A    between atoms: C_6  and  C_9
REMARK    4  A    between atoms: C_14  and  C_15
REMARK    5  A    between atoms: C_18  and  O_22
REMARK    6  A    between atoms: C_20  and  O_21
REMARK    7  A    between atoms: O_22  and  C_23
REMARK    8  A    between atoms: C_23  and  C_24
REMARK    9  A    between atoms: C_24  and  N_67
REMARK                            x       y       z     vdW  Elec       q    Type
REMARK                         _______ _______ _______ _____ _____    ______ ____
ROOT
ATOM      1  C   UNL     1       2.025   4.792  -0.422  0.00  0.00    +0.044 A 
ATOM      2  C   UNL     1       1.423   6.046  -0.346  0.00  0.00    +0.017 A 
ATOM      3  C   UNL     1       2.200   7.184  -0.325  0.00  0.00    +0.046 A 
ATOM      4  C   UNL     1       3.584   7.085  -0.391  0.00  0.00    +0.124 A 
ATOM      5  C   UNL     1       4.192   5.841  -0.472  0.00  0.00    +0.091 A 
ATOM      6  C   UNL     1       3.419   4.693  -0.488  0.00  0.00    +0.130 A 
ENDROOT
BRANCH   1  12
ATOM      7  C   UNL     1       0.132   3.264   0.452  0.00  0.00    +0.027 A 
ATOM      8  C   UNL     1      -0.375   2.052   0.090  0.00  0.00    +0.114 A 
ATOM      9  N   UNL     1       0.334   1.607  -0.968  0.00  0.00    -0.284 N 
ATOM     10  H   UNL     1       0.191   0.739  -1.444  0.00  0.00    +0.188 HD
ATOM     11  N   UNL     1       1.303   2.565  -1.286  0.00  0.00    -0.173 NA
ATOM     12  C   UNL     1       1.192   3.566  -0.440  0.00  0.00    +0.104 A 
BRANCH   7  16
ATOM     13  C   UNL     1      -1.230   5.704   3.660  0.00  0.00    +0.120 A 
ATOM     14  C   UNL     1      -2.120   5.289   2.679  0.00  0.00    +0.046 A 
ATOM     15  C   UNL     1      -1.682   4.498   1.637  0.00  0.00    +0.012 A 
ATOM     16  C   UNL     1      -0.343   4.115   1.571  0.00  0.00    -0.014 A 
ATOM     17  C   UNL     1       0.547   4.529   2.559  0.00  0.00    +0.012 A 
ATOM     18  C   UNL     1       0.103   5.324   3.596  0.00  0.00    +0.046 A 
BRANCH  13  20
ATOM     19  C   UNL     1      -0.697   6.873   5.660  0.00  0.00    +0.277 C 
ATOM     20  O   UNL     1      -1.666   6.482   4.685  0.00  0.00    -0.495 OA
ENDBRANCH  13  20
ENDBRANCH   7  16
ENDBRANCH   1  12
BRANCH   6  21
ATOM     21  O   UNL     1       4.012   3.474  -0.568  0.00  0.00    -0.506 OA
ATOM     22  H   UNL     1       4.146   3.159  -1.473  0.00  0.00    +0.292 HD
ENDBRANCH   6  21
BRANCH   4  23
ATOM     23  O   UNL     1       4.345   8.211  -0.375  0.00  0.00    -0.494 OA
BRANCH  23  24
ATOM     24  C   UNL     1       3.655   9.460  -0.291  0.00  0.00    +0.210 C 
BRANCH  24  25
ATOM     25  C   UNL     1       4.670  10.604  -0.286  0.00  0.00    -0.037 C 
BRANCH  25  39
ATOM     26  C   UNL     1       4.508  10.580  -2.699  0.00  0.00    -0.073 C 
ATOM     27  C   UNL     1       5.279  10.520  -4.009  0.00  0.00    -0.007 C 
ATOM     28  C   UNL     1       6.284  11.671  -4.104  0.00  0.00    +0.011 C 
ATOM     29  C   UNL     1       7.204  11.582  -2.881  0.00  0.00    +0.020 C 
ATOM     30  C   UNL     1       6.337  11.748  -1.622  0.00  0.00    -0.069 C 
ATOM     31  C   UNL     1       7.826  10.204  -2.825  0.00  0.00    +0.023 A 
ATOM     32  C   UNL     1       9.029  10.087  -2.204  0.00  0.00    +0.022 A 
ATOM     33  C   UNL     1       9.636   8.835  -2.058  0.00  0.00    +0.007 A 
ATOM     34  C   UNL     1       8.989   7.731  -2.531  0.00  0.00    +0.070 A 
ATOM     35  C   UNL     1       7.751   7.887  -3.170  0.00  0.00    +0.251 A 
ATOM     36  O   UNL     1       7.142   6.901  -3.555  0.00  0.00    -0.268 OA
ATOM     37  N   UNL     1       7.221   9.120  -3.364  0.00  0.00    -0.312 N 
ATOM     38  C   UNL     1       6.008   9.198  -4.178  0.00  0.00    +0.126 C 
ATOM     39  N   UNL     1       5.435  10.576  -1.550  0.00  0.00    +0.383 N 
ATOM     40  H   UNL     1       5.999   9.719  -1.580  0.00  0.00    -0.082 HD
ENDBRANCH  25  39
ENDBRANCH  24  25
ENDBRANCH  23  24
ENDBRANCH   4  23
TORSDOF 8
