REMARK  Name = ZINC63140918
REMARK  6 active torsions:
REMARK  status: ('A' for Active; 'I' for Inactive)
REMARK    1  A    between atoms: C_1  and  O_2
REMARK    2  A    between atoms: O_2  and  C_3
REMARK    3  A    between atoms: C_8  and  C_9
REMARK    4  A    between atoms: N_28  and  C_31
REMARK    5  A    between atoms: C_31  and  C_32
REMARK    6  A    between atoms: C_32  and  C_33
REMARK                            x       y       z     vdW  Elec       q    Type
REMARK                         _______ _______ _______ _____ _____    ______ ____
ROOT
ATOM      1  C   UNL     1       0.018  -2.829  -0.013  0.00  0.00    +0.137 C 
ATOM      2  C   UNL     1       0.593  -2.920   1.404  0.00  0.00    +0.131 C 
ATOM      3  C   UNL     1       1.707  -3.958   1.359  0.00  0.00    -0.034 C 
ATOM      4  C   UNL     1       2.798  -3.356   1.817  0.00  0.00    -0.001 A 
ATOM      5  C   UNL     1       4.157  -3.858   2.077  0.00  0.00    +0.010 A 
ATOM      6  C   UNL     1       5.053  -2.948   2.543  0.00  0.00    +0.001 A 
ATOM      7  C   UNL     1       4.736  -1.606   2.774  0.00  0.00    +0.002 A 
ATOM      8  C   UNL     1       3.511  -1.060   2.569  0.00  0.00    +0.026 A 
ATOM      9  C   UNL     1       2.483  -1.920   2.083  0.00  0.00    +0.043 A 
ATOM     10  N   UNL     1       1.215  -1.663   1.824  0.00  0.00    -0.375 N 
ATOM     11  C   UNL     1       1.498  -5.344   0.800  0.00  0.00    +0.065 C 
ATOM     12  C   UNL     1       0.829  -5.167  -0.576  0.00  0.00    +0.167 C 
ATOM     13  N   UNL     1      -0.265  -4.206  -0.474  0.00  0.00    -0.279 N 
ATOM     14  C   UNL     1      -1.530  -4.517  -0.781  0.00  0.00    +0.234 C 
ATOM     15  O   UNL     1      -2.371  -3.654  -0.643  0.00  0.00    -0.274 OA
ATOM     16  C   UNL     1      -1.979  -5.850  -1.280  0.00  0.00    +0.203 C 
ATOM     17  N   UNL     1      -0.877  -6.789  -1.407  0.00  0.00    -0.291 N 
ATOM     18  C   UNL     1       0.383  -6.494  -1.092  0.00  0.00    +0.237 C 
ATOM     19  O   UNL     1       1.221  -7.358  -1.239  0.00  0.00    -0.274 OA
ATOM     20  H   UNL     1       0.769  -0.805   1.891  0.00  0.00    +0.160 HD
ENDROOT
BRANCH   1  26
ATOM     21  C   UNL     1      -1.697  -1.400  -1.154  0.00  0.00    +0.125 A 
ATOM     22  C   UNL     1      -2.873  -0.663  -1.138  0.00  0.00    +0.046 A 
ATOM     23  C   UNL     1      -3.598  -0.549   0.032  0.00  0.00    +0.004 A 
ATOM     24  C   UNL     1      -3.153  -1.167   1.186  0.00  0.00    +0.001 A 
ATOM     25  C   UNL     1      -1.982  -1.901   1.172  0.00  0.00    +0.009 A 
ATOM     26  C   UNL     1      -1.255  -2.023   0.003  0.00  0.00    +0.017 A 
BRANCH  21  28
ATOM     27  C   UNL     1      -1.496  -0.845  -3.458  0.00  0.00    +0.277 C 
ATOM     28  O   UNL     1      -0.982  -1.514  -2.304  0.00  0.00    -0.495 OA
ENDBRANCH  21  28
ENDBRANCH   1  26
BRANCH  17  29
ATOM     29  C   UNL     1      -1.169  -8.135  -1.907  0.00  0.00    +0.113 C 
BRANCH  29  30
ATOM     30  C   UNL     1      -1.043  -8.152  -3.431  0.00  0.00    +0.054 C 
BRANCH  30  31
ATOM     31  C   UNL     1      -1.343  -9.537  -3.945  0.00  0.00    -0.046 A 
ATOM     32  C   UNL     1      -0.324 -10.462  -4.075  0.00  0.00    +0.004 A 
ATOM     33  C   UNL     1      -0.599 -11.732  -4.547  0.00  0.00    +0.000 A 
ATOM     34  C   UNL     1      -1.894 -12.077  -4.886  0.00  0.00    +0.000 A 
ATOM     35  C   UNL     1      -2.913 -11.153  -4.755  0.00  0.00    +0.000 A 
ATOM     36  C   UNL     1      -2.638  -9.884  -4.280  0.00  0.00    +0.004 A 
ENDBRANCH  30  31
ENDBRANCH  29  30
ENDBRANCH  17  29
TORSDOF 5
