REMARK  Name = ZINC02839074
REMARK  9 active torsions:
REMARK  status: ('A' for Active; 'I' for Inactive)
REMARK    1  A    between atoms: C_1  and  C_2
REMARK    2  A    between atoms: C_5  and  C_29
REMARK    3  A    between atoms: C_6  and  C_8
REMARK    4  A    between atoms: C_8  and  C_10
REMARK    5  A    between atoms: C_8  and  N_22
REMARK    6  A    between atoms: C_16  and  C_21
REMARK    7  A    between atoms: C_19  and  O_20
REMARK    8  A    between atoms: N_22  and  C_23
REMARK    9  A    between atoms: C_25  and  C_28
REMARK                            x       y       z     vdW  Elec       q    Type
REMARK                         _______ _______ _______ _____ _____    ______ ____
ROOT
ATOM      1  C   UNL     1       0.379   3.192   6.995  0.00  0.00    +0.136 C 
ENDROOT
BRANCH   1   2
ATOM      2  C   UNL     1      -0.417   2.990   5.731  0.00  0.00    +0.021 A 
ATOM      3  C   UNL     1      -1.018   1.758   5.489  0.00  0.00    +0.010 A 
ATOM      4  C   UNL     1      -1.743   1.543   4.357  0.00  0.00    +0.010 A 
ATOM      5  C   UNL     1      -1.890   2.576   3.417  0.00  0.00    +0.004 A 
ATOM      6  C   UNL     1      -2.632   2.392   2.235  0.00  0.00    +0.012 A 
ATOM      7  C   UNL     1      -2.735   3.442   1.368  0.00  0.00    +0.023 A 
ATOM      8  C   UNL     1      -2.107   4.651   1.663  0.00  0.00    +0.039 A 
ATOM      9  N   UNL     1      -1.417   4.818   2.765  0.00  0.00    -0.248 NA
ATOM     10  C   UNL     1      -1.281   3.833   3.656  0.00  0.00    +0.113 A 
ATOM     11  C   UNL     1      -0.537   4.019   4.840  0.00  0.00    +0.148 A 
ATOM     12  C   UNL     1      -2.228   5.797   0.692  0.00  0.00    +0.065 C 
BRANCH  11  13
ATOM     13  O   UNL     1       0.057   5.214   5.093  0.00  0.00    -0.504 OA
ATOM     14  H   UNL     1      -0.472   5.807   5.645  0.00  0.00    +0.292 HD
ENDBRANCH  11  13
ENDBRANCH   1   2
BRANCH   1  20
ATOM     15  C   UNL     1      -0.680  -0.475  10.231  0.00  0.00    +0.044 C 
ATOM     16  C   UNL     1       0.200   0.098   9.150  0.00  0.00    -0.050 A 
ATOM     17  C   UNL     1       1.308  -0.605   8.716  0.00  0.00    +0.003 A 
ATOM     18  C   UNL     1       2.115  -0.080   7.724  0.00  0.00    +0.004 A 
ATOM     19  C   UNL     1       1.815   1.149   7.168  0.00  0.00    -0.045 A 
ATOM     20  C   UNL     1       0.707   1.852   7.602  0.00  0.00    -0.020 A 
ATOM     21  C   UNL     1      -0.098   1.329   8.597  0.00  0.00    +0.009 A 
ATOM     22  C   UNL     1       2.695   1.722   6.087  0.00  0.00    +0.044 C 
ENDBRANCH   1  20
BRANCH   1  23
ATOM     23  N   UNL     1      -0.408   3.980   7.946  0.00  0.00    -0.320 N 
ATOM     24  H   UNL     1      -1.377   3.960   7.909  0.00  0.00    +0.148 HD
BRANCH  23  25
ATOM     25  C   UNL     1       0.234   4.758   8.903  0.00  0.00    +0.097 A 
ATOM     26  C   UNL     1       1.624   4.782   8.952  0.00  0.00    +0.045 A 
ATOM     27  C   UNL     1       2.250   5.560   9.909  0.00  0.00    -0.046 A 
ATOM     28  C   UNL     1       1.462   6.290  10.790  0.00  0.00    +0.021 A 
ATOM     29  C   UNL     1       0.087   6.218  10.684  0.00  0.00    +0.084 A 
ATOM     30  C   UNL     1       3.754   5.615   9.995  0.00  0.00    +0.044 C 
ATOM     31  N   UNL     1      -0.562   5.470   9.753  0.00  0.00    -0.350 N 
ATOM     32  H   UNL     1      -1.586   5.442   9.692  0.00  0.00    +0.166 HD
ENDBRANCH  23  25
ENDBRANCH   1  23
TORSDOF 5
