REMARK  Name = ZINC38984687
REMARK  9 active torsions:
REMARK  status: ('A' for Active; 'I' for Inactive)
REMARK    1  A    between atoms: C_1  and  C_2
REMARK    2  A    between atoms: C_5  and  C_8
REMARK    3  A    between atoms: C_8  and  S_9
REMARK    4  A    between atoms: S_9  and  C_10
REMARK    5  A    between atoms: C_14  and  C_18
REMARK    6  A    between atoms: N_16  and  N_17
REMARK    7  A    between atoms: C_21  and  C_24
REMARK    8  A    between atoms: C_27  and  O_30
REMARK    9  A    between atoms: O_30  and  C_31
REMARK                            x       y       z     vdW  Elec       q    Type
REMARK                         _______ _______ _______ _____ _____    ______ ____
ROOT
ATOM      1  C   UNL     1       1.628  -6.666  -0.043  0.00  0.00    +0.214 C 
ATOM      2  N   UNL     1       0.805  -7.120  -1.195  0.00  0.00    -0.228 NA
ATOM      3  N   UNL     1       0.283  -8.425  -0.780  0.00  0.00    -0.234 NA
ATOM      4  C   UNL     1       0.298  -8.443   0.696  0.00  0.00    +0.185 C 
ATOM      5  N   UNL     1       0.846  -7.135   1.131  0.00  0.00    -0.197 NA
ATOM      6  H   UNL     1       1.366  -7.204  -2.029  0.00  0.00    +0.143 HD
ATOM      7  H   UNL     1      -0.651  -8.569  -1.134  0.00  0.00    +0.143 HD
ENDROOT
BRANCH   4   8
ATOM      8  C   UNL     1      -1.123  -8.625   1.234  0.00  0.00    +0.187 C 
ATOM      9  C   UNL     1      -1.682  -9.976   0.824  0.00  0.00    +0.034 C 
ATOM     10  C   UNL     1      -2.756  -9.666   0.072  0.00  0.00    +0.091 C 
ATOM     11  N   UNL     1      -2.901  -8.318  -0.015  0.00  0.00    -0.154 NA
ATOM     12  N   UNL     1      -2.045  -7.669   0.598  0.00  0.00    -0.176 NA
BRANCH  10  13
ATOM     13  C   UNL     1      -3.653 -10.657  -0.571  0.00  0.00    +0.002 A 
ATOM     14  C   UNL     1      -3.414 -12.021  -0.412  0.00  0.00    +0.013 A 
ATOM     15  C   UNL     1      -4.250 -12.940  -1.011  0.00  0.00    +0.046 A 
ATOM     16  C   UNL     1      -5.328 -12.508  -1.772  0.00  0.00    +0.120 A 
ATOM     17  C   UNL     1      -5.568 -11.149  -1.932  0.00  0.00    +0.046 A 
ATOM     18  C   UNL     1      -4.739 -10.226  -1.331  0.00  0.00    +0.013 A 
BRANCH  16  19
ATOM     19  O   UNL     1      -6.150 -13.415  -2.361  0.00  0.00    -0.495 OA
ATOM     20  C   UNL     1      -7.239 -12.901  -3.130  0.00  0.00    +0.277 C 
ENDBRANCH  16  19
ENDBRANCH  10  13
ENDBRANCH   4   8
BRANCH   5  21
ATOM     21  N   UNL     1       1.700  -7.286   2.299  0.00  0.00    -0.264 NA
ATOM     22  H   UNL     1       2.135  -6.409   2.544  0.00  0.00    +0.137 HD
ATOM     23  H   UNL     1       1.183  -7.663   3.079  0.00  0.00    +0.137 HD
ENDBRANCH   5  21
BRANCH   1  24
ATOM     24  S   UNL     1       1.777  -4.858  -0.034  0.00  0.00    -0.119 S 
BRANCH  24  25
ATOM     25  C   UNL     1       0.059  -4.275  -0.021  0.00  0.00    +0.107 C 
BRANCH  25  30
ATOM     26  C   UNL     1      -0.018   1.503   0.010  0.00  0.00    +0.044 C 
ATOM     27  C   UNL     1       0.002  -0.004   0.002  0.00  0.00    -0.050 A 
ATOM     28  C   UNL     1       0.006  -0.689  -1.199  0.00  0.00    +0.003 A 
ATOM     29  C   UNL     1       0.025  -2.071  -1.206  0.00  0.00    +0.005 A 
ATOM     30  C   UNL     1       0.040  -2.768  -0.013  0.00  0.00    -0.037 A 
ATOM     31  C   UNL     1       0.037  -2.084   1.188  0.00  0.00    +0.005 A 
ATOM     32  C   UNL     1       0.023  -0.702   1.195  0.00  0.00    +0.003 A 
ENDBRANCH  25  30
ENDBRANCH  24  25
ENDBRANCH   1  24
TORSDOF 7
