REMARK  Name = ZINC61594333
REMARK  8 active torsions:
REMARK  status: ('A' for Active; 'I' for Inactive)
REMARK    1  A    between atoms: C_1  and  C_2
REMARK    2  A    between atoms: C_2  and  N_3
REMARK    3  A    between atoms: C_9  and  S_10
REMARK    4  A    between atoms: S_10  and  C_11
REMARK    5  A    between atoms: C_11  and  C_13
REMARK    6  A    between atoms: C_11  and  C_20
REMARK    7  A    between atoms: C_20  and  C_22
REMARK    8  A    between atoms: C_20  and  N_23
REMARK                            x       y       z     vdW  Elec       q    Type
REMARK                         _______ _______ _______ _____ _____    ______ ____
ROOT
ATOM      1  C   UNL     1      -1.638  -1.291   4.409  0.00  0.00    +0.069 C 
ENDROOT
BRANCH   1   2
ATOM      2  C   UNL     1      -3.128  -1.416   4.599  0.00  0.00    -0.035 A 
ATOM      3  C   UNL     1      -3.944  -0.316   4.407  0.00  0.00    +0.005 A 
ATOM      4  C   UNL     1      -5.310  -0.431   4.581  0.00  0.00    +0.001 A 
ATOM      5  C   UNL     1      -5.862  -1.645   4.947  0.00  0.00    +0.015 A 
ATOM      6  C   UNL     1      -5.046  -2.745   5.138  0.00  0.00    +0.018 A 
ATOM      7  C   UNL     1      -3.679  -2.631   4.959  0.00  0.00    +0.020 A 
ATOM      8 BR   UNL     1      -5.799  -4.405   5.638  0.00  0.00    -0.050 Br
ENDBRANCH   1   2
BRANCH   1   9
ATOM      9  C   UNL     1      -1.033  -0.547   5.601  0.00  0.00    -0.060 C 
ATOM     10  C   UNL     1      -1.570   0.885   5.635  0.00  0.00    -0.013 C 
BRANCH   9  11
ATOM     11  N   UNL     1      -1.399  -1.237   6.846  0.00  0.00    +0.381 N 
ATOM     12  H   UNL     1      -0.990  -2.159   6.852  0.00  0.00    -0.090 HD
ATOM     13  H   UNL     1      -1.055  -0.711   7.635  0.00  0.00    -0.090 HD
ATOM     14  H   UNL     1      -2.404  -1.314   6.904  0.00  0.00    -0.090 HD
ENDBRANCH   9  11
ENDBRANCH   1   9
BRANCH   1  15
ATOM     15  S   UNL     1      -1.298  -0.367   2.885  0.00  0.00    -0.080 S 
BRANCH  15  22
ATOM     16  N   UNL     1       1.167  -0.052   1.600  0.00  0.00    -0.271 N 
ATOM     17  C   UNL     1       2.466  -0.349   1.801  0.00  0.00    +0.345 A 
ATOM     18  O   UNL     1       3.390  -0.081   1.054  0.00  0.00    -0.245 OA
ATOM     19  N   UNL     1       2.558  -0.996   2.981  0.00  0.00    -0.226 N 
ATOM     20  H   UNL     1       3.371  -1.333   3.390  0.00  0.00    +0.194 HD
ATOM     21  N   UNL     1       1.263  -1.092   3.509  0.00  0.00    -0.145 NA
ATOM     22  C   UNL     1       0.445  -0.518   2.675  0.00  0.00    +0.193 A 
BRANCH  16  24
ATOM     23  C   UNL     1       0.617   2.158   0.708  0.00  0.00    +0.027 C 
ATOM     24  C   UNL     1       0.618   0.652   0.438  0.00  0.00    +0.125 C 
ENDBRANCH  16  24
ENDBRANCH  15  22
ENDBRANCH   1  15
TORSDOF 6
