REMARK  Name = ZINC59385475
REMARK  9 active torsions:
REMARK  status: ('A' for Active; 'I' for Inactive)
REMARK    1  A    between atoms: C_1  and  C_2
REMARK    2  A    between atoms: C_2  and  O_3
REMARK    3  A    between atoms: O_3  and  C_4
REMARK    4  A    between atoms: C_7  and  C_10
REMARK    5  A    between atoms: N_11  and  N_12
REMARK    6  A    between atoms: C_13  and  C_15
REMARK    7  A    between atoms: C_16  and  C_32
REMARK    8  A    between atoms: C_21  and  C_23
REMARK    9  A    between atoms: C_26  and  N_29
REMARK                            x       y       z     vdW  Elec       q    Type
REMARK                         _______ _______ _______ _____ _____    ______ ____
ROOT
ATOM      1  C   UNL     1      -4.969  -9.992  -0.050  0.00  0.00    +0.057 C 
ATOM      2  C   UNL     1      -6.180 -10.585  -0.021  0.00  0.00    +0.019 C 
ATOM      3  N   UNL     1      -6.299 -11.942   0.092  0.00  0.00    -0.273 N 
ATOM      4  C   UNL     1      -5.253 -12.774   0.182  0.00  0.00    +0.304 C 
ATOM      5  O   UNL     1      -5.458 -13.968   0.279  0.00  0.00    -0.252 OA
ATOM      6  N   UNL     1      -3.981 -12.330   0.167  0.00  0.00    -0.288 N 
ATOM      7  C   UNL     1      -3.745 -10.881   0.042  0.00  0.00    +0.142 C 
ATOM      8  C   UNL     1      -7.423  -9.738  -0.116  0.00  0.00    +0.061 C 
ATOM      9  H   UNL     1      -7.191 -12.324   0.108  0.00  0.00    +0.156 HD
ATOM     10  H   UNL     1      -3.238 -12.950   0.233  0.00  0.00    +0.151 HD
ENDROOT
BRANCH   7  11
ATOM     11  C   UNL     1      -2.908 -10.647  -1.189  0.00  0.00    -0.022 A 
ATOM     12  C   UNL     1      -3.260 -11.237  -2.388  0.00  0.00    +0.008 A 
ATOM     13  C   UNL     1      -2.491 -11.022  -3.517  0.00  0.00    +0.033 A 
ATOM     14  C   UNL     1      -1.370 -10.216  -3.446  0.00  0.00    +0.126 A 
ATOM     15  C   UNL     1      -1.018  -9.625  -2.247  0.00  0.00    +0.033 A 
ATOM     16  C   UNL     1      -1.789  -9.837  -1.119  0.00  0.00    +0.008 A 
BRANCH  14  17
ATOM     17  N   UNL     1      -0.547  -9.987  -4.654  0.00  0.00    +0.056 N 
ATOM     18  O   UNL     1      -0.855 -10.504  -5.703  0.00  0.00    -0.126 OA
ATOM     19  O   UNL     1       0.434  -9.282  -4.593  0.00  0.00    -0.126 OA
ENDBRANCH  14  17
ENDBRANCH   7  11
BRANCH   1  21
ATOM     20  N   UNL     1      -4.981  -7.995  -1.371  0.00  0.00    -0.203 N 
ATOM     21  C   UNL     1      -4.844  -8.586  -0.167  0.00  0.00    +0.263 C 
ATOM     22  O   UNL     1      -4.614  -7.910   0.820  0.00  0.00    -0.269 OA
ATOM     23  H   UNL     1      -5.093  -8.537  -2.167  0.00  0.00    +0.178 HD
BRANCH  20  25
ATOM     24  C   UNL     1      -5.094  -6.029  -2.631  0.00  0.00    +0.138 C 
ATOM     25  N   UNL     1      -4.963  -6.598  -1.472  0.00  0.00    -0.187 NA
BRANCH  24  29
ATOM     26  C   UNL     1      -5.038  -1.795  -2.937  0.00  0.00    +0.121 A 
ATOM     27  C   UNL     1      -5.198  -2.570  -4.079  0.00  0.00    +0.046 A 
ATOM     28  C   UNL     1      -5.216  -3.944  -3.985  0.00  0.00    +0.013 A 
ATOM     29  C   UNL     1      -5.074  -4.559  -2.737  0.00  0.00    -0.005 A 
ATOM     30  C   UNL     1      -4.914  -3.776  -1.591  0.00  0.00    +0.013 A 
ATOM     31  C   UNL     1      -4.891  -2.402  -1.696  0.00  0.00    +0.046 A 
BRANCH  26  32
ATOM     32  O   UNL     1      -5.021  -0.440  -3.035  0.00  0.00    -0.492 OA
BRANCH  32  34
ATOM     33  C   UNL     1      -5.132   1.645  -4.252  0.00  0.00    +0.048 C 
ATOM     34  C   UNL     1      -5.178   0.118  -4.341  0.00  0.00    +0.225 C 
ENDBRANCH  32  34
ENDBRANCH  26  32
ENDBRANCH  24  29
ENDBRANCH  20  25
ENDBRANCH   1  21
TORSDOF 7
