REMARK  Name = ZINC63174931
REMARK  4 active torsions:
REMARK  status: ('A' for Active; 'I' for Inactive)
REMARK    1  A    between atoms: C_3  and  S_9
REMARK    2  A    between atoms: S_9  and  N_12
REMARK    3  A    between atoms: N_12  and  C_13
REMARK    4  A    between atoms: C_18  and  N_20
REMARK                            x       y       z     vdW  Elec       q    Type
REMARK                         _______ _______ _______ _____ _____    ______ ____
ROOT
ATOM      1  S   UNL     1       3.977   2.344  -0.057  0.00  0.00    +0.060 S 
ATOM      2  O   UNL     1       4.937   1.846  -0.980  0.00  0.00    -0.153 OA
ATOM      3  O   UNL     1       3.514   3.687  -0.089  0.00  0.00    -0.153 OA
ENDROOT
BRANCH   1   6
ATOM      4  C   UNL     1       1.431  -0.531  -1.236  0.00  0.00    +0.040 A 
ATOM      5  C   UNL     1       2.547   0.275  -1.117  0.00  0.00    +0.032 A 
ATOM      6  C   UNL     1       2.554   1.316  -0.208  0.00  0.00    +0.119 A 
ATOM      7  C   UNL     1       1.444   1.552   0.583  0.00  0.00    +0.047 A 
ATOM      8  C   UNL     1       0.326   0.746   0.466  0.00  0.00    +0.055 A 
ATOM      9  C   UNL     1       0.319  -0.296  -0.445  0.00  0.00    +0.125 A 
ATOM     10  F   UNL     1      -0.772  -1.085  -0.562  0.00  0.00    -0.205 F 
ATOM     11 BR   UNL     1       1.455   2.977   1.827  0.00  0.00    -0.048 Br
ENDBRANCH   1   6
BRANCH   1  12
ATOM     12  N   UNL     1       4.602   2.095   1.456  0.00  0.00    -0.188 NA
ATOM     13  H   UNL     1       4.602   2.816   2.105  0.00  0.00    +0.148 HD
BRANCH  12  14
ATOM     14  C   UNL     1       5.155   0.786   1.814  0.00  0.00    +0.062 C 
ATOM     15  C   UNL     1       6.687   0.803   1.668  0.00  0.00    +0.019 C 
ATOM     16  C   UNL     1       7.266   0.501   3.066  0.00  0.00    -0.000 C 
ATOM     17  C   UNL     1       6.139   0.918   4.042  0.00  0.00    -0.015 C 
ATOM     18  C   UNL     1       4.856   0.473   3.295  0.00  0.00    -0.056 C 
BRANCH  18  19
ATOM     19  N   UNL     1       3.695   1.245   3.759  0.00  0.00    +0.381 N 
ATOM     20  H   UNL     1       2.888   1.006   3.204  0.00  0.00    -0.090 HD
ATOM     21  H   UNL     1       3.514   1.029   4.728  0.00  0.00    -0.090 HD
ATOM     22  H   UNL     1       3.888   2.231   3.665  0.00  0.00    -0.090 HD
ENDBRANCH  18  19
ENDBRANCH  12  14
ENDBRANCH   1  12
TORSDOF 4
