REMARK  Name = ZINC14646000
REMARK  13 active torsions:
REMARK  status: ('A' for Active; 'I' for Inactive)
REMARK    1  A    between atoms: C_1  and  C_2
REMARK    2  A    between atoms: C_4  and  C_30
REMARK    3  A    between atoms: N_5  and  N_11
REMARK    4  A    between atoms: C_8  and  C_9
REMARK    5  A    between atoms: N_11  and  C_12
REMARK    6  A    between atoms: C_12  and  N_14
REMARK    7  A    between atoms: C_15  and  C_17
REMARK    8  A    between atoms: C_20  and  O_24
REMARK    9  A    between atoms: O_24  and  C_25
REMARK   10  A    between atoms: C_25  and  C_26
REMARK   11  A    between atoms: C_26  and  C_27
REMARK   12  A    between atoms: C_27  and  C_28
REMARK   13  A    between atoms: C_27  and  C_29
REMARK                            x       y       z     vdW  Elec       q    Type
REMARK                         _______ _______ _______ _____ _____    ______ ____
ROOT
ATOM      1  N   UNL     1      -3.678   3.180   0.054  0.00  0.00    -0.263 N 
ATOM      2  C   UNL     1      -2.519   3.867   0.047  0.00  0.00    +0.250 C 
ATOM      3  O   UNL     1      -2.533   5.083   0.054  0.00  0.00    -0.270 OA
ATOM      4  H   UNL     1      -3.667   2.210   0.049  0.00  0.00    +0.157 HD
ENDROOT
BRANCH   2   5
ATOM      5  C   UNL     1      -1.233   3.145   0.030  0.00  0.00    +0.038 A 
ATOM      6  C   UNL     1      -1.215   1.747   0.017  0.00  0.00    +0.017 A 
ATOM      7  C   UNL     1      -0.013   1.076   0.008  0.00  0.00    +0.047 A 
ATOM      8  C   UNL     1       1.182   1.786   0.000  0.00  0.00    +0.134 A 
ATOM      9  C   UNL     1       1.169   3.177   0.007  0.00  0.00    +0.060 A 
ATOM     10  C   UNL     1      -0.030   3.856   0.023  0.00  0.00    +0.032 A 
ATOM     11 BR   UNL     1       2.798   4.137  -0.003  0.00  0.00    -0.046 Br
BRANCH   8  12
ATOM     12  O   UNL     1       2.365   1.121  -0.015  0.00  0.00    -0.491 OA
BRANCH  12  13
ATOM     13  C   UNL     1       2.306  -0.307  -0.022  0.00  0.00    +0.229 C 
BRANCH  13  14
ATOM     14  C   UNL     1       3.726  -0.876  -0.038  0.00  0.00    +0.044 C 
BRANCH  14  15
ATOM     15  C   UNL     1       3.663  -2.405  -0.046  0.00  0.00    -0.014 C 
ATOM     16  C   UNL     1       3.021  -2.882  -1.350  0.00  0.00    +0.007 C 
ATOM     17  C   UNL     1       5.079  -2.974   0.063  0.00  0.00    +0.007 C 
ENDBRANCH  14  15
ENDBRANCH  13  14
ENDBRANCH  12  13
ENDBRANCH   8  12
ENDBRANCH   2   5
BRANCH   1  18
ATOM     18  C   UNL     1      -4.853   3.840   0.070  0.00  0.00    +0.155 C 
ATOM     19  S   UNL     1      -4.873   5.552   0.080  0.00  0.00    -0.017 S 
BRANCH  18  20
ATOM     20  N   UNL     1      -6.013   3.153   0.077  0.00  0.00    -0.231 N 
ATOM     21  H   UNL     1      -6.858   3.628   0.088  0.00  0.00    +0.175 HD
BRANCH  20  26
ATOM     22  C   UNL     1      -5.968  -2.515  -0.025  0.00  0.00    +0.045 C 
ATOM     23  C   UNL     1      -5.975  -1.008   0.018  0.00  0.00    -0.026 A 
ATOM     24  C   UNL     1      -6.301  -0.268  -1.119  0.00  0.00    +0.027 A 
ATOM     25  C   UNL     1      -6.310   1.088  -1.070  0.00  0.00    +0.040 A 
ATOM     26  N   UNL     1      -5.996   1.752   0.069  0.00  0.00    -0.228 N 
ATOM     27  C   UNL     1      -5.674   1.086   1.194  0.00  0.00    +0.286 A 
ATOM     28  O   UNL     1      -5.399   1.701   2.210  0.00  0.00    -0.265 OA
ATOM     29  C   UNL     1      -5.656  -0.333   1.194  0.00  0.00    +0.121 A 
ATOM     30  C   UNL     1      -6.671   1.870  -2.307  0.00  0.00    +0.065 C 
BRANCH  29  31
ATOM     31  C   UNL     1      -5.316  -1.058   2.381  0.00  0.00    +0.105 C 
ATOM     32  N   UNL     1      -5.047  -1.633   3.323  0.00  0.00    -0.191 NA
ENDBRANCH  29  31
ENDBRANCH  20  26
ENDBRANCH  18  20
ENDBRANCH   1  18
TORSDOF 9
