REMARK  Name = ZINC62254575
REMARK  10 active torsions:
REMARK  status: ('A' for Active; 'I' for Inactive)
REMARK    1  A    between atoms: C_1  and  C_2
REMARK    2  A    between atoms: C_5  and  C_7
REMARK    3  A    between atoms: C_8  and  C_18
REMARK    4  A    between atoms: N_10  and  C_12
REMARK    5  A    between atoms: C_18  and  N_19
REMARK    6  A    between atoms: N_19  and  C_20
REMARK    7  A    between atoms: C_20  and  C_21
REMARK    8  A    between atoms: C_21  and  C_22
REMARK    9  A    between atoms: C_21  and  C_23
REMARK   10  A    between atoms: C_23  and  N_24
REMARK                            x       y       z     vdW  Elec       q    Type
REMARK                         _______ _______ _______ _____ _____    ______ ____
ROOT
ATOM      1  C   UNL     1       1.667  -3.225  -0.025  0.00  0.00    +0.129 A 
ATOM      2  C   UNL     1       2.914  -3.284  -0.682  0.00  0.00    -0.016 A 
ATOM      3  C   UNL     1       3.447  -4.504  -0.452  0.00  0.00    +0.117 A 
ATOM      4  N   UNL     1       2.575  -5.202   0.322  0.00  0.00    -0.239 N 
ATOM      5  N   UNL     1       1.471  -4.379   0.582  0.00  0.00    -0.163 NA
ENDROOT
BRANCH   1  10
ATOM      6  C   UNL     1      -0.018   1.503   0.010  0.00  0.00    +0.086 C 
ATOM      7  C   UNL     1       0.002  -0.004   0.002  0.00  0.00    +0.103 A 
ATOM      8  C   UNL     1      -1.082  -0.804   0.003  0.00  0.00    +0.045 A 
ATOM      9  C   UNL     1      -0.613  -2.134  -0.008  0.00  0.00    +0.052 A 
ATOM     10  C   UNL     1       0.745  -2.070  -0.014  0.00  0.00    +0.155 A 
ATOM     11  O   UNL     1       1.104  -0.772  -0.013  0.00  0.00    -0.458 OA
ENDBRANCH   1  10
BRANCH   4  12
ATOM     12  C   UNL     1       2.751  -6.512   0.784  0.00  0.00    +0.065 A 
ATOM     13  C   UNL     1       3.904  -7.215   0.460  0.00  0.00    +0.028 A 
ATOM     14  C   UNL     1       4.076  -8.507   0.917  0.00  0.00    +0.002 A 
ATOM     15  C   UNL     1       3.100  -9.101   1.697  0.00  0.00    +0.000 A 
ATOM     16  C   UNL     1       1.951  -8.404   2.022  0.00  0.00    +0.002 A 
ATOM     17  C   UNL     1       1.776  -7.109   1.572  0.00  0.00    +0.028 A 
ENDBRANCH   4  12
BRANCH   2  18
ATOM     18  C   UNL     1       3.541  -2.182  -1.496  0.00  0.00    -0.043 C 
BRANCH  18  19
ATOM     19  N   UNL     1       4.167  -1.204  -0.596  0.00  0.00    +0.382 N 
ATOM     20  H   UNL     1       3.466  -0.814   0.016  0.00  0.00    -0.085 HD
ATOM     21  H   UNL     1       4.878  -1.661  -0.045  0.00  0.00    -0.085 HD
BRANCH  19  22
ATOM     22  C   UNL     1       4.778  -0.129  -1.389  0.00  0.00    -0.077 C 
BRANCH  22  23
ATOM     23  C   UNL     1       5.430   0.889  -0.452  0.00  0.00    -0.011 C 
ATOM     24  C   UNL     1       4.350   1.572   0.390  0.00  0.00    +0.007 C 
BRANCH  23  25
ATOM     25  C   UNL     1       6.172   1.941  -1.279  0.00  0.00    +0.124 C 
BRANCH  25  26
ATOM     26  N   UNL     1       6.895   2.846  -0.382  0.00  0.00    -0.338 N 
ATOM     27  C   UNL     1       6.411   4.004   0.166  0.00  0.00    +0.104 A 
ATOM     28  C   UNL     1       7.399   4.519   0.922  0.00  0.00    +0.101 A 
ATOM     29  N   UNL     1       8.457   3.699   0.839  0.00  0.00    -0.352 N 
ATOM     30  C   UNL     1       8.160   2.692   0.064  0.00  0.00    +0.173 A 
ATOM     31  H   UNL     1       9.306   3.831   1.288  0.00  0.00    +0.166 HD
ENDBRANCH  25  26
ENDBRANCH  23  25
ENDBRANCH  22  23
ENDBRANCH  19  22
ENDBRANCH  18  19
ENDBRANCH   2  18
TORSDOF 8
