REMARK  Name = ZINC63141397
REMARK  8 active torsions:
REMARK  status: ('A' for Active; 'I' for Inactive)
REMARK    1  A    between atoms: C_1  and  O_2
REMARK    2  A    between atoms: O_2  and  C_3
REMARK    3  A    between atoms: C_3  and  C_5
REMARK    4  A    between atoms: C_8  and  C_11
REMARK    5  A    between atoms: N_30  and  C_33
REMARK    6  A    between atoms: C_33  and  C_34
REMARK    7  A    between atoms: C_34  and  C_35
REMARK    8  A    between atoms: C_35  and  N_36
REMARK                            x       y       z     vdW  Elec       q    Type
REMARK                         _______ _______ _______ _____ _____    ______ ____
ROOT
ATOM      1  C   UNL     1       0.827  -6.343  -1.340  0.00  0.00    +0.133 C 
ATOM      2  C   UNL     1      -0.325  -6.865  -2.205  0.00  0.00    +0.131 C 
ATOM      3  C   UNL     1      -0.048  -8.341  -2.461  0.00  0.00    -0.034 C 
ATOM      4  C   UNL     1      -1.121  -9.002  -2.044  0.00  0.00    -0.001 A 
ATOM      5  C   UNL     1      -1.473 -10.430  -2.095  0.00  0.00    +0.010 A 
ATOM      6  C   UNL     1      -2.673 -10.771  -1.554  0.00  0.00    +0.001 A 
ATOM      7  C   UNL     1      -3.547  -9.846  -0.975  0.00  0.00    +0.002 A 
ATOM      8  C   UNL     1      -3.307  -8.513  -0.890  0.00  0.00    +0.026 A 
ATOM      9  C   UNL     1      -2.078  -8.032  -1.429  0.00  0.00    +0.043 A 
ATOM     10  N   UNL     1      -1.608  -6.801  -1.503  0.00  0.00    -0.375 N 
ATOM     11  C   UNL     1       1.269  -8.832  -3.009  0.00  0.00    +0.065 C 
ATOM     12  C   UNL     1       2.372  -8.186  -2.151  0.00  0.00    +0.167 C 
ATOM     13  N   UNL     1       2.095  -6.764  -1.977  0.00  0.00    -0.279 N 
ATOM     14  C   UNL     1       2.943  -5.808  -2.374  0.00  0.00    +0.234 C 
ATOM     15  O   UNL     1       2.612  -4.654  -2.204  0.00  0.00    -0.274 OA
ATOM     16  C   UNL     1       4.269  -6.062  -3.011  0.00  0.00    +0.203 C 
ATOM     17  N   UNL     1       4.549  -7.481  -3.151  0.00  0.00    -0.291 N 
ATOM     18  C   UNL     1       3.706  -8.440  -2.772  0.00  0.00    +0.237 C 
ATOM     19  O   UNL     1       4.045  -9.592  -2.937  0.00  0.00    -0.274 OA
ATOM     20  H   UNL     1      -2.025  -5.997  -1.156  0.00  0.00    +0.160 HD
ENDROOT
BRANCH   1  24
ATOM     21  C   UNL     1       0.658  -2.076  -1.122  0.00  0.00    +0.059 A 
ATOM     22  C   UNL     1       1.139  -2.815  -0.039  0.00  0.00    +0.015 A 
ATOM     23  C   UNL     1       1.191  -4.191  -0.116  0.00  0.00    +0.006 A 
ATOM     24  C   UNL     1       0.767  -4.840  -1.263  0.00  0.00    -0.025 A 
ATOM     25  C   UNL     1       0.290  -4.113  -2.340  0.00  0.00    +0.006 A 
ATOM     26  C   UNL     1       0.228  -2.737  -2.274  0.00  0.00    +0.015 A 
BRANCH  21  27
ATOM     27  C   UNL     1       0.601  -0.602  -1.046  0.00  0.00    +0.339 C 
ATOM     28  O   UNL     1       0.177   0.038  -1.988  0.00  0.00    -0.245 OA
BRANCH  27  30
ATOM     29  C   UNL     1       0.933   1.459   0.070  0.00  0.00    +0.280 C 
ATOM     30  O   UNL     1       1.017   0.033   0.066  0.00  0.00    -0.464 OA
ENDBRANCH  27  30
ENDBRANCH  21  27
ENDBRANCH   1  24
BRANCH  17  31
ATOM     31  C   UNL     1       5.828  -7.880  -3.744  0.00  0.00    +0.109 C 
BRANCH  31  32
ATOM     32  C   UNL     1       6.878  -8.027  -2.641  0.00  0.00    +0.034 C 
BRANCH  32  33
ATOM     33  C   UNL     1       8.214  -8.443  -3.261  0.00  0.00    +0.086 C 
BRANCH  33  34
ATOM     34  N   UNL     1       9.222  -8.585  -2.202  0.00  0.00    -0.298 NA
ATOM     35  C   UNL     1       9.521  -7.286  -1.582  0.00  0.00    +0.112 C 
ATOM     36  C   UNL     1      10.529  -7.488  -0.448  0.00  0.00    +0.175 C 
ATOM     37  O   UNL     1      11.701  -8.124  -0.965  0.00  0.00    -0.377 OA
ATOM     38  C   UNL     1      11.446  -9.392  -1.576  0.00  0.00    +0.175 C 
ATOM     39  C   UNL     1      10.448  -9.209  -2.722  0.00  0.00    +0.112 C 
ENDBRANCH  33  34
ENDBRANCH  32  33
ENDBRANCH  31  32
ENDBRANCH  17  31
TORSDOF 7
