REMARK  Name = ZINC39540787
REMARK  7 active torsions:
REMARK  status: ('A' for Active; 'I' for Inactive)
REMARK    1  A    between atoms: C_4  and  O_7
REMARK    2  A    between atoms: O_7  and  S_8
REMARK    3  A    between atoms: S_8  and  C_11
REMARK    4  A    between atoms: N_13  and  C_23
REMARK    5  A    between atoms: C_15  and  C_16
REMARK    6  A    between atoms: C_21  and  O_22
REMARK    7  A    between atoms: C_28  and  O_29
REMARK                            x       y       z     vdW  Elec       q    Type
REMARK                         _______ _______ _______ _____ _____    ______ ____
ROOT
ATOM      1  C   UNL     1       3.192  -2.273   2.002  0.00  0.00    +0.154 A 
ATOM      2  C   UNL     1       2.065  -2.167   2.731  0.00  0.00    +0.122 A 
ATOM      3  N   UNL     1       1.633  -3.424   3.048  0.00  0.00    -0.317 N 
ATOM      4  C   UNL     1       2.496  -4.336   2.515  0.00  0.00    +0.102 A 
ATOM      5  C   UNL     1       3.472  -3.656   1.854  0.00  0.00    +0.032 A 
ENDROOT
BRANCH   5   6
ATOM      6  C   UNL     1       4.617  -4.250   1.120  0.00  0.00    +0.027 A 
ATOM      7  C   UNL     1       4.394  -5.014  -0.023  0.00  0.00    +0.012 A 
ATOM      8  C   UNL     1       5.462  -5.564  -0.703  0.00  0.00    +0.001 A 
ATOM      9  C   UNL     1       6.755  -5.359  -0.253  0.00  0.00    +0.004 A 
ATOM     10  C   UNL     1       6.986  -4.601   0.880  0.00  0.00    +0.046 A 
ATOM     11  C   UNL     1       5.924  -4.039   1.568  0.00  0.00    +0.125 A 
BRANCH  11  12
ATOM     12  O   UNL     1       6.151  -3.290   2.679  0.00  0.00    -0.506 OA
ATOM     13  H   UNL     1       6.162  -3.799   3.501  0.00  0.00    +0.292 HD
ENDBRANCH  11  12
ENDBRANCH   5   6
BRANCH   3  14
ATOM     14  C   UNL     1       0.489  -3.727   3.801  0.00  0.00    +0.088 A 
ATOM     15  C   UNL     1      -0.426  -4.657   3.331  0.00  0.00    +0.030 A 
ATOM     16  C   UNL     1      -1.553  -4.954   4.074  0.00  0.00    +0.002 A 
ATOM     17  C   UNL     1      -1.771  -4.326   5.287  0.00  0.00    +0.004 A 
ATOM     18  C   UNL     1      -0.864  -3.397   5.761  0.00  0.00    +0.047 A 
ATOM     19  C   UNL     1       0.272  -3.099   5.025  0.00  0.00    +0.141 A 
BRANCH  19  20
ATOM     20  O   UNL     1       1.169  -2.191   5.494  0.00  0.00    -0.505 OA
ATOM     21  H   UNL     1       0.987  -1.281   5.219  0.00  0.00    +0.292 HD
ENDBRANCH  19  20
ENDBRANCH   3  14
BRANCH   1  22
ATOM     22  S   UNL     1       4.140  -0.941   1.346  0.00  0.00    +0.153 S 
ATOM     23  O   UNL     1       5.458  -1.436   1.154  0.00  0.00    -0.131 OA
ATOM     24  O   UNL     1       3.863   0.192   2.158  0.00  0.00    -0.131 OA
BRANCH  22  25
ATOM     25  O   UNL     1       3.586  -0.632  -0.037  0.00  0.00    -0.342 OA
BRANCH  25  29
ATOM     26  C   UNL     1      -0.017   1.378   0.010  0.00  0.00    +0.000 A 
ATOM     27  C   UNL     1       1.170   2.088   0.002  0.00  0.00    +0.004 A 
ATOM     28  C   UNL     1       2.377   1.417  -0.013  0.00  0.00    +0.048 A 
ATOM     29  C   UNL     1       2.399   0.030  -0.021  0.00  0.00    +0.157 A 
ATOM     30  C   UNL     1       1.207  -0.680  -0.013  0.00  0.00    +0.048 A 
ATOM     31  C   UNL     1       0.002  -0.004   0.002  0.00  0.00    +0.004 A 
ENDBRANCH  25  29
ENDBRANCH  22  25
ENDBRANCH   1  22
TORSDOF 7
