REMARK  Name = ZINC36316337
REMARK  18 active torsions:
REMARK  status: ('A' for Active; 'I' for Inactive)
REMARK    1  A    between atoms: C_1  and  C_2
REMARK    2  A    between atoms: C_2  and  C_3
REMARK    3  A    between atoms: C_3  and  C_4
REMARK    4  A    between atoms: C_4  and  O_6
REMARK    5  A    between atoms: O_6  and  C_7
REMARK    6  A    between atoms: C_7  and  C_8
REMARK    7  A    between atoms: C_8  and  C_10
REMARK    8  A    between atoms: C_8  and  O_37
REMARK    9  A    between atoms: C_10  and  N_11
REMARK   10  A    between atoms: N_11  and  C_12
REMARK   11  A    between atoms: N_11  and  C_33
REMARK   12  A    between atoms: C_12  and  C_13
REMARK   13  A    between atoms: C_14  and  C_31
REMARK   14  A    between atoms: N_16  and  C_25
REMARK   15  A    between atoms: C_17  and  O_18
REMARK   16  A    between atoms: O_18  and  C_19
REMARK   17  A    between atoms: C_31  and  C_32
REMARK   18  A    between atoms: C_33  and  C_34
REMARK                            x       y       z     vdW  Elec       q    Type
REMARK                         _______ _______ _______ _____ _____    ______ ____
ROOT
ATOM      1  C   UNL     1       2.677  -8.838  -5.794  0.00  0.00    +0.021 A 
ATOM      2  C   UNL     1       2.012  -9.142  -6.985  0.00  0.00    +0.068 A 
ATOM      3  N   UNL     1       2.900  -9.509  -7.873  0.00  0.00    -0.168 NA
ATOM      4  N   UNL     1       4.168  -9.453  -7.280  0.00  0.00    -0.200 N 
ATOM      5  C   UNL     1       4.008  -9.031  -5.997  0.00  0.00    +0.225 A 
ENDROOT
BRANCH   4   6
ATOM      6  C   UNL     1       5.385  -9.770  -7.899  0.00  0.00    +0.069 A 
ATOM      7  C   UNL     1       6.519  -9.015  -7.631  0.00  0.00    +0.028 A 
ATOM      8  C   UNL     1       7.717  -9.330  -8.243  0.00  0.00    +0.002 A 
ATOM      9  C   UNL     1       7.787 -10.395  -9.122  0.00  0.00    +0.000 A 
ATOM     10  C   UNL     1       6.659 -11.147  -9.392  0.00  0.00    +0.002 A 
ATOM     11  C   UNL     1       5.460 -10.842  -8.779  0.00  0.00    +0.028 A 
ENDBRANCH   4   6
BRANCH   2  12
ATOM     12  C   UNL     1       0.524  -9.062  -7.209  0.00  0.00    +0.054 C 
ATOM     13  C   UNL     1       0.178  -7.720  -7.858  0.00  0.00    +0.010 C 
ENDBRANCH   2  12
BRANCH   1  14
ATOM     14  C   UNL     1       2.034  -8.373  -4.513  0.00  0.00    -0.036 C 
BRANCH  14  15
ATOM     15  N   UNL     1       2.436  -6.987  -4.239  0.00  0.00    +0.384 N 
ATOM     16  H   UNL     1       3.442  -6.919  -4.254  0.00  0.00    -0.081 HD
BRANCH  15  17
ATOM     17  C   UNL     1       1.869  -6.101  -5.265  0.00  0.00    -0.075 C 
BRANCH  17  18
ATOM     18  C   UNL     1       2.732  -6.165  -6.527  0.00  0.00    -0.028 C 
ATOM     19  C   UNL     1       3.491  -4.899  -6.928  0.00  0.00    +0.002 C 
ATOM     20  C   UNL     1       2.274  -5.350  -7.738  0.00  0.00    +0.002 C 
ENDBRANCH  17  18
ENDBRANCH  15  17
BRANCH  15  21
ATOM     21  C   UNL     1       1.938  -6.585  -2.916  0.00  0.00    -0.043 C 
BRANCH  21  22
ATOM     22  C   UNL     1       2.491  -5.203  -2.562  0.00  0.00    +0.136 C 
BRANCH  22  23
ATOM     23  O   UNL     1       3.914  -5.271  -2.457  0.00  0.00    -0.390 OA
ATOM     24  H   UNL     1       4.229  -5.887  -1.781  0.00  0.00    +0.210 HD
ENDBRANCH  22  23
BRANCH  22  25
ATOM     25  C   UNL     1       1.902  -4.746  -1.225  0.00  0.00    +0.261 C 
BRANCH  25  26
ATOM     26  O   UNL     1       2.326  -3.409  -0.950  0.00  0.00    -0.462 OA
BRANCH  26  27
ATOM     27  C   UNL     1       1.894  -2.856   0.194  0.00  0.00    +0.307 C 
ATOM     28  O   UNL     1       1.179  -3.486   0.937  0.00  0.00    -0.251 OA
BRANCH  27  29
ATOM     29  C   UNL     1       2.299  -1.449   0.551  0.00  0.00    +0.120 C 
BRANCH  29  31
ATOM     30  C   UNL     1       2.088   0.364   2.256  0.00  0.00    +0.004 C 
ATOM     31  C   UNL     1       1.676  -1.064   1.894  0.00  0.00    +0.008 C 
ENDBRANCH  29  31
ENDBRANCH  27  29
ENDBRANCH  26  27
ENDBRANCH  25  26
ENDBRANCH  22  25
ENDBRANCH  21  22
ENDBRANCH  15  21
ENDBRANCH  14  15
ENDBRANCH   1  14
BRANCH   5  32
ATOM     32  O   UNL     1       4.995  -8.841  -5.085  0.00  0.00    -0.438 OA
BRANCH  32  33
ATOM     33  C   UNL     1       5.426  -9.917  -4.377  0.00  0.00    +0.130 A 
ATOM     34  C   UNL     1       4.939 -11.183  -4.671  0.00  0.00    +0.046 A 
ATOM     35  C   UNL     1       5.378 -12.276  -3.950  0.00  0.00    +0.004 A 
ATOM     36  C   UNL     1       6.303 -12.110  -2.936  0.00  0.00    +0.000 A 
ATOM     37  C   UNL     1       6.791 -10.850  -2.641  0.00  0.00    +0.004 A 
ATOM     38  C   UNL     1       6.359  -9.754  -3.363  0.00  0.00    +0.046 A 
ENDBRANCH  32  33
ENDBRANCH   5  32
TORSDOF 16
