REMARK  Name = ZINC22303682
REMARK  3 active torsions:
REMARK  status: ('A' for Active; 'I' for Inactive)
REMARK    1  A    between atoms: C_9  and  C_11
REMARK    2  A    between atoms: C_12  and  C_24
REMARK    3  A    between atoms: C_18  and  C_19
REMARK                            x       y       z     vdW  Elec       q    Type
REMARK                         _______ _______ _______ _____ _____    ______ ____
ROOT
ATOM      1  C   UNL     1       3.621  -3.479  -0.004  0.00  0.00    +0.040 C 
ATOM      2  C   UNL     1       5.114  -3.276  -0.160  0.00  0.00    +0.138 C 
ATOM      3  N   UNL     1       5.950  -4.484  -0.245  0.00  0.00    -0.315 N 
ATOM      4  C   UNL     1       5.356  -5.691  -0.181  0.00  0.00    +0.135 C 
ATOM      5  S   UNL     1       6.328  -7.096  -0.280  0.00  0.00    -0.019 S 
ATOM      6  N   UNL     1       4.031  -5.831  -0.043  0.00  0.00    -0.296 N 
ATOM      7  C   UNL     1       3.159  -4.764   0.051  0.00  0.00    +0.055 C 
ATOM      8  H   UNL     1       6.913  -4.413  -0.346  0.00  0.00    +0.149 HD
ATOM      9  H   UNL     1       3.666  -6.729  -0.004  0.00  0.00    +0.154 HD
ENDROOT
BRANCH   1  18
ATOM     10  C   UNL     1      -0.092   1.136  -0.318  0.00  0.00    +0.002 A 
ATOM     11  C   UNL     1      -0.021   1.079   1.067  0.00  0.00    +0.002 A 
ATOM     12  C   UNL     1       0.756   0.125   1.688  0.00  0.00    +0.028 A 
ATOM     13  C   UNL     1       1.476  -0.788   0.922  0.00  0.00    +0.064 A 
ATOM     14  C   UNL     1       1.403  -0.731  -0.481  0.00  0.00    +0.064 A 
ATOM     15  C   UNL     1       0.613   0.240  -1.092  0.00  0.00    +0.028 A 
ATOM     16  N   UNL     1       2.201  -1.734  -0.958  0.00  0.00    -0.340 N 
ATOM     17  H   UNL     1       2.352  -1.944  -1.893  0.00  0.00    +0.167 HD
ATOM     18  C   UNL     1       2.739  -2.379   0.087  0.00  0.00    +0.117 A 
ATOM     19  N   UNL     1       2.314  -1.824   1.230  0.00  0.00    -0.340 N 
ATOM     20  H   UNL     1       2.559  -2.109   2.125  0.00  0.00    +0.167 HD
ENDBRANCH   1  18
BRANCH   7  21
ATOM     21  C   UNL     1       1.722  -5.013   0.208  0.00  0.00    +0.034 A 
ATOM     22  C   UNL     1       1.059  -6.215   0.403  0.00  0.00    +0.017 A 
ATOM     23  C   UNL     1      -0.310  -6.130   0.516  0.00  0.00    +0.008 A 
ATOM     24  C   UNL     1      -0.904  -4.915   0.431  0.00  0.00    +0.046 A 
ATOM     25  S   UNL     1       0.373  -3.847   0.204  0.00  0.00    -0.095 S 
ENDBRANCH   7  21
BRANCH   2  26
ATOM     26  C   UNL     1       5.597  -2.462   1.013  0.00  0.00    -0.016 A 
ATOM     27  C   UNL     1       5.851  -1.110   0.871  0.00  0.00    +0.013 A 
ATOM     28  C   UNL     1       6.283  -0.406   1.946  0.00  0.00    +0.045 A 
ATOM     29  S   UNL     1       6.343  -1.664   3.211  0.00  0.00    -0.105 S 
ATOM     30  C   UNL     1       5.782  -3.042   2.224  0.00  0.00    +0.051 A 
ENDBRANCH   2  26
TORSDOF 3
