REMARK  Name = ZINC59197748
REMARK  7 active torsions:
REMARK  status: ('A' for Active; 'I' for Inactive)
REMARK    1  A    between atoms: C_3  and  C_10
REMARK    2  A    between atoms: C_5  and  N_7
REMARK    3  A    between atoms: C_10  and  O_11
REMARK    4  A    between atoms: O_11  and  C_12
REMARK    5  A    between atoms: C_15  and  C_19
REMARK    6  A    between atoms: N_20  and  N_21
REMARK    7  A    between atoms: C_22  and  C_24
REMARK                            x       y       z     vdW  Elec       q    Type
REMARK                         _______ _______ _______ _____ _____    ______ ____
ROOT
ATOM      1  C   UNL     1       5.254   3.108   1.492  0.00  0.00    +0.153 A 
ATOM      2  C   UNL     1       6.462   2.424   1.562  0.00  0.00    +0.084 A 
ATOM      3  C   UNL     1       7.641   3.119   1.734  0.00  0.00    +0.033 A 
ATOM      4  C   UNL     1       7.619   4.513   1.837  0.00  0.00    -0.003 A 
ATOM      5  C   UNL     1       6.402   5.196   1.766  0.00  0.00    +0.028 A 
ATOM      6  C   UNL     1       5.228   4.493   1.589  0.00  0.00    +0.062 A 
ATOM      7 BR   UNL     1       3.582   5.417   1.486  0.00  0.00    -0.046 Br
ATOM      8 CL   UNL     1       6.487   0.693   1.433  0.00  0.00    -0.080 Cl
ENDROOT
BRANCH   4   9
ATOM      9  C   UNL     1       8.876   5.260   2.022  0.00  0.00    +0.138 C 
ATOM     10  N   UNL     1       8.854   6.554   2.118  0.00  0.00    -0.187 NA
BRANCH  10  11
ATOM     11  N   UNL     1      10.049   7.264   2.293  0.00  0.00    -0.203 N 
ATOM     12  C   UNL     1      10.026   8.608   2.393  0.00  0.00    +0.270 C 
ATOM     13  O   UNL     1       8.966   9.205   2.331  0.00  0.00    -0.268 OA
ATOM     14  H   UNL     1      10.893   6.789   2.342  0.00  0.00    +0.178 HD
BRANCH  12  15
ATOM     15  C   UNL     1      11.276   9.351   2.576  0.00  0.00    +0.075 A 
ATOM     16  C   UNL     1      11.469  10.718   2.705  0.00  0.00    +0.021 A 
ATOM     17  C   UNL     1      12.772  11.124   2.867  0.00  0.00    +0.008 A 
ATOM     18  C   UNL     1      13.755  10.190   2.889  0.00  0.00    +0.046 A 
ATOM     19  S   UNL     1      12.943   8.732   2.698  0.00  0.00    -0.092 S 
ENDBRANCH  12  15
ENDBRANCH  10  11
ENDBRANCH   4   9
BRANCH   1  20
ATOM     20  O   UNL     1       4.095   2.419   1.322  0.00  0.00    -0.485 OA
BRANCH  20  21
ATOM     21  C   UNL     1       3.672   2.182  -0.022  0.00  0.00    +0.264 C 
BRANCH  21  24
ATOM     22  C   UNL     1      -0.017   1.378   0.010  0.00  0.00    +0.003 A 
ATOM     23  C   UNL     1       1.171   2.085   0.002  0.00  0.00    +0.007 A 
ATOM     24  C   UNL     1       2.377   1.411  -0.013  0.00  0.00    -0.008 A 
ATOM     25  C   UNL     1       2.396   0.028  -0.020  0.00  0.00    +0.039 A 
ATOM     26  C   UNL     1       1.209  -0.679  -0.012  0.00  0.00    +0.127 A 
ATOM     27  C   UNL     1       0.002  -0.004   0.002  0.00  0.00    +0.033 A 
BRANCH  26  28
ATOM     28  N   UNL     1       1.229  -2.159  -0.020  0.00  0.00    +0.056 N 
ATOM     29  O   UNL     1       2.284  -2.749  -0.035  0.00  0.00    -0.126 OA
ATOM     30  O   UNL     1       0.190  -2.778  -0.013  0.00  0.00    -0.126 OA
ENDBRANCH  26  28
ENDBRANCH  21  24
ENDBRANCH  20  21
ENDBRANCH   1  20
TORSDOF 7
