REMARK  Name = ZINC06482978
REMARK  7 active torsions:
REMARK  status: ('A' for Active; 'I' for Inactive)
REMARK    1  A    between atoms: C_3  and  S_25
REMARK    2  A    between atoms: C_6  and  N_7
REMARK    3  A    between atoms: C_8  and  C_10
REMARK    4  A    between atoms: C_10  and  S_11
REMARK    5  A    between atoms: S_11  and  C_12
REMARK    6  A    between atoms: C_13  and  C_23
REMARK    7  A    between atoms: S_25  and  N_28
REMARK                            x       y       z     vdW  Elec       q    Type
REMARK                         _______ _______ _______ _____ _____    ______ ____
ROOT
ATOM      1  N   UNL     1      -0.242   1.246   2.466  0.00  0.00    -0.285 N 
ATOM      2  C   UNL     1      -0.717   1.573   1.248  0.00  0.00    +0.227 C 
ATOM      3  O   UNL     1      -1.709   2.264   1.150  0.00  0.00    -0.275 OA
ATOM      4  H   UNL     1       0.511   0.639   2.546  0.00  0.00    +0.155 HD
ENDROOT
BRANCH   1  10
ATOM      5  C   UNL     1      -0.053   2.086   4.722  0.00  0.00    +0.025 A 
ATOM      6  C   UNL     1      -0.639   2.620   5.853  0.00  0.00    +0.030 A 
ATOM      7  C   UNL     1      -2.003   2.842   5.887  0.00  0.00    +0.109 A 
ATOM      8  C   UNL     1      -2.784   2.535   4.788  0.00  0.00    +0.030 A 
ATOM      9  C   UNL     1      -2.203   2.006   3.652  0.00  0.00    +0.025 A 
ATOM     10  C   UNL     1      -0.833   1.782   3.615  0.00  0.00    +0.034 A 
BRANCH   7  11
ATOM     11  S   UNL     1      -2.748   3.517   7.334  0.00  0.00    +0.074 S 
ATOM     12  O   UNL     1      -1.728   4.225   8.024  0.00  0.00    -0.150 OA
ATOM     13  O   UNL     1      -3.957   4.136   6.917  0.00  0.00    -0.150 OA
BRANCH  11  14
ATOM     14  N   UNL     1      -3.179   2.244   8.303  0.00  0.00    -0.194 N 
ATOM     15  C   UNL     1      -2.201   1.426   8.847  0.00  0.00    +0.177 A 
ATOM     16  N   UNL     1      -0.891   1.494   8.707  0.00  0.00    -0.232 NA
ATOM     17  C   UNL     1      -0.094   0.628   9.305  0.00  0.00    +0.120 A 
ATOM     18  C   UNL     1      -0.652  -0.347  10.062  0.00  0.00    +0.068 A 
ATOM     19  S   UNL     1      -2.387   0.044   9.881  0.00  0.00    -0.059 S 
ATOM     20  H   UNL     1      -4.115   2.071   8.489  0.00  0.00    +0.176 HD
ENDBRANCH  11  14
ENDBRANCH   7  11
ENDBRANCH   1  10
BRANCH   2  21
ATOM     21  C   UNL     1      -0.016   1.080   0.008  0.00  0.00    +0.172 C 
BRANCH  21  22
ATOM     22  S   UNL     1      -0.889   1.683  -1.458  0.00  0.00    -0.095 S 
BRANCH  22  23
ATOM     23  C   UNL     1       0.115   0.979  -2.723  0.00  0.00    +0.115 A 
ATOM     24  C   UNL     1      -0.208   1.199  -4.075  0.00  0.00    +0.084 A 
ATOM     25  C   UNL     1       0.607   0.630  -5.061  0.00  0.00    +0.027 A 
ATOM     26  C   UNL     1       1.692  -0.125  -4.652  0.00  0.00    -0.025 A 
ATOM     27  C   UNL     1       1.946  -0.300  -3.315  0.00  0.00    +0.046 A 
ATOM     28  N   UNL     1       1.171   0.250  -2.395  0.00  0.00    -0.244 NA
ATOM     29  C   UNL     1       3.133  -1.134  -2.874  0.00  0.00    +0.056 C 
ATOM     30  C   UNL     1       2.842  -2.601  -3.196  0.00  0.00    +0.006 C 
ATOM     31  C   UNL     1       3.233  -2.933  -4.622  0.00  0.00    +0.001 C 
ATOM     32  C   UNL     1       2.373  -2.267  -5.678  0.00  0.00    +0.005 C 
ATOM     33  C   UNL     1       2.598  -0.752  -5.690  0.00  0.00    +0.037 C 
BRANCH  24  34
ATOM     34  C   UNL     1      -1.347   1.990  -4.434  0.00  0.00    +0.102 C 
ATOM     35  N   UNL     1      -2.250   2.617  -4.719  0.00  0.00    -0.191 NA
ENDBRANCH  24  34
ENDBRANCH  22  23
ENDBRANCH  21  22
ENDBRANCH   2  21
TORSDOF 7
