REMARK  Name = ZINC35542248
REMARK  13 active torsions:
REMARK  status: ('A' for Active; 'I' for Inactive)
REMARK    1  A    between atoms: C_1  and  C_2
REMARK    2  A    between atoms: C_3  and  C_13
REMARK    3  A    between atoms: C_4  and  C_12
REMARK    4  A    between atoms: N_5  and  C_11
REMARK    5  A    between atoms: C_6  and  C_7
REMARK    6  A    between atoms: C_7  and  O_9
REMARK    7  A    between atoms: O_9  and  C_10
REMARK    8  A    between atoms: C_13  and  C_15
REMARK    9  A    between atoms: C_15  and  N_16
REMARK   10  A    between atoms: N_16  and  C_17
REMARK   11  A    between atoms: C_17  and  C_18
REMARK   12  A    between atoms: C_24  and  C_26
REMARK   13  A    between atoms: C_30  and  N_32
REMARK                            x       y       z     vdW  Elec       q    Type
REMARK                         _______ _______ _______ _____ _____    ______ ____
ROOT
ATOM      1  N   UNL     1      -0.330   1.519  -4.510  0.00  0.00    -0.288 N 
ATOM      2  C   UNL     1       0.644   1.203  -5.386  0.00  0.00    +0.247 C 
ATOM      3  O   UNL     1       0.390   1.110  -6.571  0.00  0.00    -0.270 OA
ENDROOT
BRANCH   2   4
ATOM      4  C   UNL     1       2.023   0.970  -4.905  0.00  0.00    +0.039 A 
ATOM      5  C   UNL     1       2.254   0.117  -3.824  0.00  0.00    +0.013 A 
ATOM      6  C   UNL     1       3.543  -0.096  -3.381  0.00  0.00    +0.003 A 
ATOM      7  C   UNL     1       4.605   0.534  -4.005  0.00  0.00    +0.033 A 
ATOM      8  C   UNL     1       4.383   1.381  -5.075  0.00  0.00    +0.127 A 
ATOM      9  C   UNL     1       3.100   1.598  -5.533  0.00  0.00    +0.045 A 
BRANCH   8  10
ATOM     10  N   UNL     1       5.526   2.051  -5.736  0.00  0.00    +0.056 N 
ATOM     11  O   UNL     1       6.651   1.858  -5.340  0.00  0.00    -0.126 OA
ATOM     12  O   UNL     1       5.333   2.792  -6.672  0.00  0.00    -0.126 OA
ENDBRANCH   8  10
ENDBRANCH   2   4
BRANCH   1  13
ATOM     13  C   UNL     1      -0.005   1.737  -3.099  0.00  0.00    +0.187 C 
BRANCH  13  14
ATOM     14  C   UNL     1      -0.252   0.467  -2.324  0.00  0.00    +0.182 C 
ATOM     15  O   UNL     1      -0.717  -0.503  -2.884  0.00  0.00    -0.290 OA
BRANCH  14  18
ATOM     16  C   UNL     1       0.999   2.826  -0.588  0.00  0.00    +0.047 C 
ATOM     17  C   UNL     1       0.626   1.446  -0.112  0.00  0.00    -0.008 A 
ATOM     18  C   UNL     1       0.071   0.406  -0.895  0.00  0.00    +0.043 A 
ATOM     19  C   UNL     1      -0.111  -0.682  -0.055  0.00  0.00    +0.027 A 
ATOM     20  N   UNL     1       0.305  -0.341   1.173  0.00  0.00    -0.341 N 
ATOM     21  C   UNL     1       0.765   0.959   1.154  0.00  0.00    +0.131 A 
ATOM     22  C   UNL     1       0.279  -1.213   2.350  0.00  0.00    +0.149 C 
ATOM     23  C   UNL     1      -0.679  -2.019  -0.454  0.00  0.00    +0.064 C 
BRANCH  21  24
ATOM     24  C   UNL     1       1.307   1.694   2.301  0.00  0.00    +0.356 C 
ATOM     25  O   UNL     1       1.681   2.844   2.165  0.00  0.00    -0.243 OA
BRANCH  24  26
ATOM     26  O   UNL     1       1.392   1.096   3.507  0.00  0.00    -0.463 OA
ATOM     27  C   UNL     1       1.930   1.872   4.580  0.00  0.00    +0.280 C 
ENDBRANCH  24  26
ENDBRANCH  21  24
ENDBRANCH  14  18
ENDBRANCH  13  14
ENDBRANCH   1  13
BRANCH   1  28
ATOM     28  C   UNL     1      -1.716   1.644  -4.970  0.00  0.00    +0.140 C 
BRANCH  28  29
ATOM     29  C   UNL     1      -1.985   3.091  -5.389  0.00  0.00    +0.136 C 
ATOM     30  C   UNL     1      -3.474   3.260  -5.761  0.00  0.00    +0.035 C 
ATOM     31  C   UNL     1      -3.401   4.207  -6.990  0.00  0.00    +0.031 C 
ATOM     32  C   UNL     1      -2.080   3.735  -7.647  0.00  0.00    +0.160 C 
ATOM     33  O   UNL     1      -1.208   3.413  -6.549  0.00  0.00    -0.375 OA
ENDBRANCH  28  29
ENDBRANCH   1  28
TORSDOF 9
