REMARK  Name = ZINC14031294
REMARK  10 active torsions:
REMARK  status: ('A' for Active; 'I' for Inactive)
REMARK    1  A    between atoms: C_1  and  C_2
REMARK    2  A    between atoms: C_2  and  C_3
REMARK    3  A    between atoms: C_3  and  O_4
REMARK    4  A    between atoms: O_4  and  C_5
REMARK    5  A    between atoms: C_8  and  C_11
REMARK    6  A    between atoms: N_13  and  C_14
REMARK    7  A    between atoms: C_14  and  N_16
REMARK    8  A    between atoms: N_16  and  N_17
REMARK    9  A    between atoms: C_18  and  C_20
REMARK   10  A    between atoms: C_23  and  C_27
REMARK                            x       y       z     vdW  Elec       q    Type
REMARK                         _______ _______ _______ _____ _____    ______ ____
ROOT
ATOM      1  C   UNL     1       2.320   1.243  -0.013  0.00  0.00    +0.153 C 
ATOM      2  S   UNL     1       2.343  -0.469  -0.023  0.00  0.00    -0.017 S 
ENDROOT
BRANCH   1   5
ATOM      3  C   UNL     1      -0.014   1.211   0.009  0.00  0.00    +0.250 C 
ATOM      4  O   UNL     1       0.002  -0.004   0.002  0.00  0.00    -0.270 OA
ATOM      5  N   UNL     1       1.143   1.901   0.001  0.00  0.00    -0.263 N 
ATOM      6  H   UNL     1       1.130   2.871   0.007  0.00  0.00    +0.157 HD
BRANCH   3  10
ATOM      7  C   UNL     1      -3.720   3.284   0.039  0.00  0.00    +0.121 A 
ATOM      8  C   UNL     1      -3.703   1.894   0.030  0.00  0.00    +0.046 A 
ATOM      9  C   UNL     1      -2.504   1.218   0.021  0.00  0.00    +0.016 A 
ATOM     10  C   UNL     1      -1.302   1.931   0.019  0.00  0.00    +0.037 A 
ATOM     11  C   UNL     1      -1.323   3.329   0.032  0.00  0.00    +0.016 A 
ATOM     12  C   UNL     1      -2.527   3.997   0.037  0.00  0.00    +0.046 A 
BRANCH   7  13
ATOM     13  O   UNL     1      -4.904   3.947   0.049  0.00  0.00    -0.492 OA
BRANCH  13  14
ATOM     14  C   UNL     1      -4.849   5.375   0.058  0.00  0.00    +0.229 C 
BRANCH  14  16
ATOM     15  C   UNL     1      -6.211   7.469   0.077  0.00  0.00    +0.007 C 
ATOM     16  C   UNL     1      -6.271   5.940   0.068  0.00  0.00    +0.038 C 
ENDBRANCH  14  16
ENDBRANCH  13  14
ENDBRANCH   7  13
ENDBRANCH   3  10
ENDBRANCH   1   5
BRANCH   1  17
ATOM     17  N   UNL     1       3.478   1.933  -0.021  0.00  0.00    -0.245 N 
ATOM     18  H   UNL     1       4.324   1.459  -0.031  0.00  0.00    +0.172 HD
BRANCH  17  19
ATOM     19  N   UNL     1       3.459   3.334  -0.013  0.00  0.00    -0.231 N 
ATOM     20  C   UNL     1       4.617   4.023  -0.020  0.00  0.00    +0.260 C 
ATOM     21  O   UNL     1       5.677   3.430  -0.034  0.00  0.00    -0.269 OA
ATOM     22  H   UNL     1       2.612   3.807  -0.002  0.00  0.00    +0.173 HD
BRANCH  20  23
ATOM     23  C   UNL     1       4.596   5.502  -0.012  0.00  0.00    +0.039 A 
ATOM     24  C   UNL     1       3.380   6.186  -0.003  0.00  0.00    +0.013 A 
ATOM     25  C   UNL     1       3.368   7.566   0.011  0.00  0.00    +0.005 A 
ATOM     26  C   UNL     1       4.558   8.271   0.003  0.00  0.00    -0.036 A 
ATOM     27  C   UNL     1       5.768   7.599  -0.013  0.00  0.00    +0.021 A 
ATOM     28  C   UNL     1       5.793   6.219  -0.020  0.00  0.00    +0.028 A 
ATOM     29 BR   UNL     1       7.388   8.573  -0.023  0.00  0.00    -0.050 Br
ATOM     30  C   UNL     1       4.536   9.778   0.011  0.00  0.00    +0.045 C 
ENDBRANCH  20  23
ENDBRANCH  17  19
ENDBRANCH   1  17
TORSDOF 8
