REMARK  Name = ZINC13882218
REMARK  8 active torsions:
REMARK  status: ('A' for Active; 'I' for Inactive)
REMARK    1  A    between atoms: C_1  and  O_2
REMARK    2  A    between atoms: O_2  and  C_3
REMARK    3  A    between atoms: C_6  and  N_12
REMARK    4  A    between atoms: C_7  and  N_9
REMARK    5  A    between atoms: C_13  and  C_15
REMARK    6  A    between atoms: C_18  and  C_20
REMARK    7  A    between atoms: C_20  and  O_21
REMARK    8  A    between atoms: O_21  and  C_22
REMARK                            x       y       z     vdW  Elec       q    Type
REMARK                         _______ _______ _______ _____ _____    ______ ____
ROOT
ATOM      1  N   UNL     1      -2.418  -0.343   0.040  0.00  0.00    -0.277 N 
ATOM      2  C   UNL     1      -1.177  -0.870   0.027  0.00  0.00    +0.284 C 
ATOM      3  O   UNL     1      -1.030  -2.078   0.005  0.00  0.00    -0.266 OA
ATOM      4  H   UNL     1      -2.536   0.616   0.122  0.00  0.00    +0.155 HD
ENDROOT
BRANCH   1   8
ATOM      5  C   UNL     1      -5.745  -2.834  -0.278  0.00  0.00    +0.122 A 
ATOM      6  C   UNL     1      -4.621  -3.264   0.412  0.00  0.00    +0.047 A 
ATOM      7  C   UNL     1      -3.518  -2.439   0.518  0.00  0.00    +0.029 A 
ATOM      8  C   UNL     1      -3.535  -1.180  -0.068  0.00  0.00    +0.064 A 
ATOM      9  C   UNL     1      -4.662  -0.749  -0.754  0.00  0.00    +0.151 A 
ATOM     10  C   UNL     1      -5.763  -1.577  -0.862  0.00  0.00    +0.080 A 
BRANCH   9  11
ATOM     11  N   UNL     1      -4.684   0.595  -1.373  0.00  0.00    +0.058 N 
ATOM     12  O   UNL     1      -5.705   1.012  -1.889  0.00  0.00    -0.126 OA
ATOM     13  O   UNL     1      -3.679   1.285  -1.367  0.00  0.00    -0.126 OA
ENDBRANCH   9  11
BRANCH   5  15
ATOM     14  C   UNL     1      -6.744  -4.928   0.245  0.00  0.00    +0.277 C 
ATOM     15  O   UNL     1      -6.831  -3.647  -0.381  0.00  0.00    -0.495 OA
ENDBRANCH   5  15
ENDBRANCH   1   8
BRANCH   2  16
ATOM     16  C   UNL     1      -0.006   0.012   0.041  0.00  0.00    +0.190 A 
ATOM     17  C   UNL     1       1.300  -0.388   0.031  0.00  0.00    +0.055 A 
ATOM     18  C   UNL     1       2.079   0.779   0.052  0.00  0.00    +0.049 A 
ATOM     19  C   UNL     1       1.226   1.827   0.073  0.00  0.00    +0.143 A 
ATOM     20  O   UNL     1      -0.029   1.361   0.067  0.00  0.00    -0.452 OA
BRANCH  19  21
ATOM     21  C   UNL     1       1.623   3.280   0.100  0.00  0.00    +0.303 C 
BRANCH  21  22
ATOM     22  O   UNL     1       1.745   3.765  -1.238  0.00  0.00    -0.484 OA
BRANCH  22  23
ATOM     23  C   UNL     1       2.099   5.069  -1.393  0.00  0.00    +0.121 A 
ATOM     24  C   UNL     1       2.318   5.865  -0.278  0.00  0.00    +0.046 A 
ATOM     25  C   UNL     1       2.683   7.188  -0.437  0.00  0.00    +0.018 A 
ATOM     26  C   UNL     1       2.818   7.722  -1.706  0.00  0.00    +0.014 A 
ATOM     27  C   UNL     1       2.595   6.931  -2.819  0.00  0.00    +0.018 A 
ATOM     28  C   UNL     1       2.236   5.606  -2.664  0.00  0.00    +0.046 A 
ATOM     29  I   UNL     1       3.364   9.730  -1.944  0.00  0.00    -0.044 I 
ENDBRANCH  22  23
ENDBRANCH  21  22
ENDBRANCH  19  21
ENDBRANCH   2  16
TORSDOF 7
