REMARK  Name = ZINC63302947
REMARK  9 active torsions:
REMARK  status: ('A' for Active; 'I' for Inactive)
REMARK    1  A    between atoms: C_1  and  C_2
REMARK    2  A    between atoms: C_2  and  N_3
REMARK    3  A    between atoms: C_4  and  C_29
REMARK    4  A    between atoms: C_5  and  C_9
REMARK    5  A    between atoms: C_6  and  C_8
REMARK    6  A    between atoms: C_9  and  N_10
REMARK    7  A    between atoms: C_11  and  C_13
REMARK    8  A    between atoms: C_16  and  C_19
REMARK    9  A    between atoms: C_19  and  C_20
REMARK                            x       y       z     vdW  Elec       q    Type
REMARK                         _______ _______ _______ _____ _____    ______ ____
ROOT
ATOM      1  C   UNL     1       1.068   0.722  -7.759  0.00  0.00    +0.329 C 
ATOM      2  N   UNL     1      -0.082   1.621  -7.598  0.00  0.00    -0.339 N 
ATOM      3  C   UNL     1      -0.678   1.738  -8.734  0.00  0.00    +0.107 C 
ATOM      4  N   UNL     1      -0.064   1.004  -9.706  0.00  0.00    -0.251 N 
ATOM      5  O   UNL     1       1.057   0.336  -9.142  0.00  0.00    -0.239 OA
ATOM      6  H   UNL     1      -0.345   0.947 -10.632  0.00  0.00    +0.195 HD
ATOM      7  H   UNL     1      -0.349   2.055  -6.773  0.00  0.00    +0.164 HD
ENDROOT
BRANCH   1   9
ATOM      8  N   UNL     1       1.041  -0.371  -5.540  0.00  0.00    -0.307 N 
ATOM      9  C   UNL     1       0.911  -0.489  -6.877  0.00  0.00    +0.265 C 
ATOM     10  O   UNL     1       0.668  -1.571  -7.369  0.00  0.00    -0.271 OA
ATOM     11  H   UNL     1       1.236   0.493  -5.147  0.00  0.00    +0.149 HD
BRANCH   8  12
ATOM     12  C   UNL     1       0.889  -1.549  -4.683  0.00  0.00    +0.143 C 
BRANCH  12  15
ATOM     13  N   UNL     1       0.688  -0.476  -1.203  0.00  0.00    -0.268 N 
ATOM     14  C   UNL     1       0.110  -0.737  -2.395  0.00  0.00    +0.041 A 
ATOM     15  C   UNL     1       1.081  -1.150  -3.242  0.00  0.00    +0.013 A 
ATOM     16  C   UNL     1       2.293  -1.141  -2.545  0.00  0.00    +0.065 A 
ATOM     17  N   UNL     1       2.060  -0.732  -1.324  0.00  0.00    -0.176 NA
ATOM     18  C   UNL     1       3.638  -1.529  -3.105  0.00  0.00    +0.068 C 
ATOM     19  C   UNL     1      -1.354  -0.595  -2.722  0.00  0.00    +0.065 C 
BRANCH  13  21
ATOM     20  C   UNL     1      -0.019   1.526   0.010  0.00  0.00    +0.029 C 
ATOM     21  C   UNL     1       0.002  -0.004   0.002  0.00  0.00    +0.140 C 
ENDBRANCH  13  21
ENDBRANCH  12  15
ENDBRANCH   8  12
ENDBRANCH   1   9
BRANCH   3  22
ATOM     22  C   UNL     1      -1.905   2.583  -8.961  0.00  0.00    +0.107 C 
BRANCH  22  23
ATOM     23  C   UNL     1      -3.139   1.752  -8.718  0.00  0.00    -0.034 C 
ATOM     24  C   UNL     1      -3.854   1.673  -7.573  0.00  0.00    -0.001 A 
ATOM     25  C   UNL     1      -3.702   2.312  -6.260  0.00  0.00    +0.010 A 
ATOM     26  C   UNL     1      -4.596   2.029  -5.285  0.00  0.00    +0.001 A 
ATOM     27  C   UNL     1      -5.662   1.143  -5.497  0.00  0.00    +0.002 A 
ATOM     28  C   UNL     1      -5.867   0.518  -6.676  0.00  0.00    +0.026 A 
ATOM     29  C   UNL     1      -4.988   0.742  -7.771  0.00  0.00    +0.043 A 
ATOM     30  N   UNL     1      -4.974   0.264  -8.992  0.00  0.00    -0.380 N 
ATOM     31  C   UNL     1      -3.832   0.843  -9.709  0.00  0.00    +0.145 C 
ATOM     32  H   UNL     1      -5.614  -0.365  -9.361  0.00  0.00    +0.160 HD
ENDBRANCH  22  23
ENDBRANCH   3  22
TORSDOF 6
