REMARK  Name = ZINC20842667
REMARK  10 active torsions:
REMARK  status: ('A' for Active; 'I' for Inactive)
REMARK    1  A    between atoms: C_1  and  C_2
REMARK    2  A    between atoms: C_5  and  S_8
REMARK    3  A    between atoms: N_6  and  N_7
REMARK    4  A    between atoms: S_8  and  C_9
REMARK    5  A    between atoms: C_9  and  C_10
REMARK    6  A    between atoms: N_12  and  C_13
REMARK    7  A    between atoms: C_15  and  C_21
REMARK    8  A    between atoms: C_15  and  C_22
REMARK    9  A    between atoms: C_17  and  C_19
REMARK   10  A    between atoms: C_17  and  C_20
REMARK                            x       y       z     vdW  Elec       q    Type
REMARK                         _______ _______ _______ _____ _____    ______ ____
ROOT
ATOM      1  C   UNL     1       2.506   2.217  -5.266  0.00  0.00    +0.224 C 
ATOM      2  O   UNL     1       3.494   1.830  -4.678  0.00  0.00    -0.275 OA
ATOM      3  N   UNL     1       2.599   2.616  -6.550  0.00  0.00    -0.312 N 
ATOM      4  H   UNL     1       1.703   2.967  -7.083  0.00  0.00    +0.149 HD
ENDROOT
BRANCH   3   5
ATOM      5  C   UNL     1       3.896   2.581  -7.238  0.00  0.00    +0.070 C 
ATOM      6  C   UNL     1       4.647   3.884  -6.962  0.00  0.00    +0.009 C 
ATOM      7  C   UNL     1       5.993   3.884  -7.683  0.00  0.00    -0.072 C 
ATOM      8  N   UNL     1       5.885   3.518  -9.080  0.00  0.00    +0.386 N 
ATOM      9  C   UNL     1       4.997   2.449  -9.488  0.00  0.00    -0.072 C 
ATOM     10  C   UNL     1       3.664   2.464  -8.744  0.00  0.00    +0.009 C 
ATOM     11  C   UNL     1       5.664   1.079  -9.317  0.00  0.00    -0.010 C 
ATOM     12  C   UNL     1       4.692   2.624 -10.992  0.00  0.00    -0.010 C 
ATOM     13  C   UNL     1       6.971   2.964  -6.943  0.00  0.00    -0.010 C 
ATOM     14  C   UNL     1       6.564   5.317  -7.602  0.00  0.00    -0.010 C 
ATOM     15  H   UNL     1       5.537   4.385  -9.660  0.00  0.00    -0.084 HD
ATOM     16  H   UNL     1       6.869   3.199  -9.452  0.00  0.00    -0.084 HD
ENDBRANCH   3   5
BRANCH   1  17
ATOM     17  C   UNL     1       1.175   2.253  -4.560  0.00  0.00    +0.173 C 
BRANCH  17  18
ATOM     18  S   UNL     1       1.377   1.661  -2.862  0.00  0.00    -0.075 S 
BRANCH  18  23
ATOM     19  C   UNL     1      -3.042   1.595   0.090  0.00  0.00    +0.090 C 
ATOM     20  C   UNL     1      -2.079   1.768  -1.057  0.00  0.00    +0.148 A 
ATOM     21  N   UNL     1      -2.369   2.211  -2.248  0.00  0.00    -0.132 NA
ATOM     22  N   UNL     1      -1.313   2.232  -2.980  0.00  0.00    -0.121 NA
ATOM     23  C   UNL     1      -0.282   1.804  -2.288  0.00  0.00    +0.209 A 
ATOM     24  N   UNL     1      -0.741   1.490  -1.041  0.00  0.00    -0.228 N 
BRANCH  24  25
ATOM     25  N   UNL     1      -0.012   1.005   0.008  0.00  0.00    -0.295 N 
ATOM     26  H   UNL     1       1.067   0.823  -0.110  0.00  0.00    +0.163 HD
ATOM     27  H   UNL     1      -0.503   0.796   0.969  0.00  0.00    +0.163 HD
ENDBRANCH  24  25
ENDBRANCH  18  23
ENDBRANCH  17  18
ENDBRANCH   1  17
TORSDOF 5
