REMARK  Name = ZINC40951919
REMARK  9 active torsions:
REMARK  status: ('A' for Active; 'I' for Inactive)
REMARK    1  A    between atoms: C_1  and  C_2
REMARK    2  A    between atoms: C_2  and  C_3
REMARK    3  A    between atoms: C_3  and  O_4
REMARK    4  A    between atoms: O_4  and  C_5
REMARK    5  A    between atoms: C_7  and  O_34
REMARK    6  A    between atoms: C_15  and  N_33
REMARK    7  A    between atoms: C_16  and  N_21
REMARK    8  A    between atoms: N_19  and  C_20
REMARK    9  A    between atoms: O_34  and  C_35
REMARK                            x       y       z     vdW  Elec       q    Type
REMARK                         _______ _______ _______ _____ _____    ______ ____
ROOT
ATOM      1  C   UNL     1       1.155  -2.560  -2.425  0.00  0.00    +0.137 A 
ATOM      2  C   UNL     1       1.617  -1.810  -3.490  0.00  0.00    +0.092 A 
ATOM      3  C   UNL     1       2.217  -2.435  -4.577  0.00  0.00    +0.126 A 
ATOM      4  C   UNL     1       2.357  -3.814  -4.612  0.00  0.00    +0.072 A 
ATOM      5  C   UNL     1       1.898  -4.587  -3.553  0.00  0.00    +0.060 A 
ATOM      6  C   UNL     1       1.302  -3.954  -2.446  0.00  0.00    +0.088 A 
ATOM      7  C   UNL     1       0.839  -4.780  -1.320  0.00  0.00    +0.201 A 
ATOM      8  O   UNL     1       0.115  -4.325  -0.452  0.00  0.00    -0.286 OA
ATOM      9  C   UNL     1       1.289  -6.183  -1.290  0.00  0.00    +0.048 A 
ATOM     10  C   UNL     1       1.127  -6.963  -0.141  0.00  0.00    +0.038 A 
ATOM     11  C   UNL     1       1.560  -8.272  -0.138  0.00  0.00    +0.047 A 
ATOM     12  C   UNL     1       2.160  -8.816  -1.282  0.00  0.00    +0.053 A 
ATOM     13  C   UNL     1       2.322  -8.049  -2.422  0.00  0.00    +0.051 A 
ATOM     14  C   UNL     1       1.888  -6.728  -2.440  0.00  0.00    +0.055 A 
ATOM     15  N   UNL     1       2.031  -5.961  -3.585  0.00  0.00    -0.343 N 
ATOM     16  C   UNL     1       2.349  -6.619  -4.854  0.00  0.00    +0.149 C 
ENDROOT
BRANCH  12  17
ATOM     17  N   UNL     1       2.598 -10.139  -1.270  0.00  0.00    -0.325 N 
ATOM     18  C   UNL     1       1.701 -11.227  -1.685  0.00  0.00    +0.124 C 
ATOM     19  C   UNL     1       2.383 -12.025  -2.804  0.00  0.00    +0.125 C 
ATOM     20  N   UNL     1       3.750 -12.357  -2.377  0.00  0.00    -0.314 N 
ATOM     21  C   UNL     1       4.647 -11.269  -1.963  0.00  0.00    +0.125 C 
ATOM     22  C   UNL     1       3.967 -10.470  -0.850  0.00  0.00    +0.124 C 
ATOM     23  C   UNL     1       4.187 -13.676  -2.366  0.00  0.00    +0.099 A 
ATOM     24  C   UNL     1       3.373 -14.676  -2.890  0.00  0.00    +0.042 A 
ATOM     25  C   UNL     1       3.820 -15.985  -2.873  0.00  0.00    +0.005 A 
ATOM     26  C   UNL     1       5.070 -16.251  -2.330  0.00  0.00    +0.018 A 
ATOM     27  C   UNL     1       5.825 -15.210  -1.827  0.00  0.00    +0.084 A 
ATOM     28  N   UNL     1       5.375 -13.970  -1.862  0.00  0.00    -0.350 N 
ATOM     29  H   UNL     1       5.927 -13.256  -1.506  0.00  0.00    +0.166 HD
ENDBRANCH  12  17
BRANCH  11  30
ATOM     30  N   UNL     1       1.401  -9.060   1.011  0.00  0.00    -0.357 N 
ATOM     31  H   UNL     1       0.986  -8.684   1.803  0.00  0.00    +0.142 HD
ATOM     32  H   UNL     1       1.706  -9.981   1.014  0.00  0.00    +0.142 HD
ENDBRANCH  11  30
BRANCH   3  33
ATOM     33  O   UNL     1       2.670  -1.688  -5.616  0.00  0.00    -0.495 OA
ATOM     34  C   UNL     1       2.496  -0.273  -5.522  0.00  0.00    +0.277 C 
ENDBRANCH   3  33
BRANCH   1  35
ATOM     35  O   UNL     1       0.567  -1.951  -1.364  0.00  0.00    -0.491 OA
BRANCH  35  36
ATOM     36  C   UNL     1       0.453  -0.527  -1.415  0.00  0.00    +0.229 C 
BRANCH  36  38
ATOM     37  C   UNL     1      -0.353   1.499  -0.196  0.00  0.00    +0.007 C 
ATOM     38  C   UNL     1      -0.230  -0.025  -0.141  0.00  0.00    +0.038 C 
ENDBRANCH  36  38
ENDBRANCH  35  36
ENDBRANCH   1  35
TORSDOF 6
