REMARK  Name = ZINC46899423
REMARK  9 active torsions:
REMARK  status: ('A' for Active; 'I' for Inactive)
REMARK    1  A    between atoms: C_1  and  C_2
REMARK    2  A    between atoms: C_2  and  C_3
REMARK    3  A    between atoms: C_2  and  C_4
REMARK    4  A    between atoms: C_2  and  C_5
REMARK    5  A    between atoms: C_5  and  C_6
REMARK    6  A    between atoms: C_6  and  C_8
REMARK    7  A    between atoms: C_6  and  N_15
REMARK    8  A    between atoms: N_18  and  N_19
REMARK    9  A    between atoms: C_20  and  C_22
REMARK                            x       y       z     vdW  Elec       q    Type
REMARK                         _______ _______ _______ _____ _____    ______ ____
ROOT
ATOM      1  N   UNL     1       2.291   1.508  -1.983  0.00  0.00    -0.291 N 
ATOM      2  C   UNL     1       2.471   2.282  -0.895  0.00  0.00    +0.316 C 
ATOM      3  O   UNL     1       2.461   1.784   0.214  0.00  0.00    -0.251 OA
ATOM      4  N   UNL     1       2.662   3.609  -1.036  0.00  0.00    -0.218 N 
ATOM      5  H   UNL     1       2.373   1.891  -2.870  0.00  0.00    +0.151 HD
ATOM      6  H   UNL     1       2.792   4.166  -0.253  0.00  0.00    +0.174 HD
ENDROOT
BRANCH   4   7
ATOM      7  N   UNL     1       2.674   4.183  -2.314  0.00  0.00    -0.233 N 
ATOM      8  C   UNL     1       2.865   5.510  -2.455  0.00  0.00    +0.234 C 
ATOM      9  O   UNL     1       3.027   6.206  -1.476  0.00  0.00    -0.274 OA
ATOM     10  H   UNL     1       2.545   3.626  -3.097  0.00  0.00    +0.173 HD
BRANCH   8  11
ATOM     11  C   UNL     1       2.878   6.127  -3.830  0.00  0.00    +0.099 C 
ATOM     12  C   UNL     1       4.026   5.527  -4.658  0.00  0.00    +0.037 C 
ATOM     13  C   UNL     1       4.250   6.368  -5.938  0.00  0.00    +0.166 C 
ATOM     14  S   UNL     1       3.687   8.042  -5.424  0.00  0.00    -0.030 S 
ATOM     15  O   UNL     1       2.567   8.416  -6.215  0.00  0.00    -0.174 OA
ATOM     16  O   UNL     1       4.812   8.906  -5.353  0.00  0.00    -0.174 OA
ATOM     17  C   UNL     1       3.114   7.660  -3.715  0.00  0.00    +0.178 C 
ENDBRANCH   8  11
ENDBRANCH   4   7
BRANCH   1  18
ATOM     18  C   UNL     1       1.972   0.087  -1.826  0.00  0.00    +0.105 C 
BRANCH  18  19
ATOM     19  C   UNL     1       2.482  -0.677  -3.021  0.00  0.00    -0.027 A 
ATOM     20  C   UNL     1       2.065  -0.329  -4.293  0.00  0.00    +0.008 A 
ATOM     21  C   UNL     1       2.532  -1.029  -5.389  0.00  0.00    +0.038 A 
ATOM     22  C   UNL     1       3.417  -2.079  -5.214  0.00  0.00    +0.123 A 
ATOM     23  C   UNL     1       3.833  -2.427  -3.940  0.00  0.00    +0.038 A 
ATOM     24  C   UNL     1       3.369  -1.722  -2.846  0.00  0.00    +0.008 A 
ATOM     25  F   UNL     1       3.874  -2.764  -6.285  0.00  0.00    -0.205 F 
ENDBRANCH  18  19
BRANCH  18  26
ATOM     26  C   UNL     1       0.456  -0.087  -1.719  0.00  0.00    +0.033 C 
BRANCH  26  28
ATOM     27  C   UNL     1       0.917  -1.959  -0.129  0.00  0.00    +0.010 C 
ATOM     28  C   UNL     1       0.132  -1.542  -1.375  0.00  0.00    -0.036 C 
ATOM     29  C   UNL     1       0.523  -2.443  -2.548  0.00  0.00    +0.010 C 
ATOM     30  C   UNL     1      -1.367  -1.681  -1.102  0.00  0.00    +0.010 C 
ENDBRANCH  26  28
ENDBRANCH  18  26
ENDBRANCH   1  18
TORSDOF 6
