REMARK  Name = ZINC36862623
REMARK  3 active torsions:
REMARK  status: ('A' for Active; 'I' for Inactive)
REMARK    1  A    between atoms: C_5  and  N_8
REMARK    2  A    between atoms: C_9  and  C_11
REMARK    3  A    between atoms: C_13  and  N_17
REMARK                            x       y       z     vdW  Elec       q    Type
REMARK                         _______ _______ _______ _____ _____    ______ ____
ROOT
ATOM      1  N   UNL     1       1.238  -2.081  -0.021  0.00  0.00    -0.278 N 
ATOM      2  C   UNL     1       0.156  -2.774   0.385  0.00  0.00    +0.265 C 
ATOM      3  O   UNL     1      -0.871  -2.187   0.672  0.00  0.00    -0.268 OA
ATOM      4  H   UNL     1       2.032  -2.551  -0.319  0.00  0.00    +0.155 HD
ENDROOT
BRANCH   1   9
ATOM      5  C   UNL     1       0.783   1.397  -1.132  0.00  0.00    +0.042 A 
ATOM      6  C   UNL     1       1.172   2.088   0.002  0.00  0.00    +0.044 A 
ATOM      7  C   UNL     1       1.583   1.397   1.129  0.00  0.00    +0.042 A 
ATOM      8  C   UNL     1       1.606   0.015   1.124  0.00  0.00    +0.065 A 
ATOM      9  C   UNL     1       1.215  -0.681  -0.013  0.00  0.00    +0.071 A 
ATOM     10  C   UNL     1       0.803   0.015  -1.143  0.00  0.00    +0.065 A 
ATOM     11 CL   UNL     1       0.315  -0.850  -2.567  0.00  0.00    -0.082 Cl
ATOM     12 CL   UNL     1       2.122  -0.850   2.538  0.00  0.00    -0.082 Cl
ATOM     13 CL   UNL     1       1.145   3.823   0.012  0.00  0.00    -0.083 Cl
ENDBRANCH   1   9
BRANCH   2  14
ATOM     14  C   UNL     1       0.216  -4.236   0.481  0.00  0.00    +0.104 A 
ATOM     15  C   UNL     1      -0.811  -5.069   0.874  0.00  0.00    +0.055 A 
ATOM     16  C   UNL     1      -0.322  -6.381   0.821  0.00  0.00    +0.043 A 
ATOM     17  C   UNL     1       0.970  -6.326   0.404  0.00  0.00    +0.106 A 
ATOM     18  N   UNL     1       1.305  -5.025   0.189  0.00  0.00    -0.355 N 
ATOM     19  H   UNL     1       2.168  -4.706  -0.118  0.00  0.00    +0.166 HD
BRANCH  16  20
ATOM     20  N   UNL     1      -1.040  -7.548   1.143  0.00  0.00    -0.357 N 
ATOM     21  H   UNL     1      -1.963  -7.485   1.434  0.00  0.00    +0.142 HD
ATOM     22  H   UNL     1      -0.611  -8.416   1.074  0.00  0.00    +0.142 HD
ENDBRANCH  16  20
ENDBRANCH   2  14
TORSDOF 3
