REMARK  Name = ZINC09225337
REMARK  7 active torsions:
REMARK  status: ('A' for Active; 'I' for Inactive)
REMARK    1  A    between atoms: C_1  and  C_2
REMARK    2  A    between atoms: C_2  and  N_49
REMARK    3  A    between atoms: C_12  and  C_22
REMARK    4  A    between atoms: C_14  and  C_17
REMARK    5  A    between atoms: C_22  and  O_24
REMARK    6  A    between atoms: O_24  and  C_25
REMARK    7  A    between atoms: C_25  and  C_26
REMARK                            x       y       z     vdW  Elec       q    Type
REMARK                         _______ _______ _______ _____ _____    ______ ____
ROOT
ATOM      1  C   UNL     1       1.183   3.155   1.140  0.00  0.00    -0.060 C 
ATOM      2  C   UNL     1       1.236   2.130   0.002  0.00  0.00    +0.089 C 
ATOM      3  N   UNL     1      -0.016   1.358   0.009  0.00  0.00    -0.309 N 
ATOM      4  C   UNL     1      -1.289   2.096   0.019  0.00  0.00    +0.089 C 
ATOM      5  C   UNL     1      -1.242   3.122   1.163  0.00  0.00    -0.060 C 
ATOM      6  C   UNL     1       0.002  -0.004   0.002  0.00  0.00    +0.175 C 
ATOM      7  N   UNL     1       1.158  -0.648  -0.018  0.00  0.00    -0.151 NA
ATOM      8  C   UNL     1       1.234  -1.971  -0.040  0.00  0.00    +0.255 C 
ATOM      9  O   UNL     1       2.326  -2.505  -0.026  0.00  0.00    -0.273 OA
ATOM     10  C   UNL     1      -0.006  -2.827  -0.088  0.00  0.00    +0.210 C 
ATOM     11  C   UNL     1      -1.162  -2.062   0.572  0.00  0.00    +0.132 C 
ATOM     12  N   UNL     1      -1.173  -0.701   0.009  0.00  0.00    -0.310 N 
ATOM     13  H   UNL     1      -1.988  -0.312  -0.344  0.00  0.00    +0.149 HD
ATOM     14  N   UNL     1      -0.043   3.969   0.989  0.00  0.00    +0.382 N 
ATOM     15  H   UNL     1      -0.057   4.377   0.047  0.00  0.00    -0.082 HD
ENDROOT
BRANCH  11  16
ATOM     16  C   UNL     1      -0.949  -1.998   2.062  0.00  0.00    +0.011 A 
ATOM     17  C   UNL     1      -1.532  -2.733   3.041  0.00  0.00    +0.013 A 
ATOM     18  C   UNL     1      -1.177  -2.500   4.356  0.00  0.00    +0.008 A 
ATOM     19  C   UNL     1      -0.257  -1.543   4.629  0.00  0.00    +0.045 A 
ATOM     20  S   UNL     1       0.144  -0.940   2.997  0.00  0.00    -0.100 S 
ENDBRANCH  11  16
BRANCH  14  22
ATOM     21  C   UNL     1      -1.203   6.012   1.666  0.00  0.00    -0.017 C 
ATOM     22  C   UNL     1      -0.048   5.061   1.984  0.00  0.00    -0.082 C 
ENDBRANCH  14  22
BRANCH  10  23
ATOM     23  C   UNL     1       0.239  -4.113   0.658  0.00  0.00    +0.321 C 
ATOM     24  O   UNL     1      -0.438  -4.393   1.619  0.00  0.00    -0.250 OA
BRANCH  23  25
ATOM     25  O   UNL     1       1.211  -4.948   0.256  0.00  0.00    -0.464 OA
BRANCH  25  26
ATOM     26  C   UNL     1       1.390  -6.168   1.022  0.00  0.00    +0.229 C 
ATOM     27  C   UNL     1       2.534  -6.986   0.418  0.00  0.00    +0.048 C 
ENDBRANCH  25  26
ENDBRANCH  23  25
ENDBRANCH  10  23
TORSDOF 5
