REMARK  Name = ZINC24642328
REMARK  9 active torsions:
REMARK  status: ('A' for Active; 'I' for Inactive)
REMARK    1  A    between atoms: C_1  and  C_2
REMARK    2  A    between atoms: C_2  and  C_3
REMARK    3  A    between atoms: C_3  and  C_28
REMARK    4  A    between atoms: N_6  and  N_10
REMARK    5  A    between atoms: C_11  and  C_13
REMARK    6  A    between atoms: C_13  and  C_15
REMARK    7  A    between atoms: C_16  and  C_27
REMARK    8  A    between atoms: N_18  and  C_21
REMARK    9  A    between atoms: C_19  and  C_20
REMARK                            x       y       z     vdW  Elec       q    Type
REMARK                         _______ _______ _______ _____ _____    ______ ____
ROOT
ATOM      1  N   UNL     1      -0.128   0.552   0.082  0.00  0.00    -0.217 N 
ATOM      2  C   UNL     1      -1.241   1.313   0.111  0.00  0.00    +0.301 C 
ATOM      3  O   UNL     1      -1.149   2.518   0.217  0.00  0.00    -0.265 OA
ATOM      4  H   UNL     1      -0.212  -0.541  -0.009  0.00  0.00    +0.174 HD
ENDROOT
BRANCH   1   8
ATOM      5  C   UNL     1       3.166   1.896   0.901  0.00  0.00    +0.139 C 
ATOM      6  C   UNL     1       1.912   1.128   1.268  0.00  0.00    +0.268 C 
ATOM      7  O   UNL     1       1.660   0.600   2.330  0.00  0.00    -0.271 OA
ATOM      8  N   UNL     1       1.134   1.154   0.168  0.00  0.00    -0.137 N 
ATOM      9  C   UNL     1       1.718   1.821  -0.834  0.00  0.00    +0.327 C 
ATOM     10  O   UNL     1       1.213   1.975  -1.928  0.00  0.00    -0.251 OA
ATOM     11  N   UNL     1       2.927   2.304  -0.494  0.00  0.00    -0.280 N 
ATOM     12  H   UNL     1       3.684   2.893  -1.032  0.00  0.00    +0.152 HD
BRANCH   5  13
ATOM     13  C   UNL     1       4.379   1.007   0.997  0.00  0.00    -0.015 A 
ATOM     14  C   UNL     1       5.089   0.930   2.180  0.00  0.00    +0.006 A 
ATOM     15  C   UNL     1       6.199   0.111   2.269  0.00  0.00    +0.000 A 
ATOM     16  C   UNL     1       6.605  -0.624   1.171  0.00  0.00    +0.000 A 
ATOM     17  C   UNL     1       5.898  -0.543  -0.015  0.00  0.00    +0.000 A 
ATOM     18  C   UNL     1       4.785   0.272  -0.102  0.00  0.00    +0.006 A 
ENDBRANCH   5  13
BRANCH   5  20
ATOM     19  C   UNL     1       2.109   4.034   1.646  0.00  0.00    +0.007 C 
ATOM     20  C   UNL     1       3.328   3.123   1.801  0.00  0.00    +0.037 C 
ENDBRANCH   5  20
ENDBRANCH   1   8
BRANCH   2  21
ATOM     21  C   UNL     1      -2.586   0.672   0.014  0.00  0.00    +0.252 C 
ATOM     22  O   UNL     1      -2.676  -0.525  -0.168  0.00  0.00    -0.282 OA
BRANCH  21  23
ATOM     23  C   UNL     1      -3.800   1.490   0.137  0.00  0.00    +0.071 A 
ATOM     24  C   UNL     1      -4.536   2.070  -0.924  0.00  0.00    +0.072 A 
ATOM     25  N   UNL     1      -5.544   2.717  -0.410  0.00  0.00    -0.171 NA
ATOM     26  N   UNL     1      -5.507   2.589   0.983  0.00  0.00    -0.236 N 
ATOM     27  C   UNL     1      -4.445   1.835   1.315  0.00  0.00    +0.053 A 
ATOM     28  C   UNL     1      -4.030   1.441   2.709  0.00  0.00    +0.066 C 
ATOM     29  C   UNL     1      -4.212   1.958  -2.392  0.00  0.00    +0.068 C 
BRANCH  26  30
ATOM     30  C   UNL     1      -6.426   3.148   1.881  0.00  0.00    +0.066 A 
ATOM     31  C   UNL     1      -7.784   3.124   1.591  0.00  0.00    +0.028 A 
ATOM     32  C   UNL     1      -8.687   3.672   2.480  0.00  0.00    +0.002 A 
ATOM     33  C   UNL     1      -8.241   4.253   3.653  0.00  0.00    +0.000 A 
ATOM     34  C   UNL     1      -6.888   4.282   3.942  0.00  0.00    +0.002 A 
ATOM     35  C   UNL     1      -5.980   3.731   3.059  0.00  0.00    +0.028 A 
ENDBRANCH  26  30
ENDBRANCH  21  23
ENDBRANCH   2  21
TORSDOF 6
