REMARK  Name = ZINC38704873
REMARK  15 active torsions:
REMARK  status: ('A' for Active; 'I' for Inactive)
REMARK    1  A    between atoms: C_1  and  C_2
REMARK    2  A    between atoms: C_2  and  O_3
REMARK    3  A    between atoms: O_3  and  C_4
REMARK    4  A    between atoms: C_7  and  C_10
REMARK    5  A    between atoms: C_13  and  C_33
REMARK    6  A    between atoms: N_20  and  C_21
REMARK    7  A    between atoms: C_21  and  C_22
REMARK    8  A    between atoms: C_22  and  C_23
REMARK    9  A    between atoms: C_26  and  O_31
REMARK   10  A    between atoms: C_27  and  O_29
REMARK   11  A    between atoms: O_29  and  C_30
REMARK   12  A    between atoms: O_31  and  C_32
REMARK   13  A    between atoms: C_34  and  C_41
REMARK   14  A    between atoms: C_36  and  C_40
REMARK   15  A    between atoms: C_38  and  O_39
REMARK                            x       y       z     vdW  Elec       q    Type
REMARK                         _______ _______ _______ _____ _____    ______ ____
ROOT
ATOM      1  C   UNL     1       1.090  -5.674  -2.007  0.00  0.00    +0.141 C 
ATOM      2  C   UNL     1       0.027  -6.353  -2.825  0.00  0.00    +0.035 A 
ATOM      3  C   UNL     1      -1.333  -6.642  -2.987  0.00  0.00    +0.102 A 
ATOM      4  N   UNL     1      -1.454  -7.373  -4.077  0.00  0.00    -0.173 NA
ATOM      5  N   UNL     1      -0.307  -7.574  -4.621  0.00  0.00    -0.272 N 
ATOM      6  H   UNL     1      -0.156  -8.085  -5.431  0.00  0.00    +0.189 HD
ATOM      7  C   UNL     1       0.669  -6.962  -3.886  0.00  0.00    +0.126 A 
ATOM      8  C   UNL     1       2.108  -6.696  -3.776  0.00  0.00    +0.265 C 
ATOM      9  O   UNL     1       2.950  -7.095  -4.557  0.00  0.00    -0.268 OA
ATOM     10  N   UNL     1       2.364  -5.948  -2.685  0.00  0.00    -0.285 N 
ENDROOT
BRANCH   3  11
ATOM     11  C   UNL     1      -2.435  -6.206  -2.094  0.00  0.00    +0.047 A 
ATOM     12  C   UNL     1      -3.587  -5.637  -2.632  0.00  0.00    -0.037 A 
ATOM     13  C   UNL     1      -4.610  -5.232  -1.798  0.00  0.00    +0.007 A 
ATOM     14  C   UNL     1      -4.495  -5.391  -0.428  0.00  0.00    -0.047 A 
ATOM     15  C   UNL     1      -3.357  -5.954   0.116  0.00  0.00    +0.049 A 
ATOM     16  C   UNL     1      -2.325  -6.370  -0.711  0.00  0.00    +0.127 A 
ATOM     17  C   UNL     1      -5.617  -4.947   0.475  0.00  0.00    +0.044 C 
ATOM     18  C   UNL     1      -3.716  -5.462  -4.123  0.00  0.00    +0.044 C 
BRANCH  16  19
ATOM     19  O   UNL     1      -1.208  -6.929  -0.178  0.00  0.00    -0.506 OA
ATOM     20  H   UNL     1      -0.539  -6.287   0.098  0.00  0.00    +0.292 HD
ENDBRANCH  16  19
ENDBRANCH   3  11
BRANCH   1  24
ATOM     21  C   UNL     1       0.375  -1.463  -1.867  0.00  0.00    +0.121 A 
ATOM     22  C   UNL     1       0.180  -2.239  -0.734  0.00  0.00    +0.046 A 
ATOM     23  C   UNL     1       0.412  -3.600  -0.782  0.00  0.00    +0.009 A 
ATOM     24  C   UNL     1       0.838  -4.189  -1.958  0.00  0.00    -0.022 A 
ATOM     25  C   UNL     1       1.033  -3.418  -3.089  0.00  0.00    +0.009 A 
ATOM     26  C   UNL     1       0.797  -2.058  -3.048  0.00  0.00    +0.046 A 
BRANCH  21  27
ATOM     27  O   UNL     1       0.147  -0.124  -1.823  0.00  0.00    -0.492 OA
BRANCH  27  29
ATOM     28  C   UNL     1      -0.488   1.929  -0.718  0.00  0.00    +0.048 C 
ATOM     29  C   UNL     1      -0.285   0.419  -0.574  0.00  0.00    +0.225 C 
ENDBRANCH  27  29
ENDBRANCH  21  27
ENDBRANCH   1  24
BRANCH  10  30
ATOM     30  C   UNL     1       3.685  -5.487  -2.250  0.00  0.00    +0.114 C 
BRANCH  30  31
ATOM     31  C   UNL     1       4.305  -6.525  -1.313  0.00  0.00    +0.054 C 
BRANCH  31  32
ATOM     32  C   UNL     1       5.663  -6.050  -0.866  0.00  0.00    -0.042 A 
ATOM     33  C   UNL     1       6.786  -6.376  -1.604  0.00  0.00    +0.007 A 
ATOM     34  C   UNL     1       8.034  -5.943  -1.198  0.00  0.00    +0.049 A 
ATOM     35  C   UNL     1       8.162  -5.179  -0.049  0.00  0.00    +0.161 A 
ATOM     36  C   UNL     1       7.032  -4.850   0.694  0.00  0.00    +0.162 A 
ATOM     37  C   UNL     1       5.784  -5.284   0.279  0.00  0.00    +0.053 A 
BRANCH  36  38
ATOM     38  O   UNL     1       7.153  -4.101   1.822  0.00  0.00    -0.491 OA
ATOM     39  C   UNL     1       5.951  -3.801   2.534  0.00  0.00    +0.277 C 
ENDBRANCH  36  38
BRANCH  35  40
ATOM     40  O   UNL     1       9.390  -4.753   0.352  0.00  0.00    -0.491 OA
ATOM     41  C   UNL     1      10.504  -5.129  -0.459  0.00  0.00    +0.277 C 
ENDBRANCH  35  40
ENDBRANCH  31  32
ENDBRANCH  30  31
ENDBRANCH  10  30
TORSDOF 10
