REMARK  Name = ZINC40660700
REMARK  6 active torsions:
REMARK  status: ('A' for Active; 'I' for Inactive)
REMARK    1  A    between atoms: C_1  and  C_2
REMARK    2  A    between atoms: C_11  and  N_12
REMARK    3  A    between atoms: C_14  and  N_33
REMARK    4  A    between atoms: C_15  and  N_19
REMARK    5  A    between atoms: N_19  and  C_20
REMARK    6  A    between atoms: C_20  and  C_21
REMARK                            x       y       z     vdW  Elec       q    Type
REMARK                         _______ _______ _______ _____ _____    ______ ____
ROOT
ATOM      1  N   UNL     1       0.070  -4.875  -1.165  0.00  0.00    -0.297 N 
ATOM      2  C   UNL     1       0.193  -6.256  -1.102  0.00  0.00    +0.159 A 
ATOM      3  C   UNL     1       0.307  -7.009  -2.267  0.00  0.00    +0.206 A 
ATOM      4  C   UNL     1       0.428  -8.390  -2.150  0.00  0.00    +0.163 A 
ATOM      5  N   UNL     1       0.430  -8.938  -0.936  0.00  0.00    -0.218 NA
ATOM      6  C   UNL     1       0.320  -8.191   0.144  0.00  0.00    +0.225 A 
ATOM      7  N   UNL     1       0.208  -6.880   0.075  0.00  0.00    -0.218 NA
ATOM      8  H   UNL     1      -0.024  -4.436  -2.025  0.00  0.00    +0.154 HD
ENDROOT
BRANCH   1  19
ATOM      9  C   UNL     1      -2.346   0.961   0.332  0.00  0.00    +0.063 C 
ATOM     10  C   UNL     1      -1.702  -0.398   0.231  0.00  0.00    +0.013 A 
ATOM     11  C   UNL     1      -1.759  -1.087  -0.977  0.00  0.00    +0.021 A 
ATOM     12  C   UNL     1      -1.180  -2.320  -1.086  0.00  0.00    +0.013 A 
ATOM     13  C   UNL     1      -0.538  -2.854   0.044  0.00  0.00    +0.020 A 
ATOM     14  C   UNL     1      -0.516  -2.100   1.243  0.00  0.00    +0.048 A 
ATOM     15  N   UNL     1      -1.098  -0.897   1.282  0.00  0.00    -0.358 N 
ATOM     16  C   UNL     1       0.125  -2.631   2.375  0.00  0.00    +0.026 A 
ATOM     17  C   UNL     1       0.717  -3.857   2.313  0.00  0.00    +0.004 A 
ATOM     18  C   UNL     1       0.701  -4.605   1.140  0.00  0.00    +0.024 A 
ATOM     19  C   UNL     1       0.083  -4.120   0.006  0.00  0.00    +0.042 A 
ATOM     20  H   UNL     1      -1.075  -0.385   2.106  0.00  0.00    +0.166 HD
ENDBRANCH   1  19
BRANCH   4  21
ATOM     21  N   UNL     1       0.544  -9.185  -3.281  0.00  0.00    -0.264 N 
ATOM     22  C   UNL     1      -0.587  -9.778  -3.834  0.00  0.00    +0.127 A 
ATOM     23  C   UNL     1      -1.850  -9.409  -3.382  0.00  0.00    +0.044 A 
ATOM     24  C   UNL     1      -2.965 -10.006  -3.941  0.00  0.00    +0.005 A 
ATOM     25  C   UNL     1      -2.780 -10.957  -4.936  0.00  0.00    +0.020 A 
ATOM     26  C   UNL     1      -1.498 -11.275  -5.337  0.00  0.00    +0.113 A 
ATOM     27  N   UNL     1      -0.452 -10.685  -4.790  0.00  0.00    -0.240 NA
BRANCH  21  28
ATOM     28  C   UNL     1       1.857  -9.400  -3.894  0.00  0.00    +0.149 C 
BRANCH  28  29
ATOM     29  C   UNL     1       2.504 -10.616  -3.281  0.00  0.00    -0.030 A 
ATOM     30  C   UNL     1       3.300 -10.483  -2.159  0.00  0.00    +0.005 A 
ATOM     31  C   UNL     1       3.894 -11.598  -1.597  0.00  0.00    +0.000 A 
ATOM     32  C   UNL     1       3.691 -12.845  -2.157  0.00  0.00    +0.000 A 
ATOM     33  C   UNL     1       2.894 -12.978  -3.279  0.00  0.00    +0.000 A 
ATOM     34  C   UNL     1       2.297 -11.864  -3.838  0.00  0.00    +0.005 A 
ENDBRANCH  28  29
ENDBRANCH  21  28
ENDBRANCH   4  21
BRANCH   3  35
ATOM     35  N   UNL     1       0.299  -6.357  -3.596  0.00  0.00    +0.063 N 
ATOM     36  O   UNL     1       1.343  -6.077  -4.138  0.00  0.00    -0.126 OA
ATOM     37  O   UNL     1      -0.751  -6.105  -4.140  0.00  0.00    -0.126 OA
ENDBRANCH   3  35
TORSDOF 5
