REMARK  Name = ZINC23074280
REMARK  8 active torsions:
REMARK  status: ('A' for Active; 'I' for Inactive)
REMARK    1  A    between atoms: C_4  and  C_7
REMARK    2  A    between atoms: C_7  and  N_8
REMARK    3  A    between atoms: C_11  and  N_14
REMARK    4  A    between atoms: C_15  and  C_17
REMARK    5  A    between atoms: C_17  and  S_18
REMARK    6  A    between atoms: S_18  and  C_19
REMARK    7  A    between atoms: C_21  and  C_24
REMARK    8  A    between atoms: C_25  and  C_26
REMARK                            x       y       z     vdW  Elec       q    Type
REMARK                         _______ _______ _______ _____ _____    ______ ____
ROOT
ATOM      1  N   UNL     1       8.789  -2.467  -0.097  0.00  0.00    -0.312 N 
ATOM      2  C   UNL     1       8.239  -1.237  -0.085  0.00  0.00    +0.224 C 
ATOM      3  O   UNL     1       8.950  -0.254  -0.087  0.00  0.00    -0.275 OA
ATOM      4  H   UNL     1       8.143  -3.358  -0.096  0.00  0.00    +0.149 HD
ENDROOT
BRANCH   1   8
ATOM      5  N   UNL     1      12.579  -4.076  -0.988  0.00  0.00    +0.382 N 
ATOM      6  C   UNL     1      12.144  -4.152   0.412  0.00  0.00    -0.077 C 
ATOM      7  C   UNL     1      10.626  -3.975   0.486  0.00  0.00    +0.003 C 
ATOM      8  C   UNL     1      10.246  -2.618  -0.113  0.00  0.00    +0.069 C 
ATOM      9  C   UNL     1      10.753  -2.546  -1.556  0.00  0.00    +0.003 C 
ATOM     10  C   UNL     1      12.267  -2.765  -1.571  0.00  0.00    -0.077 C 
ATOM     11  H   UNL     1      12.021  -4.836  -1.555  0.00  0.00    -0.081 HD
BRANCH   5  12
ATOM     12  C   UNL     1      14.011  -4.380  -1.112  0.00  0.00    -0.043 C 
BRANCH  12  16
ATOM     13  C   UNL     1      15.023  -4.817  -5.239  0.00  0.00    +0.000 A 
ATOM     14  C   UNL     1      15.102  -3.576  -4.636  0.00  0.00    +0.000 A 
ATOM     15  C   UNL     1      14.774  -3.434  -3.300  0.00  0.00    +0.002 A 
ATOM     16  C   UNL     1      14.368  -4.534  -2.568  0.00  0.00    -0.064 A 
ATOM     17  C   UNL     1      14.294  -5.776  -3.170  0.00  0.00    +0.002 A 
ATOM     18  C   UNL     1      14.617  -5.917  -4.507  0.00  0.00    +0.000 A 
ENDBRANCH  12  16
ENDBRANCH   5  12
ENDBRANCH   1   8
BRANCH   2  19
ATOM     19  C   UNL     1       6.740  -1.081  -0.070  0.00  0.00    +0.173 C 
BRANCH  19  20
ATOM     20  S   UNL     1       6.315   0.678  -0.056  0.00  0.00    -0.075 S 
BRANCH  20  21
ATOM     21  C   UNL     1       4.557   0.569  -0.039  0.00  0.00    +0.209 A 
ATOM     22  N   UNL     1       3.681   1.617  -0.030  0.00  0.00    -0.202 NA
ATOM     23  C   UNL     1       2.424   1.050  -0.015  0.00  0.00    +0.150 A 
ATOM     24  N   UNL     1       2.591  -0.257  -0.025  0.00  0.00    -0.258 N 
ATOM     25  N   UNL     1       3.845  -0.537  -0.039  0.00  0.00    -0.145 NA
ATOM     26  H   UNL     1       1.716  -0.923  -0.020  0.00  0.00    +0.191 HD
BRANCH  23  27
ATOM     27  C   UNL     1       1.145   1.765   0.001  0.00  0.00    +0.048 C 
ATOM     28  C   UNL     1      -0.013   1.076   0.008  0.00  0.00    +0.011 C 
BRANCH  28  29
ATOM     29  C   UNL     1      -1.298   1.795   0.018  0.00  0.00    -0.025 A 
ATOM     30  C   UNL     1      -1.320   3.193   0.031  0.00  0.00    +0.011 A 
ATOM     31  C   UNL     1      -2.526   3.860   0.035  0.00  0.00    +0.039 A 
ATOM     32  C   UNL     1      -3.716   3.147   0.037  0.00  0.00    +0.123 A 
ATOM     33  C   UNL     1      -3.700   1.761   0.029  0.00  0.00    +0.039 A 
ATOM     34  C   UNL     1      -2.501   1.082   0.020  0.00  0.00    +0.011 A 
ATOM     35  F   UNL     1      -4.895   3.807   0.047  0.00  0.00    -0.205 F 
ENDBRANCH  28  29
ENDBRANCH  23  27
ENDBRANCH  20  21
ENDBRANCH  19  20
ENDBRANCH   2  19
TORSDOF 8
