REMARK  Name = ZINC12055308
REMARK  4 active torsions:
REMARK  status: ('A' for Active; 'I' for Inactive)
REMARK    1  A    between atoms: C_3  and  S_8
REMARK    2  A    between atoms: S_8  and  C_9
REMARK    3  A    between atoms: C_12  and  C_25
REMARK    4  A    between atoms: C_15  and  N_64
REMARK                            x       y       z     vdW  Elec       q    Type
REMARK                         _______ _______ _______ _____ _____    ______ ____
ROOT
ATOM      1  C   UNL     1       5.700  -0.197  -1.129  0.00  0.00    +0.034 C 
ATOM      2  C   UNL     1       6.082   0.252   0.296  0.00  0.00    +0.006 C 
ATOM      3  C   UNL     1       4.986  -0.339   1.210  0.00  0.00    +0.021 C 
ATOM      4  C   UNL     1       4.407  -1.022  -0.957  0.00  0.00    -0.063 C 
ATOM      5  N   UNL     1       3.852  -0.527   0.308  0.00  0.00    +0.390 N 
ATOM      6  H   UNL     1       3.373   0.368   0.156  0.00  0.00    -0.080 HD
ENDROOT
BRANCH   5   7
ATOM      7  C   UNL     1       2.881  -1.515   0.875  0.00  0.00    -0.061 C 
ATOM      8  C   UNL     1       1.895  -1.956  -0.209  0.00  0.00    -0.024 C 
ATOM      9  C   UNL     1       0.920  -2.981   0.375  0.00  0.00    +0.005 C 
ATOM     10  C   UNL     1       0.151  -2.350   1.538  0.00  0.00    -0.010 C 
ATOM     11  C   UNL     1      -0.629  -1.134   1.033  0.00  0.00    +0.007 C 
ATOM     12  C   UNL     1       0.346  -0.109   0.449  0.00  0.00    -0.010 C 
ATOM     13  C   UNL     1       1.114  -0.741  -0.714  0.00  0.00    +0.005 C 
ATOM     14  C   UNL     1       1.332   0.332   1.533  0.00  0.00    +0.005 C 
ATOM     15  C   UNL     1       2.112  -0.884   2.037  0.00  0.00    -0.024 C 
ATOM     16  C   UNL     1       1.137  -1.909   2.621  0.00  0.00    +0.005 C 
ENDBRANCH   5   7
BRANCH   3  17
ATOM     17  C   UNL     1       4.648   0.626   2.317  0.00  0.00    +0.202 C 
ATOM     18  O   UNL     1       3.817   1.491   2.135  0.00  0.00    -0.277 OA
ATOM     19  N   UNL     1       5.269   0.529   3.509  0.00  0.00    -0.298 N 
ATOM     20  C   UNL     1       6.276  -0.516   3.755  0.00  0.00    +0.136 C 
ATOM     21  C   UNL     1       7.531   0.156   4.335  0.00  0.00    +0.179 C 
ATOM     22  O   UNL     1       7.158   0.956   5.459  0.00  0.00    -0.377 OA
ATOM     23  C   UNL     1       6.271   2.032   5.144  0.00  0.00    +0.179 C 
ATOM     24  C   UNL     1       4.955   1.460   4.605  0.00  0.00    +0.136 C 
ENDBRANCH   3  17
BRANCH   1  25
ATOM     25  S   UNL     1       7.014  -1.228  -1.838  0.00  0.00    -0.124 S 
BRANCH  25  28
ATOM     26  C   UNL     1      10.641   0.292  -2.681  0.00  0.00    +0.039 A 
ATOM     27  C   UNL     1       9.577  -0.577  -2.542  0.00  0.00    +0.017 A 
ATOM     28  C   UNL     1       8.374  -0.121  -2.017  0.00  0.00    +0.008 A 
ATOM     29  C   UNL     1       8.242   1.209  -1.640  0.00  0.00    +0.017 A 
ATOM     30  C   UNL     1       9.311   2.073  -1.776  0.00  0.00    +0.039 A 
ATOM     31  C   UNL     1      10.510   1.617  -2.299  0.00  0.00    +0.123 A 
ATOM     32  F   UNL     1      11.552   2.466  -2.437  0.00  0.00    -0.205 F 
ENDBRANCH  25  28
ENDBRANCH   1  25
TORSDOF 4
