REMARK  Name = ZINC35781138
REMARK  13 active torsions:
REMARK  status: ('A' for Active; 'I' for Inactive)
REMARK    1  A    between atoms: C_5  and  C_7
REMARK    2  A    between atoms: C_8  and  C_18
REMARK    3  A    between atoms: C_9  and  N_12
REMARK    4  A    between atoms: C_18  and  N_19
REMARK    5  A    between atoms: N_19  and  C_20
REMARK    6  A    between atoms: N_19  and  C_27
REMARK    7  A    between atoms: C_20  and  C_21
REMARK    8  A    between atoms: C_27  and  C_28
REMARK    9  A    between atoms: C_28  and  C_30
REMARK   10  A    between atoms: C_28  and  O_38
REMARK   11  A    between atoms: C_30  and  O_31
REMARK   12  A    between atoms: O_31  and  C_32
REMARK   13  A    between atoms: C_32  and  C_33
REMARK                            x       y       z     vdW  Elec       q    Type
REMARK                         _______ _______ _______ _____ _____    ______ ____
ROOT
ATOM      1  N   UNL     1      -2.348  -2.235  -1.565  0.00  0.00    +0.386 N 
ATOM      2  H   UNL     1      -1.900  -1.756  -2.332  0.00  0.00    -0.081 HD
ENDROOT
BRANCH   1   3
ATOM      3  C   UNL     1      -1.659  -1.902  -0.310  0.00  0.00    -0.035 C 
BRANCH   3   5
ATOM      4  C   UNL     1       0.684  -1.498  -1.361  0.00  0.00    +0.119 A 
ATOM      5  C   UNL     1      -0.182  -2.158  -0.465  0.00  0.00    +0.025 A 
ATOM      6  C   UNL     1       0.548  -3.063   0.234  0.00  0.00    +0.222 A 
ATOM      7  O   UNL     1       1.820  -2.988  -0.192  0.00  0.00    -0.339 OA
ATOM      8  N   UNL     1       1.888  -2.000  -1.203  0.00  0.00    -0.076 NA
BRANCH   4  13
ATOM      9  C   UNL     1      -1.328   1.109  -3.175  0.00  0.00    +0.001 A 
ATOM     10  C   UNL     1      -0.411   1.561  -4.107  0.00  0.00    +0.003 A 
ATOM     11  C   UNL     1       0.862   1.024  -4.150  0.00  0.00    +0.039 A 
ATOM     12  C   UNL     1       1.225   0.029  -3.260  0.00  0.00    +0.133 A 
ATOM     13  C   UNL     1       0.303  -0.431  -2.319  0.00  0.00    +0.039 A 
ATOM     14  C   UNL     1      -0.978   0.116  -2.283  0.00  0.00    +0.013 A 
ATOM     15  F   UNL     1       2.468  -0.497  -3.303  0.00  0.00    -0.205 F 
ENDBRANCH   4  13
BRANCH   6  16
ATOM     16  N   UNL     1       0.067  -3.912   1.214  0.00  0.00    -0.295 N 
ATOM     17  C   UNL     1      -0.313  -5.298   0.895  0.00  0.00    +0.136 C 
ATOM     18  C   UNL     1       0.379  -6.231   1.895  0.00  0.00    +0.179 C 
ATOM     19  O   UNL     1       0.101  -5.786   3.225  0.00  0.00    -0.377 OA
ATOM     20  C   UNL     1       0.602  -4.481   3.522  0.00  0.00    +0.179 C 
ATOM     21  C   UNL     1      -0.073  -3.459   2.607  0.00  0.00    +0.136 C 
ENDBRANCH   6  16
ENDBRANCH   3   5
ENDBRANCH   1   3
BRANCH   1  22
ATOM     22  C   UNL     1      -2.284  -3.685  -1.788  0.00  0.00    -0.046 C 
BRANCH  22  23
ATOM     23  C   UNL     1      -3.094  -4.404  -0.707  0.00  0.00    +0.102 C 
ATOM     24  C   UNL     1      -2.908  -5.931  -0.842  0.00  0.00    +0.032 C 
ATOM     25  C   UNL     1      -4.335  -6.464  -0.539  0.00  0.00    +0.030 C 
ATOM     26  C   UNL     1      -5.205  -5.335  -1.146  0.00  0.00    +0.160 C 
ATOM     27  O   UNL     1      -4.487  -4.119  -0.874  0.00  0.00    -0.378 OA
ENDBRANCH  22  23
ENDBRANCH   1  22
BRANCH   1  28
ATOM     28  C   UNL     1      -3.753  -1.814  -1.479  0.00  0.00    -0.044 C 
BRANCH  28  29
ATOM     29  C   UNL     1      -4.466  -2.148  -2.790  0.00  0.00    +0.124 C 
BRANCH  29  30
ATOM     30  O   UNL     1      -3.803  -1.493  -3.873  0.00  0.00    -0.391 OA
ATOM     31  H   UNL     1      -3.782  -0.529  -3.797  0.00  0.00    +0.210 HD
ENDBRANCH  29  30
BRANCH  29  32
ATOM     32  C   UNL     1      -5.918  -1.669  -2.717  0.00  0.00    +0.189 C 
BRANCH  32  33
ATOM     33  O   UNL     1      -6.615  -2.083  -3.894  0.00  0.00    -0.370 OA
BRANCH  33  34
ATOM     34  C   UNL     1      -7.987  -1.684  -3.926  0.00  0.00    +0.234 C 
BRANCH  34  35
ATOM     35  C   UNL     1      -8.622  -2.171  -5.204  0.00  0.00    +0.130 A 
ATOM     36  C   UNL     1      -9.240  -3.353  -5.374  0.00  0.00    +0.047 A 
ATOM     37  C   UNL     1      -9.682  -3.394  -6.717  0.00  0.00    +0.041 A 
ATOM     38  C   UNL     1      -9.308  -2.235  -7.286  0.00  0.00    +0.195 A 
ATOM     39  O   UNL     1      -8.671  -1.495  -6.364  0.00  0.00    -0.465 OA
ENDBRANCH  34  35
ENDBRANCH  33  34
ENDBRANCH  32  33
ENDBRANCH  29  32
ENDBRANCH  28  29
ENDBRANCH   1  28
TORSDOF 13
