REMARK  Name = ZINC05182934
REMARK  9 active torsions:
REMARK  status: ('A' for Active; 'I' for Inactive)
REMARK    1  A    between atoms: C_1  and  C_2
REMARK    2  A    between atoms: C_2  and  C_3
REMARK    3  A    between atoms: C_3  and  N_4
REMARK    4  A    between atoms: N_13  and  C_14
REMARK    5  A    between atoms: C_14  and  C_16
REMARK    6  A    between atoms: C_19  and  S_22
REMARK    7  A    between atoms: S_22  and  N_25
REMARK    8  A    between atoms: N_25  and  C_26
REMARK    9  A    between atoms: N_25  and  C_27
REMARK                            x       y       z     vdW  Elec       q    Type
REMARK                         _______ _______ _______ _____ _____    ______ ____
ROOT
ATOM      1  C   UNL     1      -3.110  -0.982   4.551  0.00  0.00    +0.269 C 
ATOM      2  O   UNL     1      -3.574  -0.448   5.544  0.00  0.00    -0.268 OA
ENDROOT
BRANCH   1  12
ATOM      3  N   UNL     1      -0.675   1.545   3.712  0.00  0.00    -0.321 N 
ATOM      4  C   UNL     1      -0.316   2.752   4.282  0.00  0.00    +0.058 A 
ATOM      5  C   UNL     1       0.662   3.662   3.850  0.00  0.00    +0.027 A 
ATOM      6  C   UNL     1       0.887   4.831   4.539  0.00  0.00    +0.002 A 
ATOM      7  C   UNL     1       0.157   5.149   5.672  0.00  0.00    +0.001 A 
ATOM      8  C   UNL     1      -0.817   4.272   6.116  0.00  0.00    +0.017 A 
ATOM      9  C   UNL     1      -1.043   3.103   5.428  0.00  0.00    +0.039 A 
ATOM     10  S   UNL     1      -2.156   1.737   5.639  0.00  0.00    -0.052 S 
ATOM     11  C   UNL     1      -1.659   0.792   4.272  0.00  0.00    +0.167 A 
ATOM     12  N   UNL     1      -2.128  -0.384   3.869  0.00  0.00    -0.152 NA
BRANCH   3  13
ATOM     13  C   UNL     1       0.011   1.072   2.506  0.00  0.00    +0.124 C 
BRANCH  13  15
ATOM     14  C   UNL     1      -0.013   1.086   0.008  0.00  0.00    +0.005 C 
ATOM     15  C   UNL     1      -0.729   1.579   1.267  0.00  0.00    +0.018 C 
ENDBRANCH  13  15
ENDBRANCH   3  13
ENDBRANCH   1  12
BRANCH   1  16
ATOM     16  C   UNL     1      -3.633  -2.293   4.102  0.00  0.00    +0.039 A 
ATOM     17  C   UNL     1      -3.107  -2.903   2.963  0.00  0.00    +0.015 A 
ATOM     18  C   UNL     1      -3.595  -4.126   2.552  0.00  0.00    +0.029 A 
ATOM     19  C   UNL     1      -4.611  -4.743   3.261  0.00  0.00    +0.105 A 
ATOM     20  C   UNL     1      -5.140  -4.140   4.388  0.00  0.00    +0.029 A 
ATOM     21  C   UNL     1      -4.657  -2.919   4.812  0.00  0.00    +0.015 A 
BRANCH  19  22
ATOM     22  S   UNL     1      -5.233  -6.302   2.726  0.00  0.00    +0.060 S 
ATOM     23  O   UNL     1      -4.201  -6.911   1.962  0.00  0.00    -0.153 OA
ATOM     24  O   UNL     1      -5.804  -6.925   3.868  0.00  0.00    -0.153 OA
BRANCH  22  25
ATOM     25  N   UNL     1      -6.480  -5.998   1.679  0.00  0.00    -0.183 NA
ATOM     26  C   UNL     1      -6.215  -5.856   0.245  0.00  0.00    +0.131 C 
ATOM     27  C   UNL     1      -7.848  -5.871   2.187  0.00  0.00    +0.131 C 
ENDBRANCH  22  25
ENDBRANCH  19  22
ENDBRANCH   1  16
TORSDOF 6
