REMARK  Name = ZINC59170945
REMARK  8 active torsions:
REMARK  status: ('A' for Active; 'I' for Inactive)
REMARK    1  A    between atoms: C_1  and  C_2
REMARK    2  A    between atoms: C_2  and  N_3
REMARK    3  A    between atoms: N_3  and  C_4
REMARK    4  A    between atoms: N_3  and  C_6
REMARK    5  A    between atoms: C_4  and  C_5
REMARK    6  A    between atoms: C_11  and  C_25
REMARK    7  A    between atoms: N_13  and  C_14
REMARK    8  A    between atoms: C_25  and  N_27
REMARK                            x       y       z     vdW  Elec       q    Type
REMARK                         _______ _______ _______ _____ _____    ______ ____
ROOT
ATOM      1  C   UNL     1      -0.753  -1.998   2.324  0.00  0.00    +0.033 A 
ATOM      2  C   UNL     1      -0.424  -1.785   3.663  0.00  0.00    +0.024 A 
ATOM      3  C   UNL     1      -1.399  -1.737   4.615  0.00  0.00    +0.013 A 
ATOM      4  C   UNL     1      -2.743  -1.913   4.250  0.00  0.00    +0.018 A 
ATOM      5  C   UNL     1      -3.761  -1.901   5.237  0.00  0.00    +0.027 A 
ATOM      6  C   UNL     1      -5.043  -2.277   4.860  0.00  0.00    +0.064 A 
ATOM      7  C   UNL     1      -5.244  -2.693   3.458  0.00  0.00    +0.209 A 
ATOM      8  N   UNL     1      -6.223  -3.505   3.121  0.00  0.00    -0.324 N 
ATOM      9  O   UNL     1      -4.382  -2.207   2.527  0.00  0.00    -0.439 OA
ATOM     10  C   UNL     1      -3.081  -2.097   2.895  0.00  0.00    +0.139 A 
ATOM     11  C   UNL     1      -2.080  -2.145   1.941  0.00  0.00    +0.070 A 
ATOM     12  H   UNL     1      -6.770  -3.915   3.809  0.00  0.00    +0.169 HD
ENDROOT
BRANCH   8  13
ATOM     13  C   UNL     1      -6.468  -3.771   1.802  0.00  0.00    +0.060 A 
ATOM     14  C   UNL     1      -6.578  -2.724   0.884  0.00  0.00    +0.028 A 
ATOM     15  C   UNL     1      -6.826  -2.998  -0.445  0.00  0.00    +0.022 A 
ATOM     16  C   UNL     1      -6.966  -4.309  -0.870  0.00  0.00    +0.042 A 
ATOM     17  C   UNL     1      -6.859  -5.352   0.034  0.00  0.00    +0.042 A 
ATOM     18  C   UNL     1      -6.604  -5.091   1.365  0.00  0.00    +0.066 A 
ATOM     19 CL   UNL     1      -6.463  -6.401   2.496  0.00  0.00    -0.081 Cl
ATOM     20 CL   UNL     1      -7.278  -4.645  -2.544  0.00  0.00    -0.083 Cl
ENDBRANCH   8  13
BRANCH   6  21
ATOM     21  C   UNL     1      -6.157  -2.259   5.819  0.00  0.00    +0.082 C 
ATOM     22  S   UNL     1      -7.748  -2.605   5.289  0.00  0.00    -0.035 S 
BRANCH  21  23
ATOM     23  N   UNL     1      -5.926  -1.972   7.115  0.00  0.00    -0.352 N 
ATOM     24  H   UNL     1      -5.025  -1.776   7.415  0.00  0.00    +0.143 HD
ATOM     25  H   UNL     1      -6.661  -1.960   7.747  0.00  0.00    +0.143 HD
ENDBRANCH  21  23
ENDBRANCH   6  21
BRANCH   1  26
ATOM     26  N   UNL     1       0.253  -2.057   1.366  0.00  0.00    -0.330 N 
BRANCH  26  28
ATOM     27  C   UNL     1       2.040  -0.422   1.709  0.00  0.00    +0.024 C 
ATOM     28  C   UNL     1       1.654  -1.902   1.765  0.00  0.00    +0.102 C 
ENDBRANCH  26  28
BRANCH  26  29
ATOM     29  C   UNL     1      -0.088  -2.274  -0.042  0.00  0.00    +0.102 C 
ATOM     30  C   UNL     1      -0.105  -3.775  -0.337  0.00  0.00    +0.024 C 
ENDBRANCH  26  29
ENDBRANCH   1  26
TORSDOF 6
