REMARK  Name = ZINC41586437
REMARK  8 active torsions:
REMARK  status: ('A' for Active; 'I' for Inactive)
REMARK    1  A    between atoms: C_1  and  C_2
REMARK    2  A    between atoms: C_2  and  O_3
REMARK    3  A    between atoms: O_3  and  C_4
REMARK    4  A    between atoms: C_4  and  C_6
REMARK    5  A    between atoms: N_11  and  C_13
REMARK    6  A    between atoms: C_13  and  C_14
REMARK    7  A    between atoms: C_15  and  O_32
REMARK    8  A    between atoms: C_22  and  C_23
REMARK                            x       y       z     vdW  Elec       q    Type
REMARK                         _______ _______ _______ _____ _____    ______ ____
ROOT
ATOM      1  C   UNL     1      -5.450  -6.514  -0.179  0.00  0.00    +0.020 A 
ATOM      2  C   UNL     1      -6.169  -6.839   0.961  0.00  0.00    +0.122 A 
ATOM      3  C   UNL     1      -7.443  -7.391   0.861  0.00  0.00    +0.046 A 
ATOM      4  C   UNL     1      -7.998  -7.619  -0.366  0.00  0.00    +0.019 A 
ATOM      5  C   UNL     1      -7.287  -7.296  -1.522  0.00  0.00    +0.068 A 
ATOM      6  C   UNL     1      -6.003  -6.734  -1.434  0.00  0.00    +0.144 A 
ATOM      7  O   UNL     1      -5.520  -6.504  -2.675  0.00  0.00    -0.451 OA
ATOM      8  C   UNL     1      -6.402  -6.871  -3.634  0.00  0.00    +0.176 C 
ATOM      9  C   UNL     1      -6.217  -6.769  -4.974  0.00  0.00    +0.058 C 
ATOM     10  C   UNL     1      -7.592  -7.412  -2.959  0.00  0.00    +0.231 C 
ATOM     11  O   UNL     1      -8.608  -7.847  -3.474  0.00  0.00    -0.283 OA
ENDROOT
BRANCH   9  12
ATOM     12  C   UNL     1      -5.014  -6.112  -5.502  0.00  0.00    -0.021 A 
ATOM     13  C   UNL     1      -4.882  -5.885  -6.877  0.00  0.00    +0.011 A 
ATOM     14  C   UNL     1      -3.751  -5.268  -7.365  0.00  0.00    +0.039 A 
ATOM     15  C   UNL     1      -2.745  -4.871  -6.497  0.00  0.00    +0.123 A 
ATOM     16  C   UNL     1      -2.869  -5.092  -5.133  0.00  0.00    +0.039 A 
ATOM     17  C   UNL     1      -3.997  -5.703  -4.631  0.00  0.00    +0.011 A 
ATOM     18  F   UNL     1      -1.639  -4.266  -6.982  0.00  0.00    -0.205 F 
ENDBRANCH   9  12
BRANCH   2  19
ATOM     19  O   UNL     1      -5.625  -6.618   2.185  0.00  0.00    -0.506 OA
ATOM     20  H   UNL     1      -5.819  -5.743   2.549  0.00  0.00    +0.292 HD
ENDBRANCH   2  19
BRANCH   1  21
ATOM     21  C   UNL     1      -4.072  -5.917  -0.056  0.00  0.00    -0.036 C 
BRANCH  21  26
ATOM     22  C   UNL     1      -2.936  -2.340  -0.023  0.00  0.00    +0.081 C 
ATOM     23  C   UNL     1      -3.690  -1.870   1.224  0.00  0.00    +0.011 C 
ATOM     24  C   UNL     1      -5.064  -2.546   1.263  0.00  0.00    -0.018 C 
ATOM     25  C   UNL     1      -4.880  -4.065   1.234  0.00  0.00    -0.078 C 
ATOM     26  N   UNL     1      -4.177  -4.453   0.005  0.00  0.00    +0.383 N 
ATOM     27  C   UNL     1      -2.832  -3.867  -0.006  0.00  0.00    -0.064 C 
ATOM     28  H   UNL     1      -4.693  -4.121  -0.796  0.00  0.00    -0.081 HD
BRANCH  22  29
ATOM     29  C   UNL     1      -1.553  -1.741  -0.031  0.00  0.00    +0.308 C 
ATOM     30  O   UNL     1      -0.583  -2.461  -0.025  0.00  0.00    -0.251 OA
BRANCH  29  31
ATOM     31  O   UNL     1      -1.400  -0.408  -0.044  0.00  0.00    -0.465 OA
BRANCH  31  33
ATOM     32  C   UNL     1      -0.086   1.621  -0.066  0.00  0.00    +0.048 C 
ATOM     33  C   UNL     1      -0.060   0.091  -0.051  0.00  0.00    +0.229 C 
ENDBRANCH  31  33
ENDBRANCH  29  31
ENDBRANCH  22  29
ENDBRANCH  21  26
ENDBRANCH   1  21
TORSDOF 7
