REMARK  Name = ZINC06894670
REMARK  5 active torsions:
REMARK  status: ('A' for Active; 'I' for Inactive)
REMARK    1  A    between atoms: C_1  and  C_2
REMARK    2  A    between atoms: C_2  and  C_4
REMARK    3  A    between atoms: C_2  and  C_26
REMARK    4  A    between atoms: C_4  and  N_5
REMARK    5  A    between atoms: C_6  and  C_8
REMARK                            x       y       z     vdW  Elec       q    Type
REMARK                         _______ _______ _______ _____ _____    ______ ____
ROOT
ATOM      1  C   UNL     1      -2.670   1.070  -2.610  0.00  0.00    +0.076 C 
ATOM      2  C   UNL     1      -1.403   0.465  -1.947  0.00  0.00    -0.003 C 
ATOM      3  C   UNL     1      -0.837   1.682  -1.177  0.00  0.00    -0.066 C 
ATOM      4  C   UNL     1      -0.058   1.186   0.051  0.00  0.00    -0.017 C 
ATOM      5  C   UNL     1      -0.859   1.691   1.273  0.00  0.00    -0.020 C 
ATOM      6  C   UNL     1      -2.283   1.890   0.692  0.00  0.00    -0.077 C 
ATOM      7  C   UNL     1      -3.167   2.065  -1.549  0.00  0.00    +0.052 C 
ATOM      8  C   UNL     1      -3.748   3.292  -2.199  0.00  0.00    -0.027 A 
ATOM      9  C   UNL     1      -3.229   4.254  -3.037  0.00  0.00    +0.004 A 
ATOM     10  C   UNL     1      -4.030   5.291  -3.480  0.00  0.00    +0.000 A 
ATOM     11  C   UNL     1      -5.352   5.359  -3.079  0.00  0.00    +0.002 A 
ATOM     12  C   UNL     1      -5.876   4.398  -2.241  0.00  0.00    +0.023 A 
ATOM     13  C   UNL     1      -5.076   3.350  -1.790  0.00  0.00    +0.036 A 
ATOM     14  N   UNL     1      -5.370   2.275  -0.949  0.00  0.00    -0.286 N 
ATOM     15  C   UNL     1      -4.305   1.475  -0.757  0.00  0.00    +0.212 C 
ATOM     16  O   UNL     1      -4.268   0.471  -0.077  0.00  0.00    -0.277 OA
ATOM     17  H   UNL     1      -6.241   2.122  -0.550  0.00  0.00    +0.155 HD
ATOM     18  N   UNL     1      -2.018   2.376  -0.676  0.00  0.00    +0.394 N 
ATOM     19  H   UNL     1      -1.855   3.389  -0.663  0.00  0.00    -0.079 HD
ENDROOT
BRANCH   1  21
ATOM     20  N   UNL     1      -3.239   1.910  -4.866  0.00  0.00    -0.315 N 
ATOM     21  C   UNL     1      -2.319   1.785  -3.889  0.00  0.00    +0.216 C 
ATOM     22  O   UNL     1      -1.208   2.248  -4.039  0.00  0.00    -0.276 OA
ATOM     23  H   UNL     1      -4.127   1.540  -4.745  0.00  0.00    +0.149 HD
BRANCH  20  24
ATOM     24  C   UNL     1      -2.897   2.605  -6.109  0.00  0.00    +0.112 C 
BRANCH  24  26
ATOM     25  C   UNL     1      -4.435   1.170  -7.458  0.00  0.00    +0.014 C 
ATOM     26  C   UNL     1      -4.109   2.606  -7.043  0.00  0.00    +0.033 C 
BRANCH  26  27
ATOM     27  C   UNL     1      -3.799   3.425  -8.269  0.00  0.00    -0.043 A 
ATOM     28  C   UNL     1      -2.742   3.071  -9.087  0.00  0.00    +0.004 A 
ATOM     29  C   UNL     1      -2.460   3.820 -10.214  0.00  0.00    +0.000 A 
ATOM     30  C   UNL     1      -3.228   4.929 -10.518  0.00  0.00    +0.000 A 
ATOM     31  C   UNL     1      -4.281   5.286  -9.697  0.00  0.00    +0.000 A 
ATOM     32  C   UNL     1      -4.566   4.534  -8.572  0.00  0.00    +0.004 A 
ENDBRANCH  26  27
ENDBRANCH  24  26
ENDBRANCH  20  24
ENDBRANCH   1  21
TORSDOF 4
