REMARK  Name = ZINC09721582
REMARK  10 active torsions:
REMARK  status: ('A' for Active; 'I' for Inactive)
REMARK    1  A    between atoms: C_1  and  O_2
REMARK    2  A    between atoms: O_2  and  C_3
REMARK    3  A    between atoms: C_6  and  S_9
REMARK    4  A    between atoms: S_9  and  N_12
REMARK    5  A    between atoms: C_18  and  C_20
REMARK    6  A    between atoms: C_20  and  N_60
REMARK    7  A    between atoms: C_21  and  C_22
REMARK    8  A    between atoms: C_21  and  N_60
REMARK    9  A    between atoms: C_27  and  C_28
REMARK   10  A    between atoms: C_27  and  N_60
REMARK                            x       y       z     vdW  Elec       q    Type
REMARK                         _______ _______ _______ _____ _____    ______ ____
ROOT
ATOM      1  N   UNL     1      -1.277   7.359   0.753  0.00  0.00    -0.174 NA
ATOM      2  C   UNL     1      -2.023   6.463   1.647  0.00  0.00    +0.128 C 
ATOM      3  C   UNL     1      -1.162   5.225   1.930  0.00  0.00    +0.125 C 
ATOM      4  N   UNL     1      -0.665   4.697   0.652  0.00  0.00    -0.300 N 
ATOM      5  C   UNL     1       0.086   5.592  -0.240  0.00  0.00    +0.125 C 
ATOM      6  C   UNL     1      -0.780   6.832  -0.525  0.00  0.00    +0.128 C 
ATOM      7  C   UNL     1      -0.888   3.414   0.306  0.00  0.00    +0.199 C 
ATOM      8  O   UNL     1      -1.505   2.684   1.052  0.00  0.00    -0.278 OA
ENDROOT
BRANCH   1   9
ATOM      9  S   UNL     1      -1.002   8.936   1.178  0.00  0.00    +0.061 S 
ATOM     10  O   UNL     1      -0.793   9.652  -0.032  0.00  0.00    -0.153 OA
ATOM     11  O   UNL     1      -2.017   9.289   2.107  0.00  0.00    -0.153 OA
BRANCH   9  15
ATOM     12  C   UNL     1       2.920   9.047   3.440  0.00  0.00    +0.120 A 
ATOM     13  C   UNL     1       2.908   9.205   2.062  0.00  0.00    +0.047 A 
ATOM     14  C   UNL     1       1.710   9.171   1.374  0.00  0.00    +0.032 A 
ATOM     15  C   UNL     1       0.524   8.979   2.058  0.00  0.00    +0.106 A 
ATOM     16  C   UNL     1       0.533   8.827   3.432  0.00  0.00    +0.032 A 
ATOM     17  C   UNL     1       1.728   8.855   4.124  0.00  0.00    +0.047 A 
BRANCH  12  19
ATOM     18  C   UNL     1       4.033   8.911   5.537  0.00  0.00    +0.277 C 
ATOM     19  O   UNL     1       4.096   9.080   4.119  0.00  0.00    -0.495 OA
ENDBRANCH  12  19
ENDBRANCH   9  15
ENDBRANCH   1   9
BRANCH   7  20
ATOM     20  C   UNL     1      -0.372   2.887  -1.008  0.00  0.00    +0.020 C 
BRANCH  20  21
ATOM     21  N   UNL     1      -0.850   1.499  -1.183  0.00  0.00    +0.393 N 
ATOM     22  H   UNL     1      -0.703   0.983  -0.308  0.00  0.00    -0.080 HD
BRANCH  21  23
ATOM     23  C   UNL     1      -0.091   0.837  -2.265  0.00  0.00    -0.002 C 
BRANCH  23  24
ATOM     24  C   UNL     1       1.270   0.459  -1.740  0.00  0.00    +0.089 A 
ATOM     25  C   UNL     1       1.582  -0.694  -1.121  0.00  0.00    +0.042 A 
ATOM     26  C   UNL     1       2.957  -0.627  -0.799  0.00  0.00    +0.041 A 
ATOM     27  C   UNL     1       3.403   0.564  -1.240  0.00  0.00    +0.195 A 
ATOM     28  O   UNL     1       2.378   1.214  -1.814  0.00  0.00    -0.470 OA
ENDBRANCH  23  24
ENDBRANCH  21  23
BRANCH  21  29
ATOM     29  C   UNL     1      -2.293   1.499  -1.505  0.00  0.00    -0.034 C 
BRANCH  29  30
ATOM     30  C   UNL     1      -2.800   0.080  -1.461  0.00  0.00    -0.027 A 
ATOM     31  C   UNL     1      -3.295  -0.617  -0.409  0.00  0.00    +0.009 A 
ATOM     32  C   UNL     1      -3.709  -1.921  -0.604  0.00  0.00    +0.008 A 
ATOM     33  C   UNL     1      -3.598  -2.468  -1.840  0.00  0.00    +0.045 A 
ATOM     34  S   UNL     1      -2.898  -1.120  -2.778  0.00  0.00    -0.103 S 
ENDBRANCH  29  30
ENDBRANCH  21  29
ENDBRANCH  20  21
ENDBRANCH   7  20
TORSDOF 9
