REMARK  Name = ZINC09987591
REMARK  6 active torsions:
REMARK  status: ('A' for Active; 'I' for Inactive)
REMARK    1  A    between atoms: C_1  and  C_2
REMARK    2  A    between atoms: C_2  and  O_3
REMARK    3  A    between atoms: O_3  and  C_4
REMARK    4  A    between atoms: C_4  and  C_6
REMARK    5  A    between atoms: C_7  and  C_25
REMARK    6  A    between atoms: C_12  and  C_14
REMARK                            x       y       z     vdW  Elec       q    Type
REMARK                         _______ _______ _______ _____ _____    ______ ____
ROOT
ATOM      1  C   UNL     1      -2.840  -2.416   0.016  0.00  0.00    +0.120 A 
ATOM      2  C   UNL     1      -3.233  -3.748   0.018  0.00  0.00    +0.062 A 
ATOM      3  N   UNL     1      -4.522  -3.973   0.028  0.00  0.00    -0.229 NA
ATOM      4  C   UNL     1      -5.396  -2.982   0.036  0.00  0.00    +0.166 A 
ATOM      5  S   UNL     1      -4.430  -1.603   0.036  0.00  0.00    -0.045 S 
ATOM      6  N   UNL     1      -6.776  -3.059   0.046  0.00  0.00    -0.260 N 
ATOM      7  C   UNL     1      -7.514  -1.931   0.053  0.00  0.00    +0.258 C 
ATOM      8  O   UNL     1      -6.965  -0.845   0.049  0.00  0.00    -0.269 OA
ATOM      9  C   UNL     1      -2.230  -4.872   0.010  0.00  0.00    +0.067 C 
ATOM     10  H   UNL     1      -7.213  -3.925   0.049  0.00  0.00    +0.157 HD
ENDROOT
BRANCH   7  11
ATOM     11  C   UNL     1      -8.979  -2.013   0.064  0.00  0.00    +0.094 A 
ATOM     12  C   UNL     1      -9.885  -0.997   0.066  0.00  0.00    +0.068 A 
ATOM     13  C   UNL     1     -11.262  -1.286   0.078  0.00  0.00    +0.008 A 
ATOM     14  C   UNL     1     -12.351  -0.376   0.082  0.00  0.00    +0.012 A 
ATOM     15  C   UNL     1     -13.632  -0.825   0.095  0.00  0.00    +0.021 A 
ATOM     16  C   UNL     1     -13.928  -2.184   0.103  0.00  0.00    +0.042 A 
ATOM     17  C   UNL     1     -12.898  -3.104   0.099  0.00  0.00    +0.035 A 
ATOM     18  C   UNL     1     -11.592  -2.662   0.087  0.00  0.00    +0.023 A 
ATOM     19  S   UNL     1     -10.011  -3.468   0.071  0.00  0.00    -0.082 S 
ATOM     20 CL   UNL     1     -15.579  -2.719   0.119  0.00  0.00    -0.084 Cl
ATOM     21 CL   UNL     1      -9.343   0.652   0.055  0.00  0.00    -0.082 Cl
ENDBRANCH   7  11
BRANCH   1  22
ATOM     22  C   UNL     1      -1.497  -1.839   0.006  0.00  0.00    +0.348 C 
ATOM     23  O   UNL     1      -0.522  -2.567  -0.007  0.00  0.00    -0.244 OA
BRANCH  22  24
ATOM     24  O   UNL     1      -1.339  -0.499   0.012  0.00  0.00    -0.461 OA
BRANCH  24  26
ATOM     25  C   UNL     1      -0.019   1.526   0.010  0.00  0.00    +0.048 C 
ATOM     26  C   UNL     1       0.002  -0.004   0.002  0.00  0.00    +0.229 C 
ENDBRANCH  24  26
ENDBRANCH  22  24
ENDBRANCH   1  22
TORSDOF 4
