REMARK  Name = ZINC35124854
REMARK  13 active torsions:
REMARK  status: ('A' for Active; 'I' for Inactive)
REMARK    1  A    between atoms: C_1  and  C_2
REMARK    2  A    between atoms: C_2  and  C_3
REMARK    3  A    between atoms: C_2  and  C_4
REMARK    4  A    between atoms: C_2  and  C_6
REMARK    5  A    between atoms: N_8  and  C_9
REMARK    6  A    between atoms: C_9  and  C_10
REMARK    7  A    between atoms: C_13  and  S_24
REMARK    8  A    between atoms: N_14  and  C_15
REMARK    9  A    between atoms: C_18  and  N_21
REMARK   10  A    between atoms: S_24  and  C_25
REMARK   11  A    between atoms: C_25  and  C_26
REMARK   12  A    between atoms: C_30  and  O_32
REMARK   13  A    between atoms: O_32  and  C_33
REMARK                            x       y       z     vdW  Elec       q    Type
REMARK                         _______ _______ _______ _____ _____    ______ ____
ROOT
ATOM      1  C   UNL     1       4.091  -0.097  -2.678  0.00  0.00    +0.156 A 
ATOM      2  N   UNL     1       4.495   1.029  -3.195  0.00  0.00    -0.132 NA
ATOM      3  N   UNL     1       5.762   1.163  -3.029  0.00  0.00    -0.122 NA
ATOM      4  C   UNL     1       6.242   0.121  -2.390  0.00  0.00    +0.196 A 
ATOM      5  N   UNL     1       5.188  -0.715  -2.140  0.00  0.00    -0.273 N 
ENDROOT
BRANCH   5   6
ATOM      6  C   UNL     1       5.225  -1.949  -1.474  0.00  0.00    +0.050 A 
ATOM      7  C   UNL     1       4.558  -2.108  -0.267  0.00  0.00    +0.028 A 
ATOM      8  C   UNL     1       4.596  -3.324   0.386  0.00  0.00    +0.035 A 
ATOM      9  C   UNL     1       5.297  -4.383  -0.161  0.00  0.00    +0.126 A 
ATOM     10  C   UNL     1       5.962  -4.228  -1.364  0.00  0.00    +0.035 A 
ATOM     11  C   UNL     1       5.923  -3.015  -2.024  0.00  0.00    +0.028 A 
BRANCH   9  12
ATOM     12  N   UNL     1       5.336  -5.685   0.541  0.00  0.00    +0.056 N 
ATOM     13  O   UNL     1       4.755  -5.822   1.593  0.00  0.00    -0.126 OA
ATOM     14  O   UNL     1       5.949  -6.612   0.064  0.00  0.00    -0.126 OA
ENDBRANCH   9  12
ENDBRANCH   5   6
BRANCH   1  15
ATOM     15  C   UNL     1       2.677  -0.618  -2.667  0.00  0.00    +0.181 C 
BRANCH  15  18
ATOM     16  C   UNL     1       0.707  -0.490  -1.238  0.00  0.00    +0.220 C 
ATOM     17  O   UNL     1       0.120  -1.191  -2.034  0.00  0.00    -0.275 OA
ATOM     18  N   UNL     1       1.991  -0.146  -1.462  0.00  0.00    -0.308 N 
ATOM     19  H   UNL     1       2.461   0.415  -0.825  0.00  0.00    +0.149 HD
BRANCH  16  21
ATOM     20  C   UNL     1      -0.019   1.526   0.010  0.00  0.00    +0.022 C 
ATOM     21  C   UNL     1       0.002  -0.004   0.002  0.00  0.00    +0.055 C 
ATOM     22  C   UNL     1       0.742  -0.511   1.242  0.00  0.00    +0.022 C 
BRANCH  21  23
ATOM     23  C   UNL     1      -1.433  -0.534   0.013  0.00  0.00    +0.124 C 
ATOM     24 CL   UNL     1      -2.277   0.048   1.496  0.00  0.00    -0.124 Cl
ENDBRANCH  21  23
ENDBRANCH  16  21
ENDBRANCH  15  18
ENDBRANCH   1  15
BRANCH   4  25
ATOM     25  S   UNL     1       7.923  -0.147  -1.935  0.00  0.00    -0.081 S 
BRANCH  25  26
ATOM     26  C   UNL     1       8.784   1.327  -2.550  0.00  0.00    +0.112 C 
BRANCH  26  27
ATOM     27  C   UNL     1      10.251   1.225  -2.222  0.00  0.00    -0.034 A 
ATOM     28  C   UNL     1      10.727   1.724  -1.023  0.00  0.00    +0.005 A 
ATOM     29  C   UNL     1      12.073   1.632  -0.719  0.00  0.00    +0.004 A 
ATOM     30  C   UNL     1      12.945   1.041  -1.613  0.00  0.00    +0.045 A 
ATOM     31  C   UNL     1      12.470   0.540  -2.816  0.00  0.00    +0.120 A 
ATOM     32  C   UNL     1      11.118   0.628  -3.116  0.00  0.00    +0.050 A 
BRANCH  31  33
ATOM     33  O   UNL     1      13.326  -0.041  -3.697  0.00  0.00    -0.495 OA
ATOM     34  C   UNL     1      14.703  -0.102  -3.319  0.00  0.00    +0.277 C 
ENDBRANCH  31  33
ENDBRANCH  26  27
ENDBRANCH  25  26
ENDBRANCH   4  25
TORSDOF 10
