REMARK  Name = ZINC51642857
REMARK  7 active torsions:
REMARK  status: ('A' for Active; 'I' for Inactive)
REMARK    1  A    between atoms: C_1  and  C_2
REMARK    2  A    between atoms: C_2  and  C_3
REMARK    3  A    between atoms: C_2  and  O_4
REMARK    4  A    between atoms: O_4  and  C_5
REMARK    5  A    between atoms: C_8  and  C_24
REMARK    6  A    between atoms: C_10  and  N_11
REMARK    7  A    between atoms: C_18  and  C_21
REMARK                            x       y       z     vdW  Elec       q    Type
REMARK                         _______ _______ _______ _____ _____    ______ ____
ROOT
ATOM      1  N   UNL     1      -3.945  -1.425  -0.205  0.00  0.00    -0.266 N 
ATOM      2  C   UNL     1      -5.189  -1.941  -0.233  0.00  0.00    +0.307 C 
ATOM      3  O   UNL     1      -5.410  -2.962  -0.856  0.00  0.00    -0.252 OA
ATOM      4  N   UNL     1      -6.189  -1.326   0.430  0.00  0.00    -0.280 N 
ATOM      5  C   UNL     1      -5.973  -0.032   1.096  0.00  0.00    +0.137 C 
ATOM      6  C   UNL     1      -6.487  -0.137   2.536  0.00  0.00    +0.180 C 
ATOM      7  O   UNL     1      -7.830  -0.627   2.522  0.00  0.00    -0.364 OA
ATOM      8  C   UNL     1      -7.967  -1.942   1.978  0.00  0.00    +0.221 C 
ATOM      9  C   UNL     1      -7.530  -1.927   0.505  0.00  0.00    +0.150 C 
ATOM     10  H   UNL     1      -3.781  -0.577   0.237  0.00  0.00    +0.156 HD
ENDROOT
BRANCH   1  16
ATOM     11  C   UNL     1      -1.580  -1.924  -0.365  0.00  0.00    +0.142 A 
ATOM     12  C   UNL     1      -0.531  -2.608  -0.963  0.00  0.00    +0.049 A 
ATOM     13  C   UNL     1      -0.775  -3.473  -2.008  0.00  0.00    +0.022 A 
ATOM     14  C   UNL     1      -2.080  -3.664  -2.468  0.00  0.00    +0.054 A 
ATOM     15  C   UNL     1      -3.137  -2.976  -1.867  0.00  0.00    +0.046 A 
ATOM     16  C   UNL     1      -2.887  -2.113  -0.815  0.00  0.00    +0.078 A 
BRANCH  14  17
ATOM     17  C   UNL     1      -2.335  -4.562  -3.554  0.00  0.00    +0.099 C 
ATOM     18  N   UNL     1      -2.537  -5.275  -4.415  0.00  0.00    -0.191 NA
ENDBRANCH  14  17
BRANCH  11  19
ATOM     19  O   UNL     1      -1.334  -1.072   0.664  0.00  0.00    -0.488 OA
BRANCH  19  21
ATOM     20  C   UNL     1       0.206   0.431   1.764  0.00  0.00    +0.051 C 
ATOM     21  C   UNL     1       0.028  -0.920   1.069  0.00  0.00    +0.167 C 
ATOM     22  C   UNL     1       0.400  -2.044   2.039  0.00  0.00    +0.051 C 
ENDBRANCH  19  21
ENDBRANCH  11  19
ENDBRANCH   1  16
BRANCH   8  23
ATOM     23  C   UNL     1      -9.407  -2.377   2.071  0.00  0.00    +0.241 C 
ATOM     24  O   UNL     1     -10.250  -1.602   2.471  0.00  0.00    -0.273 OA
ATOM     25  N   UNL     1      -9.758  -3.627   1.710  0.00  0.00    -0.327 N 
ATOM     26  H   UNL     1      -9.083  -4.247   1.391  0.00  0.00    +0.145 HD
ATOM     27  H   UNL     1     -10.684  -3.908   1.770  0.00  0.00    +0.145 HD
ENDBRANCH   8  23
TORSDOF 5
