REMARK  Name = ZINC35070708
REMARK  12 active torsions:
REMARK  status: ('A' for Active; 'I' for Inactive)
REMARK    1  A    between atoms: C_1  and  C_2
REMARK    2  A    between atoms: C_5  and  N_9
REMARK    3  A    between atoms: C_6  and  C_8
REMARK    4  A    between atoms: C_19  and  C_20
REMARK    5  A    between atoms: C_20  and  C_22
REMARK    6  A    between atoms: C_20  and  N_23
REMARK    7  A    between atoms: N_23  and  C_24
REMARK    8  A    between atoms: C_24  and  C_25
REMARK    9  A    between atoms: C_25  and  N_26
REMARK   10  A    between atoms: N_26  and  C_27
REMARK   11  A    between atoms: N_26  and  C_28
REMARK   12  A    between atoms: C_29  and  C_31
REMARK                            x       y       z     vdW  Elec       q    Type
REMARK                         _______ _______ _______ _____ _____    ______ ____
ROOT
ATOM      1  N   UNL     1       3.834  -4.622  -3.170  0.00  0.00    -0.263 N 
ATOM      2  C   UNL     1       3.128  -5.272  -4.125  0.00  0.00    +0.266 A 
ATOM      3  O   UNL     1       3.572  -5.419  -5.249  0.00  0.00    -0.267 OA
ATOM      4  C   UNL     1       1.806  -5.793  -3.752  0.00  0.00    +0.065 A 
ATOM      5  C   UNL     1       1.000  -6.477  -4.660  0.00  0.00    +0.015 A 
ATOM      6  C   UNL     1      -0.231  -6.946  -4.258  0.00  0.00    +0.001 A 
ATOM      7  C   UNL     1      -0.674  -6.740  -2.957  0.00  0.00    +0.002 A 
ATOM      8  C   UNL     1       0.106  -6.067  -2.045  0.00  0.00    +0.028 A 
ATOM      9  C   UNL     1       1.359  -5.583  -2.428  0.00  0.00    +0.078 A 
ATOM     10  N   UNL     1       2.160  -4.915  -1.561  0.00  0.00    -0.231 NA
ATOM     11  C   UNL     1       3.326  -4.470  -1.917  0.00  0.00    +0.138 A 
ENDROOT
BRANCH   1  16
ATOM     12  C   UNL     1       8.963  -2.530  -4.400  0.00  0.00    +0.044 C 
ATOM     13  C   UNL     1       7.601  -3.085  -4.074  0.00  0.00    -0.050 A 
ATOM     14  C   UNL     1       7.484  -4.356  -3.539  0.00  0.00    +0.005 A 
ATOM     15  C   UNL     1       6.237  -4.867  -3.239  0.00  0.00    +0.027 A 
ATOM     16  C   UNL     1       5.100  -4.105  -3.474  0.00  0.00    +0.054 A 
ATOM     17  C   UNL     1       5.221  -2.830  -4.010  0.00  0.00    -0.026 A 
ATOM     18  C   UNL     1       6.471  -2.322  -4.303  0.00  0.00    +0.008 A 
ATOM     19  C   UNL     1       3.990  -2.000  -4.267  0.00  0.00    +0.046 C 
ENDBRANCH   1  16
BRANCH  11  20
ATOM     20  C   UNL     1       4.158  -3.744  -0.891  0.00  0.00    +0.140 C 
ATOM     21  C   UNL     1       3.514  -2.392  -0.578  0.00  0.00    +0.036 C 
BRANCH  20  22
ATOM     22  N   UNL     1       4.233  -4.545   0.333  0.00  0.00    -0.289 N 
ATOM     23  C   UNL     1       5.428  -4.973   0.786  0.00  0.00    +0.249 C 
ATOM     24  O   UNL     1       6.451  -4.606   0.242  0.00  0.00    -0.270 OA
BRANCH  23  25
ATOM     25  C   UNL     1       5.494  -5.889   1.944  0.00  0.00    +0.055 A 
ATOM     26  C   UNL     1       4.527  -6.882   2.109  0.00  0.00    +0.014 A 
ATOM     27  C   UNL     1       4.595  -7.734   3.191  0.00  0.00    +0.001 A 
ATOM     28  C   UNL     1       5.619  -7.606   4.114  0.00  0.00    +0.001 A 
ATOM     29  C   UNL     1       6.580  -6.624   3.958  0.00  0.00    +0.021 A 
ATOM     30  C   UNL     1       6.528  -5.768   2.876  0.00  0.00    +0.053 A 
ATOM     31 CL   UNL     1       7.741  -4.542   2.677  0.00  0.00    -0.083 Cl
ENDBRANCH  23  25
BRANCH  22  32
ATOM     32  C   UNL     1       3.009  -4.881   1.064  0.00  0.00    +0.090 C 
BRANCH  32  33
ATOM     33  C   UNL     1       2.386  -6.143   0.464  0.00  0.00    -0.060 C 
BRANCH  33  34
ATOM     34  N   UNL     1       1.788  -6.951   1.535  0.00  0.00    +0.377 N 
ATOM     35  C   UNL     1       0.668  -6.214   2.136  0.00  0.00    -0.097 C 
ATOM     36  C   UNL     1       1.296  -8.218   0.977  0.00  0.00    -0.097 C 
ATOM     37  H   UNL     1       2.482  -7.142   2.241  0.00  0.00    -0.083 HD
ENDBRANCH  33  34
ENDBRANCH  32  33
ENDBRANCH  22  32
ENDBRANCH  20  22
ENDBRANCH  11  20
TORSDOF 7
