REMARK  Name = ZINC39923313
REMARK  10 active torsions:
REMARK  status: ('A' for Active; 'I' for Inactive)
REMARK    1  A    between atoms: C_1  and  C_2
REMARK    2  A    between atoms: C_2  and  O_3
REMARK    3  A    between atoms: O_3  and  C_4
REMARK    4  A    between atoms: C_7  and  N_10
REMARK    5  A    between atoms: C_11  and  C_32
REMARK    6  A    between atoms: C_15  and  S_16
REMARK    7  A    between atoms: S_16  and  C_17
REMARK    8  A    between atoms: C_17  and  C_18
REMARK    9  A    between atoms: N_20  and  N_21
REMARK   10  A    between atoms: C_22  and  C_23
REMARK                            x       y       z     vdW  Elec       q    Type
REMARK                         _______ _______ _______ _____ _____    ______ ____
ROOT
ATOM      1  N   UNL     1      -1.962  -6.033   0.013  0.00  0.00    -0.254 N 
ATOM      2  C   UNL     1      -3.260  -6.725   0.088  0.00  0.00    +0.213 C 
ATOM      3  N   UNL     1      -2.905  -8.153   0.007  0.00  0.00    -0.242 N 
ATOM      4  N   UNL     1      -1.510  -8.203  -0.103  0.00  0.00    -0.162 NA
ATOM      5  C   UNL     1      -0.994  -7.020  -0.105  0.00  0.00    +0.180 C 
ATOM      6  H   UNL     1      -3.515  -8.907   0.027  0.00  0.00    +0.170 HD
ENDROOT
BRANCH   1  10
ATOM      7  C   UNL     1      -1.325  -1.915   0.115  0.00  0.00    +0.121 A 
ATOM      8  C   UNL     1      -2.109  -2.470  -0.885  0.00  0.00    +0.047 A 
ATOM      9  C   UNL     1      -2.320  -3.835  -0.920  0.00  0.00    +0.027 A 
ATOM     10  C   UNL     1      -1.748  -4.651   0.047  0.00  0.00    +0.038 A 
ATOM     11  C   UNL     1      -0.963  -4.094   1.048  0.00  0.00    +0.027 A 
ATOM     12  C   UNL     1      -0.748  -2.730   1.078  0.00  0.00    +0.047 A 
BRANCH   7  13
ATOM     13  O   UNL     1      -1.117  -0.572   0.148  0.00  0.00    -0.492 OA
BRANCH  13  15
ATOM     14  C   UNL     1      -1.396   1.684  -0.673  0.00  0.00    +0.048 C 
ATOM     15  C   UNL     1      -1.741   0.207  -0.874  0.00  0.00    +0.225 C 
ENDBRANCH  13  15
ENDBRANCH   7  13
ENDBRANCH   1  10
BRANCH   2  16
ATOM     16  C   UNL     1      -3.946  -6.421   1.395  0.00  0.00    -0.008 A 
ATOM     17  C   UNL     1      -3.857  -5.156   1.944  0.00  0.00    +0.007 A 
ATOM     18  C   UNL     1      -4.487  -4.877   3.142  0.00  0.00    +0.000 A 
ATOM     19  C   UNL     1      -5.206  -5.863   3.791  0.00  0.00    +0.000 A 
ATOM     20  C   UNL     1      -5.296  -7.128   3.241  0.00  0.00    +0.000 A 
ATOM     21  C   UNL     1      -4.670  -7.406   2.041  0.00  0.00    +0.007 A 
ENDBRANCH   2  16
BRANCH   5  22
ATOM     22  S   UNL     1       0.734  -6.698  -0.235  0.00  0.00    -0.079 S 
BRANCH  22  23
ATOM     23  C   UNL     1       1.480  -8.346  -0.359  0.00  0.00    +0.174 C 
BRANCH  23  24
ATOM     24  C   UNL     1       2.976  -8.213  -0.478  0.00  0.00    +0.242 C 
ATOM     25  O   UNL     1       3.489  -7.114  -0.478  0.00  0.00    -0.273 OA
ATOM     26  N   UNL     1       3.745  -9.315  -0.583  0.00  0.00    -0.206 N 
ATOM     27  H   UNL     1       3.335 -10.194  -0.583  0.00  0.00    +0.177 HD
BRANCH  26  28
ATOM     28  N   UNL     1       5.136  -9.191  -0.693  0.00  0.00    -0.188 NA
ATOM     29  C   UNL     1       5.883 -10.261  -0.795  0.00  0.00    +0.136 C 
BRANCH  29  30
ATOM     30  C   UNL     1       7.275 -10.137  -0.905  0.00  0.00    +0.000 C 
ATOM     31  C   UNL     1       8.205 -11.167  -1.027  0.00  0.00    +0.004 A 
ATOM     32  C   UNL     1       8.072 -12.572  -1.076  0.00  0.00    +0.010 A 
ATOM     33  C   UNL     1       9.178 -13.348  -1.201  0.00  0.00    +0.001 A 
ATOM     34  C   UNL     1      10.458 -12.793  -1.283  0.00  0.00    +0.002 A 
ATOM     35  C   UNL     1      10.661 -11.454  -1.243  0.00  0.00    +0.026 A 
ATOM     36  C   UNL     1       9.552 -10.576  -1.113  0.00  0.00    +0.043 A 
ATOM     37  N   UNL     1       9.483  -9.263  -1.051  0.00  0.00    -0.380 N 
ATOM     38  C   UNL     1       8.080  -8.857  -0.924  0.00  0.00    +0.150 C 
ATOM     39  H   UNL     1      10.241  -8.658  -1.088  0.00  0.00    +0.160 HD
ENDBRANCH  29  30
ENDBRANCH  26  28
ENDBRANCH  23  24
ENDBRANCH  22  23
ENDBRANCH   5  22
TORSDOF 9
