REMARK  Name = ZINC35487695
REMARK  9 active torsions:
REMARK  status: ('A' for Active; 'I' for Inactive)
REMARK    1  A    between atoms: C_1  and  O_2
REMARK    2  A    between atoms: O_2  and  C_3
REMARK    3  A    between atoms: C_3  and  C_4
REMARK    4  A    between atoms: C_4  and  C_5
REMARK    5  A    between atoms: C_5  and  N_6
REMARK    6  A    between atoms: C_7  and  C_23
REMARK    7  A    between atoms: C_25  and  O_31
REMARK    8  A    between atoms: C_26  and  O_30
REMARK    9  A    between atoms: O_31  and  C_32
REMARK                            x       y       z     vdW  Elec       q    Type
REMARK                         _______ _______ _______ _____ _____    ______ ____
ROOT
ATOM      1  N   UNL     1      -2.408  -4.226   0.002  0.00  0.00    -0.284 N 
ATOM      2  C   UNL     1      -2.333  -5.081  -1.194  0.00  0.00    +0.145 C 
ATOM      3  C   UNL     1      -2.203  -6.480  -0.688  0.00  0.00    +0.072 A 
ATOM      4  C   UNL     1      -2.097  -7.758  -1.399  0.00  0.00    +0.199 A 
ATOM      5  O   UNL     1      -1.927  -7.841  -2.602  0.00  0.00    -0.287 OA
ATOM      6  C   UNL     1      -2.218  -8.943  -0.512  0.00  0.00    +0.066 A 
ATOM      7  C   UNL     1      -2.338 -10.222  -1.055  0.00  0.00    +0.035 A 
ATOM      8  C   UNL     1      -2.455 -11.310  -0.217  0.00  0.00    +0.042 A 
ATOM      9  C   UNL     1      -2.454 -11.130   1.160  0.00  0.00    +0.023 A 
ATOM     10  C   UNL     1      -2.334  -9.872   1.707  0.00  0.00    +0.048 A 
ATOM     11  C   UNL     1      -2.212  -8.756   0.880  0.00  0.00    +0.140 A 
ATOM     12  O   UNL     1      -2.086  -7.532   1.444  0.00  0.00    -0.450 OA
ATOM     13  C   UNL     1      -2.197  -6.430   0.677  0.00  0.00    +0.199 A 
ATOM     14  C   UNL     1      -2.323  -5.021   1.089  0.00  0.00    +0.283 C 
ATOM     15  O   UNL     1      -2.350  -4.632   2.239  0.00  0.00    -0.267 OA
ATOM     16 CL   UNL     1      -2.604 -12.906  -0.883  0.00  0.00    -0.084 Cl
ENDROOT
BRANCH   2  17
ATOM     17  C   UNL     1      -1.129  -4.712  -2.022  0.00  0.00    -0.018 A 
ATOM     18  C   UNL     1      -1.225  -4.677  -3.401  0.00  0.00    +0.055 A 
ATOM     19  C   UNL     1      -0.119  -4.338  -4.165  0.00  0.00    +0.163 A 
ATOM     20  C   UNL     1       1.086  -4.032  -3.540  0.00  0.00    +0.173 A 
ATOM     21  C   UNL     1       1.175  -4.068  -2.158  0.00  0.00    +0.063 A 
ATOM     22  C   UNL     1       0.066  -4.403  -1.401  0.00  0.00    +0.025 A 
ATOM     23 BR   UNL     1       2.811  -3.653  -1.305  0.00  0.00    -0.046 Br
BRANCH  20  24
ATOM     24  O   UNL     1       2.174  -3.699  -4.285  0.00  0.00    -0.503 OA
ATOM     25  H   UNL     1       2.254  -2.752  -4.464  0.00  0.00    +0.292 HD
ENDBRANCH  20  24
BRANCH  19  26
ATOM     26  O   UNL     1      -0.212  -4.305  -5.521  0.00  0.00    -0.491 OA
ATOM     27  C   UNL     1      -1.480  -4.631  -6.093  0.00  0.00    +0.277 C 
ENDBRANCH  19  26
ENDBRANCH   2  17
BRANCH   1  28
ATOM     28  C   UNL     1      -2.543  -2.768   0.011  0.00  0.00    +0.111 C 
BRANCH  28  29
ATOM     29  C   UNL     1      -1.154  -2.126   0.002  0.00  0.00    +0.047 C 
BRANCH  29  30
ATOM     30  C   UNL     1      -1.295  -0.603   0.011  0.00  0.00    +0.161 C 
BRANCH  30  32
ATOM     31  C   UNL     1      -0.017   1.425   0.010  0.00  0.00    +0.193 C 
ATOM     32  O   UNL     1       0.002  -0.004   0.002  0.00  0.00    -0.383 OA
ENDBRANCH  30  32
ENDBRANCH  29  30
ENDBRANCH  28  29
ENDBRANCH   1  28
TORSDOF 7
