REMARK  Name = ZINC43262437
REMARK  6 active torsions:
REMARK  status: ('A' for Active; 'I' for Inactive)
REMARK    1  A    between atoms: C_1  and  N_2
REMARK    2  A    between atoms: C_3  and  C_5
REMARK    3  A    between atoms: N_11  and  C_12
REMARK    4  A    between atoms: C_12  and  C_14
REMARK    5  A    between atoms: C_12  and  C_16
REMARK    6  A    between atoms: C_14  and  N_15
REMARK                            x       y       z     vdW  Elec       q    Type
REMARK                         _______ _______ _______ _____ _____    ______ ____
ROOT
ATOM      1  C   UNL     1       2.633  -1.887  -2.442  0.00  0.00    +0.077 C 
ENDROOT
BRANCH   1   7
ATOM      2  C   UNL     1       0.766  -2.169  -0.927  0.00  0.00    +0.143 C 
ATOM      3  C   UNL     1      -0.726  -2.503  -0.856  0.00  0.00    +0.028 C 
ATOM      4  C   UNL     1      -0.944  -3.944  -1.324  0.00  0.00    +0.003 C 
ATOM      5  C   UNL     1      -0.399  -4.099  -2.746  0.00  0.00    +0.015 C 
ATOM      6  C   UNL     1       1.084  -3.719  -2.763  0.00  0.00    +0.086 C 
ATOM      7  N   UNL     1       1.239  -2.332  -2.308  0.00  0.00    -0.286 NA
BRANCH   2  10
ATOM      8  C   UNL     1       1.433   0.915   1.240  0.00  0.00    +0.128 C 
ATOM      9  N   UNL     1       1.222  -0.470   0.811  0.00  0.00    -0.317 N 
ATOM     10  C   UNL     1       0.983  -0.745  -0.486  0.00  0.00    +0.230 C 
ATOM     11  O   UNL     1       0.944   0.154  -1.299  0.00  0.00    -0.274 OA
ATOM     12  H   UNL     1       1.253  -1.189   1.462  0.00  0.00    +0.148 HD
ENDBRANCH   2  10
ENDBRANCH   1   7
BRANCH   1  13
ATOM     13  C   UNL     1       2.906  -1.517  -3.877  0.00  0.00    +0.006 A 
ATOM     14  C   UNL     1       3.535  -0.423  -4.371  0.00  0.00    +0.014 A 
ATOM     15  C   UNL     1       3.674  -0.290  -5.740  0.00  0.00    +0.023 A 
ATOM     16  C   UNL     1       3.175  -1.258  -6.548  0.00  0.00    +0.055 A 
ATOM     17  S   UNL     1       2.491  -2.409  -5.367  0.00  0.00    -0.085 S 
ATOM     18 BR   UNL     1       3.204  -1.366  -8.436  0.00  0.00    -0.043 Br
ENDBRANCH   1  13
BRANCH   1  19
ATOM     19  C   UNL     1       3.572  -3.019  -2.020  0.00  0.00    -0.062 C 
BRANCH  19  20
ATOM     20  N   UNL     1       3.249  -3.438  -0.650  0.00  0.00    +0.379 N 
ATOM     21  H   UNL     1       3.142  -2.623  -0.065  0.00  0.00    -0.090 HD
ATOM     22  H   UNL     1       2.388  -3.965  -0.654  0.00  0.00    -0.090 HD
ATOM     23  H   UNL     1       3.994  -4.016  -0.290  0.00  0.00    -0.090 HD
ENDBRANCH  19  20
ENDBRANCH   1  19
TORSDOF 5
