REMARK  Name = ZINC39635564
REMARK  6 active torsions:
REMARK  status: ('A' for Active; 'I' for Inactive)
REMARK    1  A    between atoms: C_3  and  C_8
REMARK    2  A    between atoms: C_8  and  N_9
REMARK    3  A    between atoms: C_10  and  C_12
REMARK    4  A    between atoms: C_23  and  C_25
REMARK    5  A    between atoms: C_25  and  O_26
REMARK    6  A    between atoms: O_26  and  C_27
REMARK                            x       y       z     vdW  Elec       q    Type
REMARK                         _______ _______ _______ _____ _____    ______ ____
ROOT
ATOM      1  C   UNL     1       5.689   3.354   3.014  0.00  0.00    +0.100 C 
ATOM      2  C   UNL     1       5.858   2.017   3.769  0.00  0.00    +0.121 C 
ATOM      3  N   UNL     1       7.298   1.692   3.638  0.00  0.00    -0.297 N 
ATOM      4  C   UNL     1       7.985   2.997   3.787  0.00  0.00    +0.115 C 
ATOM      5  C   UNL     1       7.087   3.996   3.032  0.00  0.00    -0.004 C 
ATOM      6  C   UNL     1       7.046   5.331   3.769  0.00  0.00    -0.010 C 
ATOM      7  C   UNL     1       8.433   5.978   3.722  0.00  0.00    -0.082 C 
ATOM      8  N   UNL     1       8.835   6.179   2.325  0.00  0.00    +0.379 N 
ATOM      9  C   UNL     1       8.962   4.883   1.649  0.00  0.00    -0.082 C 
ATOM     10  C   UNL     1       7.597   4.190   1.607  0.00  0.00    -0.010 C 
ATOM     11  C   UNL     1       7.856   0.482   3.431  0.00  0.00    +0.253 C 
ATOM     12  O   UNL     1       9.061   0.378   3.347  0.00  0.00    -0.272 OA
ATOM     13  H   UNL     1       8.138   6.736   1.853  0.00  0.00    -0.086 HD
ATOM     14  H   UNL     1       9.721   6.660   2.297  0.00  0.00    -0.086 HD
ENDROOT
BRANCH   1  16
ATOM     15  N   UNL     1       4.512   4.031   0.947  0.00  0.00    -0.311 N 
ATOM     16  C   UNL     1       5.245   3.104   1.596  0.00  0.00    +0.218 C 
ATOM     17  O   UNL     1       5.546   2.070   1.040  0.00  0.00    -0.275 OA
ATOM     18  H   UNL     1       4.271   4.858   1.392  0.00  0.00    +0.149 HD
BRANCH  15  19
ATOM     19  C   UNL     1       4.079   3.788  -0.432  0.00  0.00    +0.139 C 
BRANCH  19  22
ATOM     20  C   UNL     1       3.188   7.102  -2.004  0.00  0.00    +0.002 A 
ATOM     21  C   UNL     1       3.919   6.019  -1.553  0.00  0.00    +0.005 A 
ATOM     22  C   UNL     1       3.281   4.968  -0.923  0.00  0.00    -0.029 A 
ATOM     23  C   UNL     1       1.911   4.998  -0.744  0.00  0.00    +0.025 A 
ATOM     24  C   UNL     1       1.178   6.081  -1.195  0.00  0.00    +0.041 A 
ATOM     25  C   UNL     1       1.818   7.134  -1.825  0.00  0.00    +0.020 A 
ATOM     26 CL   UNL     1      -0.543   6.120  -0.970  0.00  0.00    -0.084 Cl
ENDBRANCH  19  22
ENDBRANCH  15  19
ENDBRANCH   1  16
BRANCH  11  27
ATOM     27  C   UNL     1       6.983  -0.739   3.305  0.00  0.00    +0.324 C 
BRANCH  27  28
ATOM     28  O   UNL     1       7.802  -1.890   3.091  0.00  0.00    -0.483 OA
BRANCH  28  29
ATOM     29  C   UNL     1       7.166  -3.084   2.955  0.00  0.00    +0.123 A 
ATOM     30  C   UNL     1       5.782  -3.144   3.021  0.00  0.00    +0.046 A 
ATOM     31  C   UNL     1       5.137  -4.358   2.882  0.00  0.00    +0.005 A 
ATOM     32  C   UNL     1       5.870  -5.513   2.678  0.00  0.00    +0.020 A 
ATOM     33  C   UNL     1       7.251  -5.455   2.613  0.00  0.00    +0.044 A 
ATOM     34  C   UNL     1       7.900  -4.242   2.746  0.00  0.00    +0.065 A 
ATOM     35 CL   UNL     1       8.169  -6.907   2.357  0.00  0.00    -0.083 Cl
ENDBRANCH  28  29
ENDBRANCH  27  28
ENDBRANCH  11  27
TORSDOF 6
