REMARK  Name = ZINC39502498
REMARK  11 active torsions:
REMARK  status: ('A' for Active; 'I' for Inactive)
REMARK    1  A    between atoms: C_1  and  C_2
REMARK    2  A    between atoms: C_2  and  O_3
REMARK    3  A    between atoms: O_3  and  C_4
REMARK    4  A    between atoms: C_4  and  C_6
REMARK    5  A    between atoms: C_7  and  C_31
REMARK    6  A    between atoms: C_11  and  O_30
REMARK    7  A    between atoms: C_12  and  C_23
REMARK    8  A    between atoms: C_15  and  C_16
REMARK    9  A    between atoms: C_20  and  O_22
REMARK   10  A    between atoms: C_28  and  O_29
REMARK   11  A    between atoms: C_31  and  N_32
REMARK                            x       y       z     vdW  Elec       q    Type
REMARK                         _______ _______ _______ _____ _____    ______ ____
ROOT
ATOM      1  C   UNL     1       1.500  -2.373   2.474  0.00  0.00    +0.072 A 
ATOM      2  C   UNL     1       0.782  -2.662   3.646  0.00  0.00    -0.011 A 
ATOM      3  C   UNL     1       1.403  -3.178   4.737  0.00  0.00    +0.015 A 
ATOM      4  C   UNL     1       2.788  -3.436   4.714  0.00  0.00    -0.013 A 
ATOM      5  C   UNL     1       3.437  -3.970   5.838  0.00  0.00    +0.054 A 
ATOM      6  C   UNL     1       4.779  -4.214   5.800  0.00  0.00    +0.125 A 
ATOM      7  C   UNL     1       5.528  -3.936   4.639  0.00  0.00    +0.028 A 
ATOM      8  C   UNL     1       4.912  -3.409   3.519  0.00  0.00    +0.021 A 
ATOM      9  C   UNL     1       3.534  -3.153   3.542  0.00  0.00    -0.009 A 
ATOM     10  C   UNL     1       2.876  -2.620   2.410  0.00  0.00    +0.004 A 
ENDROOT
BRANCH  10  11
ATOM     11  C   UNL     1       3.633  -2.323   1.175  0.00  0.00    -0.013 A 
ATOM     12  C   UNL     1       4.217  -3.360   0.444  0.00  0.00    +0.009 A 
ATOM     13  C   UNL     1       4.922  -3.079  -0.708  0.00  0.00    +0.004 A 
ATOM     14  C   UNL     1       5.054  -1.773  -1.142  0.00  0.00    +0.045 A 
ATOM     15  C   UNL     1       4.478  -0.735  -0.422  0.00  0.00    +0.117 A 
ATOM     16  C   UNL     1       3.762  -1.006   0.732  0.00  0.00    +0.054 A 
BRANCH  15  17
ATOM     17  O   UNL     1       4.611   0.546  -0.853  0.00  0.00    -0.507 OA
ATOM     18  H   UNL     1       3.908   0.835  -1.452  0.00  0.00    +0.292 HD
ENDBRANCH  15  17
ENDBRANCH  10  11
BRANCH   7  19
ATOM     19  C   UNL     1       6.984  -4.208   4.620  0.00  0.00    +0.027 A 
ATOM     20  C   UNL     1       7.892  -3.157   4.504  0.00  0.00    +0.012 A 
ATOM     21  C   UNL     1       9.247  -3.416   4.487  0.00  0.00    +0.001 A 
ATOM     22  C   UNL     1       9.709  -4.717   4.583  0.00  0.00    +0.004 A 
ATOM     23  C   UNL     1       8.818  -5.767   4.698  0.00  0.00    +0.046 A 
ATOM     24  C   UNL     1       7.455  -5.521   4.723  0.00  0.00    +0.125 A 
BRANCH  24  25
ATOM     25  O   UNL     1       6.578  -6.552   4.842  0.00  0.00    -0.506 OA
ATOM     26  H   UNL     1       6.298  -6.929   3.997  0.00  0.00    +0.292 HD
ENDBRANCH  24  25
ENDBRANCH   7  19
BRANCH   1  27
ATOM     27  C   UNL     1       0.801  -1.813   1.304  0.00  0.00    +0.340 C 
ATOM     28  O   UNL     1       0.321  -2.555   0.470  0.00  0.00    -0.245 OA
BRANCH  27  29
ATOM     29  O   UNL     1       0.693  -0.477   1.160  0.00  0.00    -0.461 OA
BRANCH  29  31
ATOM     30  C   UNL     1      -0.019   1.526   0.010  0.00  0.00    +0.048 C 
ATOM     31  C   UNL     1       0.002  -0.004   0.002  0.00  0.00    +0.229 C 
ENDBRANCH  29  31
ENDBRANCH  27  29
ENDBRANCH   1  27
BRANCH   6  32
ATOM     32  O   UNL     1       5.399  -4.730   6.891  0.00  0.00    -0.506 OA
ATOM     33  H   UNL     1       5.422  -5.697   6.911  0.00  0.00    +0.292 HD
ENDBRANCH   6  32
BRANCH   2  34
ATOM     34  C   UNL     1      -0.701  -2.395   3.694  0.00  0.00    +0.181 C 
BRANCH  34  35
ATOM     35  N   UNL     1      -1.422  -3.540   3.132  0.00  0.00    -0.248 N 
ATOM     36  C   UNL     1      -2.399  -4.246   3.726  0.00  0.00    +0.219 A 
ATOM     37  N   UNL     1      -2.782  -5.184   2.899  0.00  0.00    -0.223 NA
ATOM     38  C   UNL     1      -2.076  -5.109   1.772  0.00  0.00    +0.245 A 
ATOM     39  N   UNL     1      -1.233  -4.114   1.865  0.00  0.00    -0.158 NA
ENDBRANCH  34  35
ENDBRANCH   2  34
TORSDOF 10
