REMARK  Name = ZINC16606251
REMARK  6 active torsions:
REMARK  status: ('A' for Active; 'I' for Inactive)
REMARK    1  A    between atoms: C_1  and  C_2
REMARK    2  A    between atoms: C_9  and  C_11
REMARK    3  A    between atoms: N_13  and  N_14
REMARK    4  A    between atoms: C_15  and  C_16
REMARK    5  A    between atoms: C_19  and  C_21
REMARK    6  A    between atoms: C_26  and  N_27
REMARK                            x       y       z     vdW  Elec       q    Type
REMARK                         _______ _______ _______ _____ _____    ______ ____
ROOT
ATOM      1  C   UNL     1      -1.700  -0.109   8.224  0.00  0.00    +0.148 A 
ATOM      2  C   UNL     1      -2.095  -0.951   9.362  0.00  0.00    +0.051 A 
ATOM      3  C   UNL     1      -1.893  -0.211  10.482  0.00  0.00    +0.050 A 
ATOM      4  C   UNL     1      -1.384   1.088  10.045  0.00  0.00    +0.138 A 
ATOM      5  O   UNL     1      -1.294   1.085   8.703  0.00  0.00    -0.454 OA
ENDROOT
BRANCH   4   6
ATOM      6  C   UNL     1      -1.043   2.170  10.893  0.00  0.00    +0.047 A 
ATOM      7  C   UNL     1      -1.948   2.611  11.879  0.00  0.00    +0.015 A 
ATOM      8  C   UNL     1      -1.608   3.651  12.694  0.00  0.00    +0.016 A 
ATOM      9  C   UNL     1      -0.378   4.282  12.547  0.00  0.00    +0.020 A 
ATOM     10  C   UNL     1       0.519   3.858  11.575  0.00  0.00    +0.048 A 
ATOM     11  C   UNL     1       0.201   2.816  10.753  0.00  0.00    +0.138 A 
ATOM     12 BR   UNL     1       0.077   5.727  13.679  0.00  0.00    -0.050 Br
BRANCH  11  13
ATOM     13  N   UNL     1       1.159   2.367   9.718  0.00  0.00    +0.057 N 
ATOM     14  O   UNL     1       2.321   2.973   9.588  0.00  0.00    -0.126 OA
ATOM     15  O   UNL     1       0.849   1.361   8.926  0.00  0.00    -0.126 OA
ENDBRANCH  11  13
ENDBRANCH   4   6
BRANCH   1  17
ATOM     16  N   UNL     1      -1.364   0.382   5.949  0.00  0.00    -0.185 NA
ATOM     17  C   UNL     1      -1.745  -0.477   6.886  0.00  0.00    +0.176 C 
BRANCH  16  20
ATOM     18  C   UNL     1      -1.019   0.913   3.754  0.00  0.00    +0.236 C 
ATOM     19  O   UNL     1      -0.633   2.015   4.065  0.00  0.00    -0.274 OA
ATOM     20  N   UNL     1      -1.405   0.040   4.705  0.00  0.00    -0.207 N 
ATOM     21  H   UNL     1      -1.714  -0.845   4.456  0.00  0.00    +0.177 HD
BRANCH  18  29
ATOM     22  C   UNL     1      -0.852  -1.555   0.761  0.00  0.00    +0.012 C 
ATOM     23  C   UNL     1      -0.249  -0.699   1.877  0.00  0.00    -0.017 C 
ATOM     24  C   UNL     1       0.544  -1.478   2.915  0.00  0.00    +0.008 C 
ATOM     25  C   UNL     1       1.369  -0.549   3.784  0.00  0.00    +0.001 C 
ATOM     26  C   UNL     1       2.259   0.298   2.867  0.00  0.00    +0.000 C 
ATOM     27  C   UNL     1       1.389   1.356   2.186  0.00  0.00    +0.005 C 
ATOM     28  C   UNL     1       0.215   0.691   1.472  0.00  0.00    +0.008 C 
ATOM     29  C   UNL     1      -1.067   0.514   2.301  0.00  0.00    +0.086 C 
ENDBRANCH  18  29
ENDBRANCH  16  20
ENDBRANCH   1  17
TORSDOF 5
