REMARK  Name = ZINC40372483
REMARK  6 active torsions:
REMARK  status: ('A' for Active; 'I' for Inactive)
REMARK    1  A    between atoms: C_1  and  C_2
REMARK    2  A    between atoms: C_5  and  C_7
REMARK    3  A    between atoms: N_9  and  C_10
REMARK    4  A    between atoms: C_10  and  C_17
REMARK    5  A    between atoms: C_13  and  C_16
REMARK    6  A    between atoms: N_18  and  O_19
REMARK                            x       y       z     vdW  Elec       q    Type
REMARK                         _______ _______ _______ _____ _____    ______ ____
ROOT
ATOM      1  C   UNL     1       0.227  -3.990   3.157  0.00  0.00    +0.093 C 
ATOM      2  C   UNL     1       0.339  -5.141   2.156  0.00  0.00    +0.034 C 
ATOM      3  C   UNL     1       1.792  -5.279   1.698  0.00  0.00    +0.006 C 
ATOM      4  C   UNL     1       2.683  -5.567   2.907  0.00  0.00    -0.014 C 
ATOM      5  C   UNL     1       2.571  -4.416   3.909  0.00  0.00    +0.006 C 
ATOM      6  C   UNL     1       1.118  -4.278   4.367  0.00  0.00    +0.034 C 
ATOM      7  C   UNL     1       2.233  -6.869   3.575  0.00  0.00    +0.007 C 
ENDROOT
BRANCH   1   8
ATOM      8  C   UNL     1      -1.204  -3.854   3.609  0.00  0.00    +0.155 C 
ATOM      9  N   UNL     1      -1.505  -4.003   4.856  0.00  0.00    -0.075 NA
ATOM     10  N   UNL     1      -2.192  -3.570   2.692  0.00  0.00    -0.342 N 
ATOM     11  H   UNL     1      -1.957  -3.375   1.771  0.00  0.00    +0.144 HD
ATOM     12  H   UNL     1      -3.122  -3.566   2.966  0.00  0.00    +0.144 HD
BRANCH   9  13
ATOM     13  O   UNL     1      -2.850  -3.875   5.281  0.00  0.00    -0.408 OA
ATOM     14  H   UNL     1      -2.977  -4.003   6.231  0.00  0.00    +0.328 HD
ENDBRANCH   9  13
ENDBRANCH   1   8
BRANCH   1  17
ATOM     15  C   UNL     1       0.607  -1.583   3.202  0.00  0.00    +0.217 C 
ATOM     16  O   UNL     1       0.120  -1.555   4.312  0.00  0.00    -0.275 OA
ATOM     17  N   UNL     1       0.658  -2.744   2.518  0.00  0.00    -0.303 N 
ATOM     18  H   UNL     1       0.980  -2.754   1.604  0.00  0.00    +0.150 HD
BRANCH  15  22
ATOM     19  C   UNL     1       2.210   1.969   3.277  0.00  0.00    +0.008 C 
ATOM     20  C   UNL     1       1.065   0.964   3.412  0.00  0.00    -0.002 C 
ATOM     21  C   UNL     1       0.150   0.769   2.201  0.00  0.00    +0.017 C 
ATOM     22  C   UNL     1       1.153  -0.321   2.586  0.00  0.00    +0.078 C 
ENDBRANCH  15  22
ENDBRANCH   1  17
TORSDOF 4
