REMARK  Name = ZINC45533553
REMARK  11 active torsions:
REMARK  status: ('A' for Active; 'I' for Inactive)
REMARK    1  A    between atoms: C_1  and  C_2
REMARK    2  A    between atoms: C_2  and  C_3
REMARK    3  A    between atoms: C_3  and  C_4
REMARK    4  A    between atoms: C_3  and  C_6
REMARK    5  A    between atoms: C_4  and  C_5
REMARK    6  A    between atoms: C_6  and  C_8
REMARK    7  A    between atoms: C_6  and  N_26
REMARK    8  A    between atoms: C_8  and  N_9
REMARK    9  A    between atoms: N_12  and  N_13
REMARK   10  A    between atoms: C_14  and  C_16
REMARK   11  A    between atoms: N_18  and  C_25
REMARK                            x       y       z     vdW  Elec       q    Type
REMARK                         _______ _______ _______ _____ _____    ______ ____
ROOT
ATOM      1  N   UNL     1      -4.383  -1.538   2.649  0.00  0.00    -0.300 N 
ATOM      2  C   UNL     1      -5.514  -2.268   2.721  0.00  0.00    +0.316 C 
ATOM      3  O   UNL     1      -5.892  -2.900   1.754  0.00  0.00    -0.251 OA
ATOM      4  N   UNL     1      -6.224  -2.299   3.866  0.00  0.00    -0.218 N 
ATOM      5  H   UNL     1      -4.082  -1.034   3.421  0.00  0.00    +0.150 HD
ATOM      6  H   UNL     1      -7.038  -2.824   3.918  0.00  0.00    +0.174 HD
ENDROOT
BRANCH   4   7
ATOM      7  N   UNL     1      -5.788  -1.571   4.981  0.00  0.00    -0.229 N 
ATOM      8  C   UNL     1      -6.499  -1.601   6.126  0.00  0.00    +0.262 C 
ATOM      9  O   UNL     1      -7.520  -2.260   6.191  0.00  0.00    -0.269 OA
ATOM     10  H   UNL     1      -4.975  -1.045   4.929  0.00  0.00    +0.173 HD
BRANCH   8  11
ATOM     11  C   UNL     1      -6.042  -0.838   7.295  0.00  0.00    +0.063 A 
ATOM     12  C   UNL     1      -4.930  -0.053   7.373  0.00  0.00    +0.099 A 
ATOM     13  N   UNL     1      -4.838   0.490   8.611  0.00  0.00    -0.349 N 
ATOM     14  C   UNL     1      -5.894   0.078   9.397  0.00  0.00    +0.050 A 
ATOM     15  C   UNL     1      -6.699  -0.764   8.613  0.00  0.00    +0.012 A 
ATOM     16  C   UNL     1      -7.852  -1.329   9.152  0.00  0.00    +0.011 A 
ATOM     17  C   UNL     1      -8.200  -1.054  10.457  0.00  0.00    +0.001 A 
ATOM     18  C   UNL     1      -7.408  -0.220  11.231  0.00  0.00    +0.002 A 
ATOM     19  C   UNL     1      -6.260   0.339  10.713  0.00  0.00    +0.026 A 
ATOM     20  C   UNL     1      -3.767   1.387   9.053  0.00  0.00    +0.149 C 
ENDBRANCH   8  11
ENDBRANCH   4   7
BRANCH   1  21
ATOM     21  C   UNL     1      -3.611  -1.504   1.405  0.00  0.00    +0.091 C 
BRANCH  21  22
ATOM     22  C   UNL     1      -2.429  -0.546   1.564  0.00  0.00    -0.048 C 
BRANCH  22  23
ATOM     23  N   UNL     1      -2.928   0.828   1.703  0.00  0.00    +0.383 N 
ATOM     24  C   UNL     1      -3.621   0.992   3.007  0.00  0.00    -0.078 C 
ATOM     25  C   UNL     1      -3.571   2.522   3.245  0.00  0.00    -0.020 C 
ATOM     26  C   UNL     1      -2.178   2.912   2.699  0.00  0.00    -0.020 C 
ATOM     27  C   UNL     1      -1.797   1.782   1.725  0.00  0.00    -0.078 C 
ATOM     28  H   UNL     1      -3.555   1.050   0.944  0.00  0.00    -0.081 HD
ENDBRANCH  22  23
BRANCH  22  29
ATOM     29  C   UNL     1      -1.527  -0.639   0.331  0.00  0.00    -0.024 C 
BRANCH  29  31
ATOM     30  C   UNL     1       0.060  -2.190   1.479  0.00  0.00    +0.004 C 
ATOM     31  C   UNL     1      -0.875  -2.022   0.280  0.00  0.00    -0.002 C 
ENDBRANCH  29  31
BRANCH  29  32
ATOM     32  C   UNL     1      -2.365  -0.424  -0.931  0.00  0.00    -0.002 C 
ATOM     33  C   UNL     1      -2.509   1.076  -1.197  0.00  0.00    +0.004 C 
ENDBRANCH  29  32
ENDBRANCH  22  29
ENDBRANCH  21  22
ENDBRANCH   1  21
TORSDOF 8
