REMARK  Name = ZINC42908246
REMARK  10 active torsions:
REMARK  status: ('A' for Active; 'I' for Inactive)
REMARK    1  A    between atoms: C_1  and  C_2
REMARK    2  A    between atoms: N_5  and  C_11
REMARK    3  A    between atoms: C_7  and  C_10
REMARK    4  A    between atoms: C_11  and  C_12
REMARK    5  A    between atoms: C_12  and  N_13
REMARK    6  A    between atoms: N_16  and  C_17
REMARK    7  A    between atoms: C_19  and  C_25
REMARK    8  A    between atoms: C_19  and  C_26
REMARK    9  A    between atoms: C_21  and  C_23
REMARK   10  A    between atoms: C_21  and  C_24
REMARK                            x       y       z     vdW  Elec       q    Type
REMARK                         _______ _______ _______ _____ _____    ______ ____
ROOT
ATOM      1  N   UNL     1      -3.891  -4.689  -0.480  0.00  0.00    -0.298 N 
ATOM      2  C   UNL     1      -4.068  -6.012  -0.668  0.00  0.00    +0.300 C 
ATOM      3  O   UNL     1      -3.106  -6.733  -0.853  0.00  0.00    -0.253 OA
ATOM      4  N   UNL     1      -5.309  -6.535  -0.650  0.00  0.00    -0.297 N 
ATOM      5  H   UNL     1      -4.658  -4.114  -0.333  0.00  0.00    +0.150 HD
ATOM      6  H   UNL     1      -6.076  -5.960  -0.503  0.00  0.00    +0.151 HD
ENDROOT
BRANCH   4   7
ATOM      7  C   UNL     1      -5.502  -7.977  -0.855  0.00  0.00    +0.072 C 
ATOM      8  C   UNL     1      -5.597  -8.263  -2.354  0.00  0.00    +0.009 C 
ATOM      9  C   UNL     1      -5.810  -9.759  -2.583  0.00  0.00    -0.072 C 
ATOM     10  N   UNL     1      -6.954 -10.270  -1.843  0.00  0.00    +0.386 N 
ATOM     11  C   UNL     1      -7.080  -9.889  -0.445  0.00  0.00    -0.072 C 
ATOM     12  C   UNL     1      -6.813  -8.408  -0.199  0.00  0.00    +0.009 C 
ATOM     13  C   UNL     1      -8.540 -10.170  -0.017  0.00  0.00    -0.010 C 
ATOM     14  C   UNL     1      -6.179 -10.739   0.456  0.00  0.00    -0.010 C 
ATOM     15  C   UNL     1      -4.529 -10.530  -2.265  0.00  0.00    -0.010 C 
ATOM     16  C   UNL     1      -6.102  -9.956  -4.088  0.00  0.00    -0.010 C 
ATOM     17  H   UNL     1      -7.806  -9.983  -2.332  0.00  0.00    -0.084 HD
ATOM     18  H   UNL     1      -6.944 -11.291  -1.899  0.00  0.00    -0.084 HD
ENDBRANCH   4   7
BRANCH   1  19
ATOM     19  C   UNL     1      -2.541  -4.120  -0.500  0.00  0.00    +0.121 C 
BRANCH  19  20
ATOM     20  C   UNL     1      -2.621  -2.610  -0.264  0.00  0.00    +0.103 C 
BRANCH  20  24
ATOM     21  C   UNL     1       0.073   1.508  -0.312  0.00  0.00    +0.039 C 
ATOM     22  C   UNL     1       0.111  -0.020  -0.378  0.00  0.00    +0.130 C 
ATOM     23  C   UNL     1      -1.315  -0.571  -0.298  0.00  0.00    +0.115 C 
ATOM     24  N   UNL     1      -1.267  -2.040  -0.283  0.00  0.00    -0.296 NA
ATOM     25  C   UNL     1      -0.475  -2.524   0.857  0.00  0.00    +0.115 C 
ATOM     26  C   UNL     1       0.943  -1.954   0.766  0.00  0.00    +0.130 C 
ATOM     27  O   UNL     1       0.875  -0.526   0.721  0.00  0.00    -0.371 OA
ATOM     28  C   UNL     1       1.749  -2.390   1.991  0.00  0.00    +0.039 C 
ENDBRANCH  20  24
ENDBRANCH  19  20
ENDBRANCH   1  19
TORSDOF 4
