REMARK  Name = ZINC21082571
REMARK  13 active torsions:
REMARK  status: ('A' for Active; 'I' for Inactive)
REMARK    1  A    between atoms: C_1  and  C_2
REMARK    2  A    between atoms: C_5  and  C_8
REMARK    3  A    between atoms: C_10  and  C_18
REMARK    4  A    between atoms: N_20  and  C_21
REMARK    5  A    between atoms: N_20  and  C_25
REMARK    6  A    between atoms: C_21  and  C_22
REMARK    7  A    between atoms: C_22  and  C_23
REMARK    8  A    between atoms: C_22  and  C_24
REMARK    9  A    between atoms: C_26  and  N_38
REMARK   10  A    between atoms: N_27  and  C_34
REMARK   11  A    between atoms: C_34  and  C_35
REMARK   12  A    between atoms: C_35  and  C_36
REMARK   13  A    between atoms: C_35  and  C_37
REMARK                            x       y       z     vdW  Elec       q    Type
REMARK                         _______ _______ _______ _____ _____    ______ ____
ROOT
ATOM      1  C   UNL     1      -1.408  -0.602  -0.791  0.00  0.00    +0.252 C 
ATOM      2  O   UNL     1      -0.611   0.316  -0.813  0.00  0.00    -0.270 OA
ATOM      3  N   UNL     1      -2.724  -0.349  -0.647  0.00  0.00    -0.260 N 
ENDROOT
BRANCH   1   6
ATOM      4  C   UNL     1      -1.147  -4.242  -1.768  0.00  0.00    +0.072 A 
ATOM      5  C   UNL     1      -1.635  -2.930  -1.671  0.00  0.00    +0.042 A 
ATOM      6  C   UNL     1      -0.933  -1.996  -0.922  0.00  0.00    +0.048 A 
ATOM      7  C   UNL     1       0.296  -2.446  -0.267  0.00  0.00    +0.013 A 
ATOM      8  C   UNL     1       1.071  -1.578   0.509  0.00  0.00    +0.011 A 
ATOM      9  C   UNL     1       2.210  -2.039   1.101  0.00  0.00    +0.001 A 
ATOM     10  C   UNL     1       2.610  -3.364   0.943  0.00  0.00    +0.002 A 
ATOM     11  C   UNL     1       1.879  -4.235   0.195  0.00  0.00    +0.028 A 
ATOM     12  C   UNL     1       0.698  -3.796  -0.431  0.00  0.00    +0.072 A 
ATOM     13  N   UNL     1      -0.038  -4.626  -1.171  0.00  0.00    -0.247 NA
BRANCH   4  18
ATOM     14  C   UNL     1      -4.097  -8.080  -4.887  0.00  0.00    +0.044 C 
ATOM     15  C   UNL     1      -3.325  -7.075  -4.071  0.00  0.00    -0.050 A 
ATOM     16  C   UNL     1      -2.237  -7.487  -3.322  0.00  0.00    +0.004 A 
ATOM     17  C   UNL     1      -1.526  -6.571  -2.572  0.00  0.00    +0.010 A 
ATOM     18  C   UNL     1      -1.906  -5.230  -2.571  0.00  0.00    +0.000 A 
ATOM     19  C   UNL     1      -3.007  -4.823  -3.324  0.00  0.00    +0.010 A 
ATOM     20  C   UNL     1      -3.707  -5.746  -4.073  0.00  0.00    +0.004 A 
ENDBRANCH   4  18
ENDBRANCH   1   6
BRANCH   3  21
ATOM     21  C   UNL     1      -3.639  -1.415  -0.536  0.00  0.00    +0.140 A 
ATOM     22  C   UNL     1      -3.583  -2.279   0.539  0.00  0.00    +0.127 A 
ATOM     23  N   UNL     1      -4.489  -3.310   0.620  0.00  0.00    -0.280 N 
ATOM     24  C   UNL     1      -5.420  -3.475  -0.337  0.00  0.00    +0.331 A 
ATOM     25  O   UNL     1      -6.212  -4.393  -0.247  0.00  0.00    -0.246 OA
ATOM     26  N   UNL     1      -5.489  -2.644  -1.392  0.00  0.00    -0.273 N 
ATOM     27  H   UNL     1      -6.255  -2.801  -2.166  0.00  0.00    +0.173 HD
ATOM     28  C   UNL     1      -4.629  -1.615  -1.517  0.00  0.00    +0.277 A 
ATOM     29  O   UNL     1      -4.704  -0.864  -2.475  0.00  0.00    -0.266 OA
BRANCH  22  30
ATOM     30  N   UNL     1      -2.632  -2.111   1.517  0.00  0.00    -0.343 N 
ATOM     31  H   UNL     1      -2.593  -2.803   2.372  0.00  0.00    +0.144 HD
ATOM     32  H   UNL     1      -1.910  -1.284   1.446  0.00  0.00    +0.144 HD
ENDBRANCH  22  30
BRANCH  23  33
ATOM     33  C   UNL     1      -4.442  -4.234   1.756  0.00  0.00    +0.131 C 
BRANCH  33  34
ATOM     34  C   UNL     1      -5.330  -3.702   2.883  0.00  0.00    +0.003 C 
ATOM     35  C   UNL     1      -5.380  -4.726   4.019  0.00  0.00    +0.009 C 
ATOM     36  C   UNL     1      -4.755  -2.385   3.408  0.00  0.00    +0.009 C 
ENDBRANCH  33  34
ENDBRANCH  23  33
ENDBRANCH   3  21
BRANCH   3  37
ATOM     37  C   UNL     1      -3.204   1.035  -0.607  0.00  0.00    +0.117 C 
BRANCH  37  38
ATOM     38  C   UNL     1      -3.347   1.483   0.849  0.00  0.00    +0.001 C 
ATOM     39  C   UNL     1      -1.964   1.553   1.499  0.00  0.00    +0.009 C 
ATOM     40  C   UNL     1      -4.003   2.865   0.895  0.00  0.00    +0.009 C 
ENDBRANCH  37  38
ENDBRANCH   3  37
TORSDOF 8
