REMARK  Name = ZINC12029658
REMARK  7 active torsions:
REMARK  status: ('A' for Active; 'I' for Inactive)
REMARK    1  A    between atoms: C_5  and  C_7
REMARK    2  A    between atoms: C_8  and  C_19
REMARK    3  A    between atoms: N_10  and  C_12
REMARK    4  A    between atoms: C_19  and  N_49
REMARK    5  A    between atoms: C_20  and  C_21
REMARK    6  A    between atoms: C_20  and  N_49
REMARK    7  A    between atoms: C_21  and  N_22
REMARK                            x       y       z     vdW  Elec       q    Type
REMARK                         _______ _______ _______ _____ _____    ______ ____
ROOT
ATOM      1  C   UNL     1       2.423   3.958   0.190  0.00  0.00    +0.096 A 
ATOM      2  C   UNL     1       2.547   5.331  -0.100  0.00  0.00    -0.019 A 
ATOM      3  C   UNL     1       3.861   5.606  -0.253  0.00  0.00    +0.116 A 
ATOM      4  N   UNL     1       4.552   4.449  -0.076  0.00  0.00    -0.239 N 
ATOM      5  N   UNL     1       3.629   3.432   0.200  0.00  0.00    -0.166 NA
ENDROOT
BRANCH   1  10
ATOM      6  C   UNL     1      -1.105   2.717  -0.200  0.00  0.00    +0.001 A 
ATOM      7  C   UNL     1      -1.220   1.879   0.895  0.00  0.00    +0.001 A 
ATOM      8  C   UNL     1      -0.152   1.707   1.757  0.00  0.00    +0.020 A 
ATOM      9  C   UNL     1       1.033   2.381   1.534  0.00  0.00    +0.050 A 
ATOM     10  C   UNL     1       1.153   3.231   0.435  0.00  0.00    +0.021 A 
ATOM     11  C   UNL     1       0.074   3.395  -0.433  0.00  0.00    +0.011 A 
ATOM     12 CL   UNL     1       2.371   2.170   2.620  0.00  0.00    -0.083 Cl
ENDBRANCH   1  10
BRANCH   4  13
ATOM     13  C   UNL     1       5.943   4.300  -0.156  0.00  0.00    +0.066 A 
ATOM     14  C   UNL     1       6.744   5.397  -0.445  0.00  0.00    +0.030 A 
ATOM     15  C   UNL     1       8.115   5.249  -0.518  0.00  0.00    +0.040 A 
ATOM     16  C   UNL     1       8.691   4.006  -0.315  0.00  0.00    +0.124 A 
ATOM     17  C   UNL     1       7.893   2.910  -0.032  0.00  0.00    +0.040 A 
ATOM     18  C   UNL     1       6.522   3.055   0.047  0.00  0.00    +0.030 A 
ATOM     19  F   UNL     1      10.032   3.862  -0.393  0.00  0.00    -0.205 F 
ENDBRANCH   4  13
BRANCH   2  20
ATOM     20  C   UNL     1       1.415   6.319  -0.216  0.00  0.00    -0.043 C 
BRANCH  20  21
ATOM     21  N   UNL     1       0.922   6.650   1.134  0.00  0.00    +0.383 N 
ATOM     22  H   UNL     1       1.661   7.137   1.655  0.00  0.00    -0.085 HD
ATOM     23  H   UNL     1       0.671   5.784   1.625  0.00  0.00    -0.085 HD
BRANCH  21  24
ATOM     24  C   UNL     1      -0.266   7.520   1.046  0.00  0.00    -0.063 C 
BRANCH  24  25
ATOM     25  C   UNL     1      -0.830   7.742   2.451  0.00  0.00    +0.090 C 
BRANCH  25  26
ATOM     26  N   UNL     1      -2.010   8.606   2.373  0.00  0.00    -0.286 N 
ATOM     27  C   UNL     1      -1.998  10.074   2.462  0.00  0.00    +0.128 C 
ATOM     28  C   UNL     1      -3.482  10.464   2.318  0.00  0.00    +0.124 C 
ATOM     29  N   UNL     1      -4.173   9.175   2.173  0.00  0.00    -0.298 N 
ATOM     30  C   UNL     1      -3.272   8.185   2.214  0.00  0.00    +0.302 C 
ATOM     31  O   UNL     1      -3.571   7.011   2.117  0.00  0.00    -0.253 OA
ATOM     32  H   UNL     1      -5.130   9.059   2.064  0.00  0.00    +0.150 HD
ENDBRANCH  25  26
ENDBRANCH  24  25
ENDBRANCH  21  24
ENDBRANCH  20  21
ENDBRANCH   2  20
TORSDOF 7
