REMARK  Name = ZINC35590784
REMARK  13 active torsions:
REMARK  status: ('A' for Active; 'I' for Inactive)
REMARK    1  A    between atoms: C_1  and  C_2
REMARK    2  A    between atoms: C_5  and  S_8
REMARK    3  A    between atoms: S_8  and  N_11
REMARK    4  A    between atoms: N_11  and  C_12
REMARK    5  A    between atoms: N_11  and  C_27
REMARK    6  A    between atoms: C_12  and  C_13
REMARK    7  A    between atoms: C_13  and  C_15
REMARK    8  A    between atoms: C_13  and  O_26
REMARK    9  A    between atoms: C_15  and  N_16
REMARK   10  A    between atoms: C_17  and  C_25
REMARK   11  A    between atoms: C_22  and  C_24
REMARK   12  A    between atoms: C_30  and  O_33
REMARK   13  A    between atoms: O_33  and  C_34
REMARK                            x       y       z     vdW  Elec       q    Type
REMARK                         _______ _______ _______ _____ _____    ______ ____
ROOT
ATOM      1  N   UNL     1       1.488  -5.035  -0.000  0.00  0.00    -0.201 N 
ENDROOT
BRANCH   1   2
ATOM      2  C   UNL     1       2.202  -4.775  -1.175  0.00  0.00    +0.052 A 
ATOM      3  C   UNL     1       3.124  -3.737  -1.212  0.00  0.00    +0.028 A 
ATOM      4  C   UNL     1       3.829  -3.482  -2.372  0.00  0.00    +0.047 A 
ATOM      5  C   UNL     1       3.617  -4.261  -3.499  0.00  0.00    +0.120 A 
ATOM      6  C   UNL     1       2.696  -5.298  -3.463  0.00  0.00    +0.047 A 
ATOM      7  C   UNL     1       1.994  -5.559  -2.303  0.00  0.00    +0.028 A 
BRANCH   5   8
ATOM      8  O   UNL     1       4.311  -4.009  -4.641  0.00  0.00    -0.495 OA
ATOM      9  C   UNL     1       4.043  -4.851  -5.764  0.00  0.00    +0.277 C 
ENDBRANCH   5   8
ENDBRANCH   1   2
BRANCH   1  10
ATOM     10  S   UNL     1      -0.166  -4.953  -0.001  0.00  0.00    +0.075 S 
ATOM     11  O   UNL     1      -0.610  -5.679   1.137  0.00  0.00    -0.150 OA
ATOM     12  O   UNL     1      -0.588  -5.271  -1.320  0.00  0.00    -0.150 OA
BRANCH  10  17
ATOM     13  C   UNL     1      -1.668   0.814   0.942  0.00  0.00    +0.044 C 
ATOM     14  C   UNL     1      -1.292  -0.626   0.706  0.00  0.00    -0.050 A 
ATOM     15  C   UNL     1      -1.009  -1.066  -0.573  0.00  0.00    +0.005 A 
ATOM     16  C   UNL     1      -0.664  -2.387  -0.789  0.00  0.00    +0.029 A 
ATOM     17  C   UNL     1      -0.604  -3.268   0.274  0.00  0.00    +0.109 A 
ATOM     18  C   UNL     1      -0.886  -2.828   1.554  0.00  0.00    +0.029 A 
ATOM     19  C   UNL     1      -1.226  -1.506   1.770  0.00  0.00    +0.005 A 
ENDBRANCH  10  17
ENDBRANCH   1  10
BRANCH   1  20
ATOM     20  C   UNL     1       2.203  -5.381   1.231  0.00  0.00    +0.161 C 
BRANCH  20  21
ATOM     21  C   UNL     1       2.524  -6.877   1.232  0.00  0.00    +0.117 C 
BRANCH  21  22
ATOM     22  O   UNL     1       3.450  -7.166   0.182  0.00  0.00    -0.392 OA
ATOM     23  H   UNL     1       4.312  -6.741   0.290  0.00  0.00    +0.210 HD
ENDBRANCH  21  22
BRANCH  21  24
ATOM     24  C   UNL     1       3.140  -7.266   2.577  0.00  0.00    -0.045 C 
BRANCH  24  25
ATOM     25  N   UNL     1       3.273  -8.727   2.651  0.00  0.00    +0.385 N 
ATOM     26  C   UNL     1       1.966  -9.348   2.405  0.00  0.00    -0.071 C 
ATOM     27  C   UNL     1       2.081 -10.866   2.561  0.00  0.00    -0.016 C 
ATOM     28  C   UNL     1       3.101 -11.401   1.551  0.00  0.00    -0.003 C 
ATOM     29  C   UNL     1       4.441 -10.692   1.769  0.00  0.00    -0.016 C 
ATOM     30  C   UNL     1       4.238  -9.181   1.642  0.00  0.00    -0.071 C 
ATOM     31  C   UNL     1       5.574  -8.468   1.859  0.00  0.00    -0.013 C 
ATOM     32  C   UNL     1       0.948  -8.809   3.413  0.00  0.00    -0.013 C 
ATOM     33  H   UNL     1       3.600  -8.988   3.569  0.00  0.00    -0.081 HD
ENDBRANCH  24  25
ENDBRANCH  21  24
ENDBRANCH  20  21
ENDBRANCH   1  20
TORSDOF 9
