REMARK  Name = ZINC09761644
REMARK  8 active torsions:
REMARK  status: ('A' for Active; 'I' for Inactive)
REMARK    1  A    between atoms: C_1  and  C_2
REMARK    2  A    between atoms: C_2  and  O_3
REMARK    3  A    between atoms: O_3  and  C_4
REMARK    4  A    between atoms: C_4  and  C_6
REMARK    5  A    between atoms: C_7  and  O_20
REMARK    6  A    between atoms: N_11  and  C_13
REMARK    7  A    between atoms: O_20  and  S_21
REMARK    8  A    between atoms: S_21  and  C_24
REMARK                            x       y       z     vdW  Elec       q    Type
REMARK                         _______ _______ _______ _____ _____    ______ ____
ROOT
ATOM      1  C   UNL     1       5.692  -0.173  -3.346  0.00  0.00    +0.213 A 
ATOM      2  C   UNL     1       4.976  -0.041  -2.073  0.00  0.00    +0.196 A 
ATOM      3  C   UNL     1       4.889   1.224  -1.518  0.00  0.00    +0.123 A 
ATOM      4  C   UNL     1       5.500   2.284  -2.207  0.00  0.00    +0.276 A 
ATOM      5  O   UNL     1       5.450   3.414  -1.750  0.00  0.00    -0.266 OA
ATOM      6  N   UNL     1       6.134   2.060  -3.370  0.00  0.00    -0.196 N 
ATOM      7  N   UNL     1       6.220   0.896  -3.902  0.00  0.00    -0.153 NA
ENDROOT
BRANCH   6   8
ATOM      8  C   UNL     1       6.724   3.143  -4.030  0.00  0.00    +0.069 A 
ATOM      9  C   UNL     1       5.997   4.307  -4.245  0.00  0.00    +0.031 A 
ATOM     10  C   UNL     1       6.584   5.377  -4.891  0.00  0.00    +0.040 A 
ATOM     11  C   UNL     1       7.893   5.286  -5.335  0.00  0.00    +0.124 A 
ATOM     12  C   UNL     1       8.618   4.124  -5.127  0.00  0.00    +0.040 A 
ATOM     13  C   UNL     1       8.037   3.054  -4.476  0.00  0.00    +0.031 A 
ATOM     14  F   UNL     1       8.463   6.332  -5.973  0.00  0.00    -0.205 F 
ENDBRANCH   6   8
BRANCH   1  15
ATOM     15  C   UNL     1       5.819  -1.491  -3.997  0.00  0.00    +0.363 C 
ATOM     16  O   UNL     1       5.329  -2.474  -3.478  0.00  0.00    -0.243 OA
BRANCH  15  17
ATOM     17  O   UNL     1       6.478  -1.604  -5.167  0.00  0.00    -0.460 OA
BRANCH  17  19
ATOM     18  C   UNL     1       7.342  -2.862  -7.065  0.00  0.00    +0.048 C 
ATOM     19  C   UNL     1       6.563  -2.932  -5.749  0.00  0.00    +0.229 C 
ENDBRANCH  17  19
ENDBRANCH  15  17
ENDBRANCH   1  15
BRANCH   2  20
ATOM     20  O   UNL     1       4.417  -1.115  -1.467  0.00  0.00    -0.340 OA
BRANCH  20  21
ATOM     21  S   UNL     1       3.606  -0.772  -0.225  0.00  0.00    +0.151 S 
ATOM     22  O   UNL     1       2.540   0.064  -0.654  0.00  0.00    -0.131 OA
ATOM     23  O   UNL     1       4.537  -0.369   0.770  0.00  0.00    -0.131 OA
BRANCH  21  24
ATOM     24  C   UNL     1       2.873  -2.268   0.347  0.00  0.00    +0.132 A 
ATOM     25  C   UNL     1       3.595  -3.124   1.159  0.00  0.00    +0.034 A 
ATOM     26  C   UNL     1       3.023  -4.299   1.610  0.00  0.00    +0.051 A 
ATOM     27  C   UNL     1       1.724  -4.623   1.248  0.00  0.00    +0.162 A 
ATOM     28  C   UNL     1       0.998  -3.762   0.434  0.00  0.00    +0.164 A 
ATOM     29  C   UNL     1       1.578  -2.585  -0.015  0.00  0.00    +0.080 A 
ATOM     30  O   UNL     1      -0.281  -4.057   0.074  0.00  0.00    -0.485 OA
ATOM     31  C   UNL     1      -0.698  -5.417   0.235  0.00  0.00    +0.270 C 
ATOM     32  C   UNL     1      -0.249  -5.897   1.622  0.00  0.00    +0.270 C 
ATOM     33  O   UNL     1       1.178  -5.787   1.693  0.00  0.00    -0.485 OA
ENDBRANCH  21  24
ENDBRANCH  20  21
ENDBRANCH   2  20
TORSDOF 7
