REMARK  Name = ZINC10041912
REMARK  11 active torsions:
REMARK  status: ('A' for Active; 'I' for Inactive)
REMARK    1  A    between atoms: C_1  and  C_2
REMARK    2  A    between atoms: C_2  and  C_3
REMARK    3  A    between atoms: C_2  and  C_4
REMARK    4  A    between atoms: C_4  and  C_6
REMARK    5  A    between atoms: C_4  and  N_27
REMARK    6  A    between atoms: N_8  and  N_9
REMARK    7  A    between atoms: C_10  and  C_11
REMARK    8  A    between atoms: C_16  and  O_17
REMARK    9  A    between atoms: O_17  and  C_18
REMARK   10  A    between atoms: C_18  and  C_19
REMARK   11  A    between atoms: C_28  and  C_30
REMARK                            x       y       z     vdW  Elec       q    Type
REMARK                         _______ _______ _______ _____ _____    ______ ____
ROOT
ATOM      1  C   UNL     1       3.518   7.501   0.046  0.00  0.00    +0.253 C 
ATOM      2  O   UNL     1       2.560   8.245   0.018  0.00  0.00    -0.272 OA
ATOM      3  N   UNL     1       3.336   6.166   0.001  0.00  0.00    -0.205 N 
ATOM      4  H   UNL     1       4.102   5.574  -0.052  0.00  0.00    +0.177 HD
ENDROOT
BRANCH   3   5
ATOM      5  N   UNL     1       2.040   5.635   0.033  0.00  0.00    -0.188 NA
ATOM      6  C   UNL     1       1.864   4.349  -0.011  0.00  0.00    +0.142 C 
BRANCH   6   7
ATOM      7  C   UNL     1       0.501   3.790   0.022  0.00  0.00    +0.036 A 
ATOM      8  C   UNL     1       0.308   2.408  -0.024  0.00  0.00    +0.013 A 
ATOM      9  C   UNL     1      -0.970   1.891   0.008  0.00  0.00    +0.001 A 
ATOM     10  C   UNL     1      -2.064   2.737   0.079  0.00  0.00    +0.004 A 
ATOM     11  C   UNL     1      -1.885   4.106   0.131  0.00  0.00    +0.046 A 
ATOM     12  C   UNL     1      -0.609   4.643   0.100  0.00  0.00    +0.130 A 
BRANCH  12  13
ATOM     13  O   UNL     1      -0.433   5.988   0.146  0.00  0.00    -0.482 OA
BRANCH  13  14
ATOM     14  C   UNL     1      -1.610   6.794   0.225  0.00  0.00    +0.324 C 
BRANCH  14  15
ATOM     15  C   UNL     1      -1.221   8.249   0.267  0.00  0.00    +0.253 C 
ATOM     16  O   UNL     1      -0.051   8.566   0.232  0.00  0.00    -0.272 OA
ATOM     17  N   UNL     1      -2.174   9.200   0.342  0.00  0.00    -0.294 N 
ATOM     18  C   UNL     1      -3.600   8.841   0.379  0.00  0.00    +0.136 C 
ATOM     19  C   UNL     1      -4.249   9.575   1.564  0.00  0.00    +0.179 C 
ATOM     20  O   UNL     1      -3.947  10.969   1.474  0.00  0.00    -0.377 OA
ATOM     21  C   UNL     1      -2.554  11.274   1.563  0.00  0.00    +0.179 C 
ATOM     22  C   UNL     1      -1.818  10.627   0.384  0.00  0.00    +0.136 C 
ENDBRANCH  14  15
ENDBRANCH  13  14
ENDBRANCH  12  13
ENDBRANCH   6   7
ENDBRANCH   3   5
BRANCH   1  23
ATOM     23  C   UNL     1       4.911   8.069   0.131  0.00  0.00    +0.163 C 
BRANCH  23  24
ATOM     24  N   UNL     1       4.867   9.373   0.797  0.00  0.00    -0.300 N 
ATOM     25  C   UNL     1       5.959   9.842   1.433  0.00  0.00    +0.245 C 
ATOM     26  O   UNL     1       6.980   9.183   1.454  0.00  0.00    -0.270 OA
ATOM     27  H   UNL     1       4.052   9.899   0.780  0.00  0.00    +0.150 HD
BRANCH  25  28
ATOM     28  C   UNL     1       5.915  11.158   2.105  0.00  0.00    +0.037 A 
ATOM     29  C   UNL     1       4.745  11.919   2.077  0.00  0.00    +0.014 A 
ATOM     30  C   UNL     1       4.708  13.143   2.712  0.00  0.00    +0.021 A 
ATOM     31  C   UNL     1       5.831  13.623   3.364  0.00  0.00    +0.041 A 
ATOM     32  C   UNL     1       6.997  12.874   3.389  0.00  0.00    +0.021 A 
ATOM     33  C   UNL     1       7.044  11.646   2.764  0.00  0.00    +0.014 A 
ATOM     34 CL   UNL     1       5.779  15.168   4.154  0.00  0.00    -0.084 Cl
ENDBRANCH  25  28
ENDBRANCH  23  24
BRANCH  23  36
ATOM     35  C   UNL     1       5.647   6.860  -1.928  0.00  0.00    +0.009 C 
ATOM     36  C   UNL     1       5.480   8.236  -1.280  0.00  0.00    +0.012 C 
ATOM     37  C   UNL     1       4.523   9.083  -2.119  0.00  0.00    +0.009 C 
ENDBRANCH  23  36
ENDBRANCH   1  23
TORSDOF 9
