REMARK  Name = ZINC59957412
REMARK  6 active torsions:
REMARK  status: ('A' for Active; 'I' for Inactive)
REMARK    1  A    between atoms: C_1  and  C_2
REMARK    2  A    between atoms: C_2  and  O_3
REMARK    3  A    between atoms: O_3  and  C_4
REMARK    4  A    between atoms: C_9  and  N_10
REMARK    5  A    between atoms: C_14  and  N_18
REMARK    6  A    between atoms: C_21  and  C_24
REMARK                            x       y       z     vdW  Elec       q    Type
REMARK                         _______ _______ _______ _____ _____    ______ ____
ROOT
ATOM      1  N   UNL     1      -3.904  -1.564   0.031  0.00  0.00    -0.208 N 
ATOM      2  C   UNL     1      -4.500  -1.131  -1.087  0.00  0.00    +0.225 C 
ATOM      3  O   UNL     1      -4.152  -1.398  -2.217  0.00  0.00    -0.275 OA
ATOM      4  C   UNL     1      -5.676  -0.255  -0.716  0.00  0.00    +0.090 C 
ATOM      5  C   UNL     1      -5.657  -0.257   0.826  0.00  0.00    +0.029 C 
ATOM      6  C   UNL     1      -4.475  -1.138   1.165  0.00  0.00    +0.213 C 
ATOM      7  O   UNL     1      -4.102  -1.413   2.285  0.00  0.00    -0.277 OA
ENDROOT
BRANCH   5   8
ATOM      8  N   UNL     1      -5.462   1.105   1.342  0.00  0.00    +0.388 N 
ATOM      9  C   UNL     1      -6.554   1.966   0.874  0.00  0.00    -0.077 C 
ATOM     10  C   UNL     1      -6.312   3.403   1.341  0.00  0.00    -0.011 C 
ATOM     11  C   UNL     1      -6.256   3.433   2.871  0.00  0.00    +0.016 C 
ATOM     12  C   UNL     1      -5.163   2.475   3.352  0.00  0.00    -0.011 C 
ATOM     13  C   UNL     1      -5.447   1.073   2.810  0.00  0.00    -0.077 C 
ATOM     14  H   UNL     1      -4.582   1.468   1.006  0.00  0.00    -0.081 HD
BRANCH  11  15
ATOM     15  C   UNL     1      -5.941   4.832   3.336  0.00  0.00    -0.044 A 
ATOM     16  C   UNL     1      -4.764   5.441   2.943  0.00  0.00    +0.007 A 
ATOM     17  C   UNL     1      -4.474   6.724   3.368  0.00  0.00    +0.038 A 
ATOM     18  C   UNL     1      -5.362   7.398   4.189  0.00  0.00    +0.123 A 
ATOM     19  C   UNL     1      -6.541   6.787   4.582  0.00  0.00    +0.038 A 
ATOM     20  C   UNL     1      -6.831   5.506   4.151  0.00  0.00    +0.007 A 
ATOM     21  F   UNL     1      -5.079   8.652   4.605  0.00  0.00    -0.205 F 
ENDBRANCH  11  15
ENDBRANCH   5   8
BRANCH   1  27
ATOM     22  C   UNL     1      -1.498  -1.849   0.006  0.00  0.00    +0.142 A 
ATOM     23  C   UNL     1      -0.389  -2.679  -0.003  0.00  0.00    +0.047 A 
ATOM     24  C   UNL     1      -0.553  -4.052  -0.008  0.00  0.00    +0.004 A 
ATOM     25  C   UNL     1      -1.823  -4.600  -0.005  0.00  0.00    +0.002 A 
ATOM     26  C   UNL     1      -2.934  -3.778   0.004  0.00  0.00    +0.027 A 
ATOM     27  C   UNL     1      -2.777  -2.400   0.016  0.00  0.00    +0.085 A 
BRANCH  22  28
ATOM     28  O   UNL     1      -1.339  -0.499   0.012  0.00  0.00    -0.490 OA
BRANCH  28  30
ATOM     29  C   UNL     1      -0.019   1.526   0.010  0.00  0.00    +0.048 C 
ATOM     30  C   UNL     1       0.002  -0.004   0.002  0.00  0.00    +0.226 C 
ENDBRANCH  28  30
ENDBRANCH  22  28
ENDBRANCH   1  27
TORSDOF 5
