REMARK  Name = ZINC05123609
REMARK  4 active torsions:
REMARK  status: ('A' for Active; 'I' for Inactive)
REMARK    1  A    between atoms: C_1  and  C_2
REMARK    2  A    between atoms: C_5  and  N_8
REMARK    3  A    between atoms: C_10  and  N_15
REMARK    4  A    between atoms: C_22  and  C_28
REMARK                            x       y       z     vdW  Elec       q    Type
REMARK                         _______ _______ _______ _____ _____    ______ ____
ROOT
ATOM      1  N   UNL     1      -0.801   0.636  -2.300  0.00  0.00    -0.294 N 
ATOM      2  C   UNL     1      -0.963   1.044  -3.575  0.00  0.00    +0.306 C 
ATOM      3  O   UNL     1      -1.108   2.226  -3.820  0.00  0.00    -0.252 OA
ATOM      4  N   UNL     1      -0.966   0.143  -4.576  0.00  0.00    -0.248 N 
ATOM      5  C   UNL     1      -1.133   0.562  -5.885  0.00  0.00    +0.167 A 
ATOM      6  N   UNL     1      -1.158  -0.157  -6.984  0.00  0.00    -0.224 NA
ATOM      7  C   UNL     1      -1.335   0.391  -8.206  0.00  0.00    +0.083 A 
ATOM      8  C   UNL     1      -1.385  -0.265  -9.457  0.00  0.00    -0.024 A 
ATOM      9  C   UNL     1      -1.567   0.447 -10.614  0.00  0.00    +0.005 A 
ATOM     10  C   UNL     1      -1.706   1.827 -10.602  0.00  0.00    +0.001 A 
ATOM     11  C   UNL     1      -1.662   2.501  -9.396  0.00  0.00    +0.017 A 
ATOM     12  C   UNL     1      -1.481   1.797  -8.232  0.00  0.00    +0.041 A 
ATOM     13  S   UNL     1      -1.361   2.221  -6.511  0.00  0.00    -0.052 S 
ATOM     14  C   UNL     1      -1.237  -1.764  -9.520  0.00  0.00    +0.046 C 
ATOM     15  H   UNL     1      -0.686  -0.307  -2.104  0.00  0.00    +0.151 HD
ATOM     16  H   UNL     1      -0.851  -0.800  -4.380  0.00  0.00    +0.158 HD
ENDROOT
BRANCH   1  19
ATOM     17  N   UNL     1      -0.737   1.577   1.186  0.00  0.00    -0.270 N 
ATOM     18  C   UNL     1      -0.013   1.086   0.008  0.00  0.00    +0.136 C 
ATOM     19  C   UNL     1      -0.798   1.617  -1.212  0.00  0.00    +0.101 C 
ATOM     20  C   UNL     1      -2.216   1.792  -0.622  0.00  0.00    +0.120 C 
ATOM     21  C   UNL     1      -1.981   1.975   0.862  0.00  0.00    +0.222 C 
ATOM     22  O   UNL     1      -2.795   2.417   1.645  0.00  0.00    -0.275 OA
BRANCH  17  27
ATOM     23  C   UNL     1       1.433   1.775   6.424  0.00  0.00    +0.044 C 
ATOM     24  C   UNL     1       0.857   1.722   5.033  0.00  0.00    -0.050 A 
ATOM     25  C   UNL     1      -0.436   2.156   4.805  0.00  0.00    +0.005 A 
ATOM     26  C   UNL     1      -0.967   2.109   3.531  0.00  0.00    +0.024 A 
ATOM     27  C   UNL     1      -0.201   1.626   2.478  0.00  0.00    +0.036 A 
ATOM     28  C   UNL     1       1.095   1.186   2.711  0.00  0.00    +0.024 A 
ATOM     29  C   UNL     1       1.622   1.240   3.987  0.00  0.00    +0.005 A 
ENDBRANCH  17  27
ENDBRANCH   1  19
TORSDOF 2
