REMARK  Name = ZINC09367956
REMARK  10 active torsions:
REMARK  status: ('A' for Active; 'I' for Inactive)
REMARK    1  A    between atoms: C_1  and  C_2
REMARK    2  A    between atoms: C_2  and  O_3
REMARK    3  A    between atoms: O_3  and  C_4
REMARK    4  A    between atoms: C_4  and  C_6
REMARK    5  A    between atoms: C_10  and  N_11
REMARK    6  A    between atoms: C_12  and  C_14
REMARK    7  A    between atoms: C_17  and  S_20
REMARK    8  A    between atoms: S_20  and  N_23
REMARK    9  A    between atoms: C_25  and  C_32
REMARK   10  A    between atoms: C_28  and  C_31
REMARK                            x       y       z     vdW  Elec       q    Type
REMARK                         _______ _______ _______ _____ _____    ______ ____
ROOT
ATOM      1  N   UNL     1      -1.118   2.572   0.022  0.00  0.00    -0.275 N 
ATOM      2  C   UNL     1      -2.364   2.060   0.026  0.00  0.00    +0.249 C 
ATOM      3  O   UNL     1      -2.526   0.855   0.020  0.00  0.00    -0.270 OA
ATOM      4  H   UNL     1      -0.989   3.534   0.026  0.00  0.00    +0.156 HD
ENDROOT
BRANCH   1   9
ATOM      5  C   UNL     1       1.324   2.060   0.001  0.00  0.00    +0.091 A 
ATOM      6  C   UNL     1       2.292   0.964  -0.015  0.00  0.00    -0.021 A 
ATOM      7  C   UNL     1       1.758  -0.271  -0.016  0.00  0.00    -0.004 A 
ATOM      8  S   UNL     1       0.002  -0.004   0.002  0.00  0.00    -0.077 S 
ATOM      9  C   UNL     1      -0.021   1.726   0.011  0.00  0.00    +0.087 A 
ATOM     10  C   UNL     1       2.814  -1.342  -0.029  0.00  0.00    +0.043 C 
ATOM     11  C   UNL     1       4.109  -0.618   0.401  0.00  0.00    +0.010 C 
ATOM     12  C   UNL     1       3.816   0.832  -0.033  0.00  0.00    +0.037 C 
BRANCH   5  13
ATOM     13  C   UNL     1       1.759   3.458   0.005  0.00  0.00    +0.342 C 
ATOM     14  O   UNL     1       1.951   4.032   1.060  0.00  0.00    -0.245 OA
BRANCH  13  15
ATOM     15  O   UNL     1       1.948   4.109  -1.161  0.00  0.00    -0.461 OA
BRANCH  15  17
ATOM     16  C   UNL     1       2.540   6.060  -2.493  0.00  0.00    +0.048 C 
ATOM     17  C   UNL     1       2.380   5.493  -1.081  0.00  0.00    +0.229 C 
ENDBRANCH  15  17
ENDBRANCH  13  15
ENDBRANCH   5  13
ENDBRANCH   1   9
BRANCH   2  18
ATOM     18  C   UNL     1      -3.534   2.962   0.036  0.00  0.00    +0.037 A 
ATOM     19  C   UNL     1      -3.352   4.346   0.048  0.00  0.00    +0.015 A 
ATOM     20  C   UNL     1      -4.449   5.184   0.052  0.00  0.00    +0.029 A 
ATOM     21  C   UNL     1      -5.727   4.654   0.056  0.00  0.00    +0.106 A 
ATOM     22  C   UNL     1      -5.915   3.283   0.050  0.00  0.00    +0.029 A 
ATOM     23  C   UNL     1      -4.827   2.435   0.040  0.00  0.00    +0.015 A 
BRANCH  21  24
ATOM     24  S   UNL     1      -7.122   5.730   0.070  0.00  0.00    +0.061 S 
ATOM     25  O   UNL     1      -6.686   6.967  -0.477  0.00  0.00    -0.153 OA
ATOM     26  O   UNL     1      -8.207   4.995  -0.479  0.00  0.00    -0.153 OA
BRANCH  24  27
ATOM     27  N   UNL     1      -7.501   6.021   1.655  0.00  0.00    -0.176 NA
ATOM     28  C   UNL     1      -8.449   5.155   2.370  0.00  0.00    +0.112 C 
ATOM     29  C   UNL     1      -7.778   4.655   3.658  0.00  0.00    +0.002 C 
ATOM     30  C   UNL     1      -7.289   5.855   4.471  0.00  0.00    +0.009 C 
ATOM     31  C   UNL     1      -6.251   6.634   3.659  0.00  0.00    +0.002 C 
ATOM     32  C   UNL     1      -6.900   7.154   2.373  0.00  0.00    +0.112 C 
ATOM     33  C   UNL     1      -5.738   7.815   4.486  0.00  0.00    +0.009 C 
ATOM     34  C   UNL     1      -6.590   3.759   3.304  0.00  0.00    +0.009 C 
ENDBRANCH  24  27
ENDBRANCH  21  24
ENDBRANCH   2  18
TORSDOF 7
