REMARK  Name = ZINC08790118
REMARK  7 active torsions:
REMARK  status: ('A' for Active; 'I' for Inactive)
REMARK    1  A    between atoms: C_1  and  C_2
REMARK    2  A    between atoms: C_16  and  C_18
REMARK    3  A    between atoms: C_18  and  C_19
REMARK    4  A    between atoms: C_22  and  O_25
REMARK    5  A    between atoms: N_28  and  C_31
REMARK    6  A    between atoms: C_31  and  C_32
REMARK    7  A    between atoms: C_32  and  C_33
REMARK                            x       y       z     vdW  Elec       q    Type
REMARK                         _______ _______ _______ _____ _____    ______ ____
ROOT
ATOM      1  C   UNL     1      -0.345   0.383   5.794  0.00  0.00    +0.047 C 
ATOM      2  C   UNL     1       0.188   1.210   4.653  0.00  0.00    -0.011 A 
ATOM      3  C   UNL     1       1.295   2.013   4.842  0.00  0.00    +0.046 A 
ATOM      4  C   UNL     1       1.791   2.776   3.800  0.00  0.00    +0.020 A 
ATOM      5  C   UNL     1       1.175   2.733   2.562  0.00  0.00    +0.006 A 
ATOM      6  C   UNL     1       0.071   1.933   2.368  0.00  0.00    -0.027 A 
ATOM      7  C   UNL     1      -0.438   1.163   3.410  0.00  0.00    +0.040 A 
ATOM      8  N   UNL     1      -1.554   0.443   2.976  0.00  0.00    -0.286 N 
ATOM      9  C   UNL     1      -1.839   0.679   1.681  0.00  0.00    +0.211 C 
ATOM     10  O   UNL     1      -2.748   0.195   1.040  0.00  0.00    -0.277 OA
ATOM     11  C   UNL     1      -0.812   1.659   1.185  0.00  0.00    +0.050 C 
ATOM     12  C   UNL     1      -0.013   1.086   0.008  0.00  0.00    +0.088 C 
ATOM     13  C   UNL     1      -0.672   1.688  -1.264  0.00  0.00    +0.073 C 
ATOM     14  C   UNL     1      -1.823   2.570  -0.734  0.00  0.00    -0.053 C 
ATOM     15  C   UNL     1       0.413   2.572  -1.835  0.00  0.00    +0.224 C 
ATOM     16  O   UNL     1       0.312   3.244  -2.839  0.00  0.00    -0.275 OA
ATOM     17  N   UNL     1       1.501   2.496  -1.061  0.00  0.00    -0.241 N 
ATOM     18  C   UNL     1       1.375   1.688  -0.002  0.00  0.00    +0.225 C 
ATOM     19  O   UNL     1       2.238   1.472   0.821  0.00  0.00    -0.275 OA
ATOM     20 CL   UNL     1       2.069   2.065   6.396  0.00  0.00    -0.083 Cl
ATOM     21  H   UNL     1      -2.064  -0.157   3.542  0.00  0.00    +0.155 HD
ATOM     22  N   UNL     1      -1.429   2.878   0.643  0.00  0.00    +0.394 N 
ATOM     23  H   UNL     1      -0.753   3.652   0.654  0.00  0.00    -0.083 HD
ATOM     24  H   UNL     1      -2.253   3.136   1.199  0.00  0.00    -0.083 HD
ENDROOT
BRANCH  14  25
ATOM     25  C   UNL     1      -1.950   3.841  -1.576  0.00  0.00    +0.020 C 
BRANCH  25  26
ATOM     26  C   UNL     1      -3.153   4.627  -1.121  0.00  0.00    -0.049 A 
ATOM     27  C   UNL     1      -4.386   4.401  -1.704  0.00  0.00    +0.007 A 
ATOM     28  C   UNL     1      -5.491   5.116  -1.284  0.00  0.00    +0.045 A 
ATOM     29  C   UNL     1      -5.361   6.069  -0.285  0.00  0.00    +0.117 A 
ATOM     30  C   UNL     1      -4.121   6.298   0.295  0.00  0.00    +0.045 A 
ATOM     31  C   UNL     1      -3.020   5.577  -0.124  0.00  0.00    +0.007 A 
BRANCH  29  32
ATOM     32  O   UNL     1      -6.445   6.777   0.126  0.00  0.00    -0.507 OA
ATOM     33  H   UNL     1      -6.588   7.598  -0.365  0.00  0.00    +0.292 HD
ENDBRANCH  29  32
ENDBRANCH  25  26
ENDBRANCH  14  25
BRANCH  17  34
ATOM     34  C   UNL     1       2.731   3.238  -1.349  0.00  0.00    +0.121 C 
BRANCH  34  35
ATOM     35  C   UNL     1       3.643   2.388  -2.236  0.00  0.00    +0.054 C 
BRANCH  35  36
ATOM     36  C   UNL     1       4.909   3.151  -2.533  0.00  0.00    -0.046 A 
ATOM     37  C   UNL     1       4.979   3.966  -3.647  0.00  0.00    +0.004 A 
ATOM     38  C   UNL     1       6.139   4.669  -3.916  0.00  0.00    +0.000 A 
ATOM     39  C   UNL     1       7.230   4.550  -3.076  0.00  0.00    +0.000 A 
ATOM     40  C   UNL     1       7.161   3.731  -1.965  0.00  0.00    +0.000 A 
ATOM     41  C   UNL     1       6.000   3.031  -1.693  0.00  0.00    +0.004 A 
ENDBRANCH  35  36
ENDBRANCH  34  35
ENDBRANCH  17  34
TORSDOF 6
