REMARK  Name = ZINC52682837
REMARK  7 active torsions:
REMARK  status: ('A' for Active; 'I' for Inactive)
REMARK    1  A    between atoms: C_1  and  C_2
REMARK    2  A    between atoms: C_6  and  C_7
REMARK    3  A    between atoms: C_7  and  N_8
REMARK    4  A    between atoms: C_9  and  C_11
REMARK    5  A    between atoms: N_13  and  C_14
REMARK    6  A    between atoms: C_18  and  N_21
REMARK    7  A    between atoms: C_19  and  C_20
REMARK                            x       y       z     vdW  Elec       q    Type
REMARK                         _______ _______ _______ _____ _____    ______ ____
ROOT
ATOM      1  C   UNL     1      -2.932   0.080   5.121  0.00  0.00    +0.303 C 
ATOM      2  O   UNL     1      -3.800  -0.658   4.704  0.00  0.00    -0.265 OA
ATOM      3  N   UNL     1      -3.235   1.032   6.026  0.00  0.00    -0.277 N 
ATOM      4  H   UNL     1      -2.529   1.569   6.420  0.00  0.00    +0.155 HD
ENDROOT
BRANCH   3   5
ATOM      5  C   UNL     1      -4.565   1.245   6.398  0.00  0.00    +0.038 A 
ATOM      6  C   UNL     1      -5.594   0.895   5.532  0.00  0.00    +0.024 A 
ATOM      7  C   UNL     1      -6.909   1.105   5.899  0.00  0.00    +0.004 A 
ATOM      8  C   UNL     1      -7.205   1.663   7.128  0.00  0.00    +0.024 A 
ATOM      9  C   UNL     1      -6.182   2.016   7.998  0.00  0.00    +0.041 A 
ATOM     10  C   UNL     1      -4.860   1.800   7.635  0.00  0.00    -0.008 A 
ATOM     11  C   UNL     1      -3.747   2.174   8.580  0.00  0.00    +0.047 C 
BRANCH   9  12
ATOM     12  N   UNL     1      -6.483   2.582   9.242  0.00  0.00    -0.271 N 
ATOM     13  C   UNL     1      -6.628   4.022   9.483  0.00  0.00    +0.114 C 
ATOM     14  C   UNL     1      -7.370   4.141  10.833  0.00  0.00    +0.029 C 
ATOM     15  C   UNL     1      -6.993   2.808  11.518  0.00  0.00    +0.098 C 
ATOM     16  C   UNL     1      -6.683   1.875  10.368  0.00  0.00    +0.220 C 
ATOM     17  O   UNL     1      -6.621   0.667  10.450  0.00  0.00    -0.275 OA
ENDBRANCH   9  12
ENDBRANCH   3   5
BRANCH   1  19
ATOM     18  N   UNL     1      -1.226  -1.017   3.726  0.00  0.00    -0.303 N 
ATOM     19  C   UNL     1      -1.528  -0.065   4.631  0.00  0.00    +0.300 C 
ATOM     20  O   UNL     1      -0.661   0.674   5.049  0.00  0.00    -0.265 OA
ATOM     21  H   UNL     1      -1.919  -1.607   3.393  0.00  0.00    +0.149 HD
BRANCH  18  22
ATOM     22  C   UNL     1       0.151  -1.159   3.246  0.00  0.00    +0.147 C 
BRANCH  22  28
ATOM     23  C   UNL     1      -0.238  -0.945   0.206  0.00  0.00    +0.044 C 
ATOM     24  C   UNL     1       0.058  -2.248   0.903  0.00  0.00    -0.039 A 
ATOM     25  C   UNL     1       0.173  -3.420   0.180  0.00  0.00    +0.011 A 
ATOM     26  C   UNL     1       0.440  -4.574   0.837  0.00  0.00    +0.046 A 
ATOM     27  S   UNL     1       0.537  -4.021   2.532  0.00  0.00    -0.100 S 
ATOM     28  C   UNL     1       0.221  -2.287   2.248  0.00  0.00    +0.010 A 
ENDBRANCH  22  28
ENDBRANCH  18  22
ENDBRANCH   1  19
TORSDOF 5
