REMARK  Name = ZINC37817566
REMARK  5 active torsions:
REMARK  status: ('A' for Active; 'I' for Inactive)
REMARK    1  A    between atoms: C_1  and  C_2
REMARK    2  A    between atoms: C_2  and  C_3
REMARK    3  A    between atoms: C_2  and  C_6
REMARK    4  A    between atoms: C_2  and  N_20
REMARK    5  A    between atoms: C_11  and  N_14
REMARK                            x       y       z     vdW  Elec       q    Type
REMARK                         _______ _______ _______ _____ _____    ______ ____
ROOT
ATOM      1  C   UNL     1      -1.426  -0.491   0.022  0.00  0.00    +0.204 C 
ATOM      2  O   UNL     1      -0.264  -0.145  -0.001  0.00  0.00    -0.277 OA
ATOM      3  N   UNL     1      -2.144  -0.515  -1.119  0.00  0.00    -0.302 N 
ATOM      4  C   UNL     1      -1.567  -0.021  -2.377  0.00  0.00    +0.109 C 
ATOM      5  C   UNL     1      -2.513   1.024  -2.976  0.00  0.00    +0.041 C 
ATOM      6  C   UNL     1      -3.911   0.418  -3.121  0.00  0.00    +0.081 C 
ATOM      7  C   UNL     1      -4.441   0.020  -1.741  0.00  0.00    +0.041 C 
ATOM      8  C   UNL     1      -3.515  -1.042  -1.129  0.00  0.00    +0.109 C 
ENDROOT
BRANCH   6   9
ATOM      9  N   UNL     1      -4.811   1.404  -3.724  0.00  0.00    -0.281 N 
ATOM     10  C   UNL     1      -5.539   1.230  -4.990  0.00  0.00    +0.128 C 
ATOM     11  C   UNL     1      -6.322   2.548  -5.148  0.00  0.00    +0.124 C 
ATOM     12  N   UNL     1      -5.952   3.324  -3.955  0.00  0.00    -0.298 N 
ATOM     13  C   UNL     1      -5.105   2.604  -3.208  0.00  0.00    +0.303 C 
ATOM     14  O   UNL     1      -4.641   3.006  -2.158  0.00  0.00    -0.253 OA
ATOM     15  H   UNL     1      -6.274   4.214  -3.741  0.00  0.00    +0.150 HD
ENDBRANCH   6   9
BRANCH   1  17
ATOM     16  C   UNL     1      -1.073  -0.684   2.469  0.00  0.00    -0.001 C 
ATOM     17  C   UNL     1      -2.068  -0.893   1.324  0.00  0.00    +0.007 C 
BRANCH  17  18
ATOM     18  N   UNL     1      -2.453  -2.309   1.263  0.00  0.00    +0.388 N 
ATOM     19  H   UNL     1      -2.958  -2.557   2.101  0.00  0.00    -0.089 HD
ATOM     20  H   UNL     1      -3.042  -2.463   0.458  0.00  0.00    -0.089 HD
ATOM     21  H   UNL     1      -1.625  -2.881   1.188  0.00  0.00    -0.089 HD
ENDBRANCH  17  18
BRANCH  17  22
ATOM     22  C   UNL     1      -3.311  -0.036   1.567  0.00  0.00    -0.014 C 
ATOM     23  C   UNL     1      -3.260   0.974   2.715  0.00  0.00    +0.003 C 
ATOM     24  C   UNL     1      -4.108  -0.292   2.848  0.00  0.00    +0.003 C 
ENDBRANCH  17  22
ENDBRANCH   1  17
TORSDOF 4
