REMARK  Name = ZINC09789205
REMARK  10 active torsions:
REMARK  status: ('A' for Active; 'I' for Inactive)
REMARK    1  A    between atoms: C_1  and  O_2
REMARK    2  A    between atoms: O_2  and  C_3
REMARK    3  A    between atoms: C_6  and  C_9
REMARK    4  A    between atoms: C_16  and  C_17
REMARK    5  A    between atoms: C_16  and  N_62
REMARK    6  A    between atoms: N_19  and  C_20
REMARK    7  A    between atoms: C_20  and  C_21
REMARK    8  A    between atoms: C_21  and  C_22
REMARK    9  A    between atoms: C_25  and  S_28
REMARK   10  A    between atoms: S_28  and  N_31
REMARK                            x       y       z     vdW  Elec       q    Type
REMARK                         _______ _______ _______ _____ _____    ______ ____
ROOT
ATOM      1  C   UNL     1      -2.397   3.536   3.053  0.00  0.00    +0.196 C 
ATOM      2  O   UNL     1      -2.758   4.685   2.912  0.00  0.00    -0.278 OA
ATOM      3  N   UNL     1      -1.645   3.192   4.117  0.00  0.00    -0.317 N 
ATOM      4  H   UNL     1      -1.356   2.272   4.230  0.00  0.00    +0.149 HD
ENDROOT
BRANCH   1   5
ATOM      5  C   UNL     1      -2.787   2.493   2.037  0.00  0.00    +0.019 C 
BRANCH   5  12
ATOM      6  C   UNL     1      -3.024   4.128   0.256  0.00  0.00    -0.037 C 
ATOM      7  C   UNL     1      -3.621   4.314  -1.061  0.00  0.00    -0.011 C 
ATOM      8  C   UNL     1      -5.095   4.768  -0.958  0.00  0.00    -0.001 C 
ATOM      9  C   UNL     1      -5.947   3.577  -0.614  0.00  0.00    -0.002 C 
ATOM     10  C   UNL     1      -6.153   3.401   0.905  0.00  0.00    -0.019 C 
ATOM     11  C   UNL     1      -4.860   3.655   1.703  0.00  0.00    -0.077 C 
ATOM     12  N   UNL     1      -3.713   3.076   1.040  0.00  0.00    +0.390 N 
ATOM     13  H   UNL     1      -4.030   2.335   0.404  0.00  0.00    -0.080 HD
BRANCH   6  17
ATOM     14  C   UNL     1       1.076   3.028  -0.236  0.00  0.00    +0.120 A 
ATOM     15  C   UNL     1       0.072   2.180  -0.678  0.00  0.00    +0.046 A 
ATOM     16  C   UNL     1      -1.253   2.540  -0.523  0.00  0.00    +0.005 A 
ATOM     17  C   UNL     1      -1.578   3.740   0.083  0.00  0.00    -0.061 A 
ATOM     18  C   UNL     1      -0.578   4.587   0.524  0.00  0.00    +0.005 A 
ATOM     19  C   UNL     1       0.748   4.234   0.366  0.00  0.00    +0.046 A 
BRANCH  14  21
ATOM     20  C   UNL     1       3.361   3.600   0.087  0.00  0.00    +0.277 C 
ATOM     21  O   UNL     1       2.380   2.678  -0.392  0.00  0.00    -0.495 OA
ENDBRANCH  14  21
ENDBRANCH   6  17
ENDBRANCH   5  12
ENDBRANCH   1   5
BRANCH   3  22
ATOM     22  C   UNL     1      -1.266   4.205   5.105  0.00  0.00    +0.109 C 
BRANCH  22  23
ATOM     23  C   UNL     1      -0.421   3.556   6.203  0.00  0.00    +0.054 C 
BRANCH  23  24
ATOM     24  C   UNL     1      -0.031   4.599   7.219  0.00  0.00    -0.046 A 
ATOM     25  C   UNL     1       1.145   5.309   7.063  0.00  0.00    +0.005 A 
ATOM     26  C   UNL     1       1.500   6.269   7.992  0.00  0.00    +0.029 A 
ATOM     27  C   UNL     1       0.685   6.511   9.082  0.00  0.00    +0.105 A 
ATOM     28  C   UNL     1      -0.488   5.797   9.241  0.00  0.00    +0.029 A 
ATOM     29  C   UNL     1      -0.846   4.841   8.309  0.00  0.00    +0.005 A 
BRANCH  27  30
ATOM     30  S   UNL     1       1.141   7.731  10.269  0.00  0.00    +0.056 S 
ATOM     31  O   UNL     1       2.009   8.640   9.605  0.00  0.00    -0.153 OA
ATOM     32  O   UNL     1      -0.060   8.150  10.903  0.00  0.00    -0.153 OA
BRANCH  30  33
ATOM     33  N   UNL     1       2.048   6.972  11.428  0.00  0.00    -0.204 NA
ATOM     34  H   UNL     1       2.229   6.022  11.357  0.00  0.00    +0.144 HD
ATOM     35  H   UNL     1       2.399   7.478  12.178  0.00  0.00    +0.144 HD
ENDBRANCH  30  33
ENDBRANCH  27  30
ENDBRANCH  23  24
ENDBRANCH  22  23
ENDBRANCH   3  22
TORSDOF 9
