REMARK  Name = ZINC08951822
REMARK  8 active torsions:
REMARK  status: ('A' for Active; 'I' for Inactive)
REMARK    1  A    between atoms: C_1  and  C_2
REMARK    2  A    between atoms: C_2  and  C_3
REMARK    3  A    between atoms: C_3  and  C_4
REMARK    4  A    between atoms: C_4  and  N_52
REMARK    5  A    between atoms: C_5  and  N_52
REMARK    6  A    between atoms: N_15  and  C_16
REMARK    7  A    between atoms: C_21  and  C_26
REMARK    8  A    between atoms: C_23  and  C_25
REMARK                            x       y       z     vdW  Elec       q    Type
REMARK                         _______ _______ _______ _____ _____    ______ ____
ROOT
ATOM      1  C   UNL     1      -1.168   0.804   0.671  0.00  0.00    +0.051 C 
ATOM      2  C   UNL     1      -2.164   1.597  -0.137  0.00  0.00    -0.032 A 
ATOM      3  C   UNL     1      -2.822   1.356  -1.321  0.00  0.00    +0.004 A 
ATOM      4  C   UNL     1      -3.702   2.298  -1.827  0.00  0.00    +0.000 A 
ATOM      5  C   UNL     1      -3.922   3.482  -1.145  0.00  0.00    +0.001 A 
ATOM      6  C   UNL     1      -3.268   3.733   0.042  0.00  0.00    +0.013 A 
ATOM      7  C   UNL     1      -2.379   2.788   0.559  0.00  0.00    +0.040 A 
ATOM      8  C   UNL     1      -1.548   2.768   1.778  0.00  0.00    +0.246 C 
ATOM      9  O   UNL     1      -1.504   3.659   2.604  0.00  0.00    -0.270 OA
ATOM     10  N   UNL     1      -0.846   1.622   1.846  0.00  0.00    -0.304 N 
ENDROOT
BRANCH  10  11
ATOM     11  C   UNL     1       0.085   1.251   2.914  0.00  0.00    +0.078 C 
ATOM     12  C   UNL     1      -0.590   1.456   4.272  0.00  0.00    +0.023 C 
ATOM     13  C   UNL     1       0.382   1.069   5.388  0.00  0.00    +0.002 C 
ATOM     14  C   UNL     1       1.632   1.947   5.303  0.00  0.00    +0.003 C 
ATOM     15  C   UNL     1       2.307   1.742   3.945  0.00  0.00    -0.009 C 
ATOM     16  C   UNL     1       1.335   2.129   2.829  0.00  0.00    +0.009 C 
ATOM     17  C   UNL     1       0.938   3.598   2.985  0.00  0.00    +0.009 C 
ATOM     18  C   UNL     1       3.558   2.620   3.860  0.00  0.00    +0.008 C 
ENDBRANCH  10  11
BRANCH   1  19
ATOM     19  N   UNL     1       0.049   0.567  -0.129  0.00  0.00    +0.394 N 
ATOM     20  H   UNL     1      -0.196   0.568  -1.126  0.00  0.00    -0.083 HD
ATOM     21  H   UNL     1       0.728   1.313   0.058  0.00  0.00    -0.083 HD
BRANCH  19  22
ATOM     22  C   UNL     1       0.647  -0.735   0.223  0.00  0.00    -0.079 C 
BRANCH  22  23
ATOM     23  C   UNL     1       1.987  -0.882  -0.501  0.00  0.00    -0.019 C 
BRANCH  23  25
ATOM     24  C   UNL     1       3.955  -2.378  -0.866  0.00  0.00    +0.004 C 
ATOM     25  C   UNL     1       2.615  -2.231  -0.142  0.00  0.00    -0.005 C 
ENDBRANCH  23  25
ENDBRANCH  22  23
ENDBRANCH  19  22
ENDBRANCH   1  19
TORSDOF 5
