REMARK  Name = ZINC57334405
REMARK  9 active torsions:
REMARK  status: ('A' for Active; 'I' for Inactive)
REMARK    1  A    between atoms: C_1  and  C_2
REMARK    2  A    between atoms: C_2  and  C_3
REMARK    3  A    between atoms: C_3  and  C_4
REMARK    4  A    between atoms: C_10  and  C_12
REMARK    5  A    between atoms: C_15  and  N_19
REMARK    6  A    between atoms: C_16  and  C_18
REMARK    7  A    between atoms: C_20  and  C_22
REMARK    8  A    between atoms: C_22  and  N_23
REMARK    9  A    between atoms: C_28  and  C_30
REMARK                            x       y       z     vdW  Elec       q    Type
REMARK                         _______ _______ _______ _____ _____    ______ ____
ROOT
ATOM      1  C   UNL     1      -1.368  -3.915   4.732  0.00  0.00    +0.009 A 
ATOM      2  C   UNL     1      -1.379  -2.759   5.515  0.00  0.00    +0.012 A 
ATOM      3  C   UNL     1      -1.356  -2.860   6.889  0.00  0.00    +0.024 A 
ATOM      4  C   UNL     1      -1.323  -4.110   7.495  0.00  0.00    +0.036 A 
ATOM      5  C   UNL     1      -1.311  -5.263   6.718  0.00  0.00    -0.029 A 
ATOM      6  C   UNL     1      -1.340  -5.169   5.343  0.00  0.00    +0.015 A 
ATOM      7  C   UNL     1      -1.274  -6.616   7.379  0.00  0.00    +0.045 C 
ENDROOT
BRANCH   1  14
ATOM      8  C   UNL     1      -1.467  -2.005   0.014  0.00  0.00    +0.156 A 
ATOM      9  N   UNL     1      -1.466  -2.761  -1.048  0.00  0.00    -0.132 NA
ATOM     10  N   UNL     1      -1.445  -4.003  -0.706  0.00  0.00    -0.120 NA
ATOM     11  C   UNL     1      -1.430  -4.092   0.590  0.00  0.00    +0.218 A 
ATOM     12  N   UNL     1      -1.438  -2.826   1.123  0.00  0.00    -0.190 N 
ATOM     13  N   UNL     1      -1.418  -2.737   2.508  0.00  0.00    -0.156 NA
ATOM     14  C   UNL     1      -1.391  -3.810   3.256  0.00  0.00    +0.132 A 
ATOM     15  S   UNL     1      -1.401  -5.117   2.039  0.00  0.00    -0.026 S 
BRANCH   8  16
ATOM     16  C   UNL     1      -1.488  -0.498   0.029  0.00  0.00    +0.078 C 
BRANCH  16  18
ATOM     17  C   UNL     1      -0.075   1.562   0.026  0.00  0.00    +0.004 C 
ATOM     18  C   UNL     1      -0.053   0.032   0.011  0.00  0.00    +0.004 C 
ENDBRANCH  16  18
ENDBRANCH   8  16
ENDBRANCH   1  14
BRANCH   4  19
ATOM     19  N   UNL     1      -1.300  -4.209   8.889  0.00  0.00    -0.287 N 
ATOM     20  C   UNL     1      -0.641  -3.287   9.619  0.00  0.00    +0.201 C 
ATOM     21  O   UNL     1      -0.137  -2.328   9.073  0.00  0.00    -0.278 OA
ATOM     22  H   UNL     1      -1.758  -4.941   9.331  0.00  0.00    +0.155 HD
BRANCH  20  23
ATOM     23  C   UNL     1      -0.529  -3.449  11.113  0.00  0.00    +0.019 C 
BRANCH  23  24
ATOM     24  N   UNL     1       0.230  -2.322  11.672  0.00  0.00    +0.387 N 
ATOM     25  C   UNL     1      -0.519  -1.077  11.462  0.00  0.00    -0.078 C 
ATOM     26  C   UNL     1       0.303   0.109  11.970  0.00  0.00    -0.019 C 
ATOM     27  C   UNL     1       0.584  -0.074  13.464  0.00  0.00    -0.003 C 
ATOM     28  C   UNL     1       1.300  -1.410  13.679  0.00  0.00    -0.016 C 
ATOM     29  C   UNL     1       0.441  -2.540  13.108  0.00  0.00    -0.071 C 
ATOM     30  C   UNL     1       1.152  -3.878  13.321  0.00  0.00    -0.013 C 
ATOM     31  H   UNL     1       1.123  -2.257  11.208  0.00  0.00    -0.081 HD
ENDBRANCH  23  24
ENDBRANCH  20  23
ENDBRANCH   4  19
TORSDOF 6
