REMARK  Name = ZINC36637270
REMARK  15 active torsions:
REMARK  status: ('A' for Active; 'I' for Inactive)
REMARK    1  A    between atoms: C_1  and  C_2
REMARK    2  A    between atoms: N_11  and  C_12
REMARK    3  A    between atoms: C_12  and  C_13
REMARK    4  A    between atoms: C_13  and  N_14
REMARK    5  A    between atoms: N_14  and  C_15
REMARK    6  A    between atoms: N_14  and  C_16
REMARK    7  A    between atoms: C_17  and  C_19
REMARK    8  A    between atoms: C_22  and  S_25
REMARK    9  A    between atoms: S_25  and  N_28
REMARK   10  A    between atoms: N_28  and  C_29
REMARK   11  A    between atoms: N_28  and  C_33
REMARK   12  A    between atoms: C_29  and  C_30
REMARK   13  A    between atoms: C_30  and  C_31
REMARK   14  A    between atoms: C_33  and  C_34
REMARK   15  A    between atoms: C_34  and  C_35
REMARK                            x       y       z     vdW  Elec       q    Type
REMARK                         _______ _______ _______ _____ _____    ______ ____
ROOT
ATOM      1  C   UNL     1       0.924   1.495   1.257  0.00  0.00    +0.044 C 
ATOM      2  C   UNL     1       0.695   0.020   1.050  0.00  0.00    -0.049 A 
ATOM      3  C   UNL     1       0.498  -0.486  -0.227  0.00  0.00    +0.005 A 
ATOM      4  C   UNL     1       0.288  -1.823  -0.443  0.00  0.00    +0.029 A 
ATOM      5  C   UNL     1       0.265  -2.734   0.638  0.00  0.00    +0.080 A 
ATOM      6  C   UNL     1       0.469  -2.183   1.924  0.00  0.00    +0.041 A 
ATOM      7  C   UNL     1       0.684  -0.843   2.130  0.00  0.00    +0.020 A 
ATOM      8  S   UNL     1       0.369  -3.616   2.970  0.00  0.00    -0.052 S 
ATOM      9  C   UNL     1       0.072  -4.816   1.679  0.00  0.00    +0.168 A 
ATOM     10  N   UNL     1       0.072  -4.071   0.599  0.00  0.00    -0.224 NA
ATOM     11  N   UNL     1      -0.110  -6.184   1.791  0.00  0.00    -0.248 N 
ATOM     12  C   UNL     1      -0.075  -6.771   3.003  0.00  0.00    +0.252 C 
ATOM     13  O   UNL     1       0.044  -6.093   4.005  0.00  0.00    -0.270 OA
ENDROOT
BRANCH  12  14
ATOM     14  C   UNL     1      -0.180  -8.241   3.115  0.00  0.00    +0.037 A 
ATOM     15  C   UNL     1       0.463  -9.063   2.188  0.00  0.00    +0.015 A 
ATOM     16  C   UNL     1       0.361 -10.434   2.298  0.00  0.00    +0.029 A 
ATOM     17  C   UNL     1      -0.378 -10.996   3.324  0.00  0.00    +0.106 A 
ATOM     18  C   UNL     1      -1.019 -10.187   4.246  0.00  0.00    +0.029 A 
ATOM     19  C   UNL     1      -0.920  -8.815   4.151  0.00  0.00    +0.015 A 
BRANCH  17  20
ATOM     20  S   UNL     1      -0.505 -12.748   3.457  0.00  0.00    +0.061 S 
ATOM     21  O   UNL     1      -1.698 -13.016   4.180  0.00  0.00    -0.153 OA
ATOM     22  O   UNL     1      -0.267 -13.272   2.158  0.00  0.00    -0.153 OA
BRANCH  20  23
ATOM     23  N   UNL     1       0.750 -13.259   4.410  0.00  0.00    -0.175 NA
BRANCH  23  24
ATOM     24  C   UNL     1       0.576 -13.354   5.861  0.00  0.00    +0.124 C 
BRANCH  24  25
ATOM     25  C   UNL     1       0.189 -14.786   6.236  0.00  0.00    +0.135 C 
BRANCH  25  26
ATOM     26  C   UNL     1       0.014 -14.882   7.694  0.00  0.00    +0.064 C 
ATOM     27  N   UNL     1      -0.121 -14.956   8.819  0.00  0.00    -0.197 NA
ENDBRANCH  25  26
ENDBRANCH  24  25
ENDBRANCH  23  24
BRANCH  23  28
ATOM     28  C   UNL     1       2.034 -13.615   3.801  0.00  0.00    +0.124 C 
BRANCH  28  29
ATOM     29  C   UNL     1       2.972 -12.407   3.845  0.00  0.00    +0.135 C 
BRANCH  29  30
ATOM     30  C   UNL     1       4.262 -12.765   3.234  0.00  0.00    +0.064 C 
ATOM     31  N   UNL     1       5.258 -13.042   2.762  0.00  0.00    -0.197 NA
ENDBRANCH  29  30
ENDBRANCH  28  29
ENDBRANCH  23  28
ENDBRANCH  20  23
ENDBRANCH  17  20
ENDBRANCH  12  14
BRANCH  11  32
ATOM     32  C   UNL     1      -0.342  -6.992   0.591  0.00  0.00    +0.097 C 
BRANCH  32  33
ATOM     33  C   UNL     1       0.969  -7.143  -0.183  0.00  0.00    -0.060 C 
BRANCH  33  34
ATOM     34  N   UNL     1       0.771  -8.069  -1.306  0.00  0.00    +0.377 N 
ATOM     35  C   UNL     1      -0.180  -7.486  -2.261  0.00  0.00    -0.097 C 
ATOM     36  C   UNL     1       2.055  -8.307  -1.977  0.00  0.00    -0.097 C 
ATOM     37  H   UNL     1       0.405  -8.944  -0.959  0.00  0.00    -0.083 HD
ENDBRANCH  33  34
ENDBRANCH  32  33
ENDBRANCH  11  32
TORSDOF 12
