REMARK  Name = ZINC36080286
REMARK  14 active torsions:
REMARK  status: ('A' for Active; 'I' for Inactive)
REMARK    1  A    between atoms: C_1  and  C_2
REMARK    2  A    between atoms: C_2  and  O_3
REMARK    3  A    between atoms: O_3  and  C_4
REMARK    4  A    between atoms: C_4  and  C_6
REMARK    5  A    between atoms: C_7  and  C_24
REMARK    6  A    between atoms: C_12  and  C_14
REMARK    7  A    between atoms: C_17  and  O_20
REMARK    8  A    between atoms: O_20  and  C_21
REMARK    9  A    between atoms: C_21  and  C_22
REMARK   10  A    between atoms: C_21  and  C_23
REMARK   11  A    between atoms: C_24  and  N_25
REMARK   12  A    between atoms: N_28  and  C_33
REMARK   13  A    between atoms: C_29  and  C_32
REMARK   14  A    between atoms: C_37  and  C_39
REMARK                            x       y       z     vdW  Elec       q    Type
REMARK                         _______ _______ _______ _____ _____    ______ ____
ROOT
ATOM      1  C   UNL     1       0.539  -2.737  -3.393  0.00  0.00    +0.079 C 
ATOM      2  C   UNL     1       1.272  -3.817  -3.044  0.00  0.00    +0.038 C 
ATOM      3  N   UNL     1       2.020  -4.489  -3.968  0.00  0.00    -0.271 N 
ATOM      4  C   UNL     1       2.090  -4.144  -5.260  0.00  0.00    +0.304 C 
ATOM      5  O   UNL     1       2.784  -4.804  -6.008  0.00  0.00    -0.252 OA
ATOM      6  N   UNL     1       1.415  -3.089  -5.758  0.00  0.00    -0.288 N 
ATOM      7  C   UNL     1       0.572  -2.300  -4.843  0.00  0.00    +0.144 C 
ATOM      8  H   UNL     1       2.530  -5.258  -3.672  0.00  0.00    +0.156 HD
ATOM      9  H   UNL     1       1.480  -2.857  -6.698  0.00  0.00    +0.151 HD
ENDROOT
BRANCH   7  10
ATOM     10  C   UNL     1      -0.841  -2.325  -5.368  0.00  0.00    -0.022 A 
ATOM     11  C   UNL     1      -1.414  -3.524  -5.751  0.00  0.00    +0.009 A 
ATOM     12  C   UNL     1      -2.708  -3.549  -6.232  0.00  0.00    +0.046 A 
ATOM     13  C   UNL     1      -3.434  -2.370  -6.331  0.00  0.00    +0.121 A 
ATOM     14  C   UNL     1      -2.857  -1.169  -5.945  0.00  0.00    +0.046 A 
ATOM     15  C   UNL     1      -1.563  -1.150  -5.460  0.00  0.00    +0.009 A 
BRANCH  13  16
ATOM     16  O   UNL     1      -4.707  -2.392  -6.805  0.00  0.00    -0.489 OA
BRANCH  16  17
ATOM     17  C   UNL     1      -5.192  -3.640  -7.304  0.00  0.00    +0.167 C 
ATOM     18  C   UNL     1      -5.778  -4.458  -6.152  0.00  0.00    +0.051 C 
ATOM     19  C   UNL     1      -6.278  -3.383  -8.351  0.00  0.00    +0.051 C 
ENDBRANCH  16  17
ENDBRANCH  13  16
ENDBRANCH   7  10
BRANCH   1  20
ATOM     20  C   UNL     1      -0.237  -2.040  -2.437  0.00  0.00    +0.339 C 
ATOM     21  O   UNL     1      -1.433  -2.249  -2.355  0.00  0.00    -0.245 OA
BRANCH  20  22
ATOM     22  O   UNL     1       0.349  -1.144  -1.616  0.00  0.00    -0.462 OA
BRANCH  22  24
ATOM     23  C   UNL     1       0.341   0.493   0.162  0.00  0.00    +0.048 C 
ATOM     24  C   UNL     1      -0.495  -0.477  -0.675  0.00  0.00    +0.229 C 
ENDBRANCH  22  24
ENDBRANCH  20  22
ENDBRANCH   1  20
BRANCH   2  25
ATOM     25  C   UNL     1       1.263  -4.287  -1.613  0.00  0.00    +0.136 C 
BRANCH  25  26
ATOM     26  N   UNL     1       0.707  -5.645  -1.547  0.00  0.00    -0.294 NA
ATOM     27  C   UNL     1      -0.711  -5.652  -1.933  0.00  0.00    +0.103 C 
ATOM     28  C   UNL     1      -1.204  -7.100  -2.027  0.00  0.00    +0.121 C 
ATOM     29  N   UNL     1      -0.902  -7.780  -0.758  0.00  0.00    -0.325 N 
ATOM     30  C   UNL     1       0.471  -7.700  -0.236  0.00  0.00    +0.084 C 
ATOM     31  C   UNL     1       0.898  -6.229  -0.213  0.00  0.00    +0.107 C 
ATOM     32  C   UNL     1       0.516  -8.276   1.181  0.00  0.00    +0.029 C 
BRANCH  29  33
ATOM     33  C   UNL     1      -1.892  -8.482  -0.068  0.00  0.00    +0.030 A 
ATOM     34  C   UNL     1      -2.827  -7.796   0.697  0.00  0.00    +0.023 A 
ATOM     35  C   UNL     1      -3.805  -8.493   1.379  0.00  0.00    +0.002 A 
ATOM     36  C   UNL     1      -3.854  -9.873   1.301  0.00  0.00    +0.003 A 
ATOM     37  C   UNL     1      -2.925 -10.559   0.541  0.00  0.00    -0.049 A 
ATOM     38  C   UNL     1      -1.948  -9.867  -0.148  0.00  0.00    +0.026 A 
ATOM     39  C   UNL     1      -2.981 -12.063   0.459  0.00  0.00    +0.044 C 
ENDBRANCH  29  33
ENDBRANCH  25  26
ENDBRANCH   2  25
TORSDOF 9
