REMARK  Name = ZINC39666787
REMARK  11 active torsions:
REMARK  status: ('A' for Active; 'I' for Inactive)
REMARK    1  A    between atoms: C_1  and  C_2
REMARK    2  A    between atoms: C_2  and  C_3
REMARK    3  A    between atoms: C_3  and  C_4
REMARK    4  A    between atoms: C_3  and  C_6
REMARK    5  A    between atoms: C_4  and  C_5
REMARK    6  A    between atoms: C_6  and  N_7
REMARK    7  A    between atoms: C_8  and  C_10
REMARK    8  A    between atoms: C_21  and  C_23
REMARK    9  A    between atoms: C_28  and  O_29
REMARK   10  A    between atoms: O_29  and  C_30
REMARK   11  A    between atoms: C_30  and  C_31
REMARK                            x       y       z     vdW  Elec       q    Type
REMARK                         _______ _______ _______ _____ _____    ______ ____
ROOT
ATOM      1  C   UNL     1      -0.544  -4.235   3.559  0.00  0.00    +0.100 C 
ATOM      2  C   UNL     1       0.921  -3.790   3.764  0.00  0.00    +0.121 C 
ATOM      3  N   UNL     1       1.511  -4.834   4.634  0.00  0.00    -0.296 N 
ATOM      4  C   UNL     1       0.931  -6.103   4.132  0.00  0.00    +0.115 C 
ATOM      5  C   UNL     1      -0.533  -5.754   3.800  0.00  0.00    -0.004 C 
ATOM      6  C   UNL     1      -0.979  -6.492   2.542  0.00  0.00    -0.010 C 
ATOM      7  C   UNL     1      -1.016  -7.997   2.825  0.00  0.00    -0.082 C 
ATOM      8  N   UNL     1      -1.944  -8.266   3.929  0.00  0.00    +0.379 N 
ATOM      9  C   UNL     1      -1.458  -7.629   5.159  0.00  0.00    -0.082 C 
ATOM     10  C   UNL     1      -1.440  -6.109   4.975  0.00  0.00    -0.010 C 
ATOM     11  C   UNL     1       2.379  -4.668   5.652  0.00  0.00    +0.250 C 
ATOM     12  O   UNL     1       2.690  -3.548   6.009  0.00  0.00    -0.270 OA
ATOM     13  H   UNL     1      -2.855  -7.899   3.698  0.00  0.00    -0.086 HD
ATOM     14  H   UNL     1      -2.013  -9.263   4.073  0.00  0.00    -0.086 HD
ENDROOT
BRANCH  11  15
ATOM     15  C   UNL     1       2.951  -5.845   6.333  0.00  0.00    +0.078 A 
ATOM     16  C   UNL     1       3.236  -7.006   5.610  0.00  0.00    +0.017 A 
ATOM     17  C   UNL     1       3.771  -8.101   6.252  0.00  0.00    +0.001 A 
ATOM     18  C   UNL     1       4.026  -8.058   7.613  0.00  0.00    +0.004 A 
ATOM     19  C   UNL     1       3.749  -6.918   8.340  0.00  0.00    +0.046 A 
ATOM     20  C   UNL     1       3.216  -5.803   7.709  0.00  0.00    +0.133 A 
BRANCH  20  21
ATOM     21  O   UNL     1       2.948  -4.680   8.421  0.00  0.00    -0.491 OA
BRANCH  21  22
ATOM     22  C   UNL     1       3.244  -4.712   9.818  0.00  0.00    +0.226 C 
ATOM     23  C   UNL     1       2.877  -3.366  10.448  0.00  0.00    +0.048 C 
ENDBRANCH  21  22
ENDBRANCH  20  21
ENDBRANCH  11  15
BRANCH   1  25
ATOM     24  N   UNL     1      -2.287  -3.648   1.904  0.00  0.00    -0.315 N 
ATOM     25  C   UNL     1      -0.993  -3.930   2.152  0.00  0.00    +0.218 C 
ATOM     26  O   UNL     1      -0.189  -3.939   1.244  0.00  0.00    -0.275 OA
ATOM     27  H   UNL     1      -2.930  -3.641   2.631  0.00  0.00    +0.149 HD
BRANCH  24  28
ATOM     28  C   UNL     1      -2.723  -3.353   0.537  0.00  0.00    +0.107 C 
BRANCH  28  29
ATOM     29  C   UNL     1      -4.227  -3.069   0.532  0.00  0.00    +0.006 C 
BRANCH  29  31
ATOM     30  C   UNL     1      -6.020  -1.591   1.448  0.00  0.00    +0.004 C 
ATOM     31  C   UNL     1      -4.508  -1.795   1.331  0.00  0.00    +0.002 C 
ENDBRANCH  29  31
BRANCH  29  32
ATOM     32  C   UNL     1      -4.705  -2.883  -0.909  0.00  0.00    +0.002 C 
ATOM     33  C   UNL     1      -4.555  -4.201  -1.671  0.00  0.00    +0.004 C 
ENDBRANCH  29  32
ENDBRANCH  28  29
ENDBRANCH  24  28
ENDBRANCH   1  25
TORSDOF 8
