REMARK  Name = ZINC43213447
REMARK  10 active torsions:
REMARK  status: ('A' for Active; 'I' for Inactive)
REMARK    1  A    between atoms: C_1  and  O_2
REMARK    2  A    between atoms: O_2  and  C_3
REMARK    3  A    between atoms: C_3  and  C_5
REMARK    4  A    between atoms: C_5  and  C_7
REMARK    5  A    between atoms: C_5  and  N_13
REMARK    6  A    between atoms: C_14  and  C_16
REMARK    7  A    between atoms: C_19  and  C_21
REMARK    8  A    between atoms: C_21  and  C_23
REMARK    9  A    between atoms: C_21  and  N_30
REMARK   10  A    between atoms: C_23  and  C_24
REMARK                            x       y       z     vdW  Elec       q    Type
REMARK                         _______ _______ _______ _____ _____    ______ ____
ROOT
ATOM      1  C   UNL     1       1.375  -3.001  -4.739  0.00  0.00    +0.163 A 
ATOM      2  C   UNL     1       0.824  -3.134  -5.975  0.00  0.00    +0.230 A 
ATOM      3  O   UNL     1       1.808  -3.514  -6.805  0.00  0.00    -0.449 OA
ATOM      4  C   UNL     1       2.941  -3.612  -6.094  0.00  0.00    +0.182 A 
ATOM      5  N   UNL     1       2.697  -3.303  -4.856  0.00  0.00    -0.210 NA
ENDROOT
BRANCH   1   7
ATOM      6  N   UNL     1       1.354  -2.503  -2.345  0.00  0.00    -0.293 N 
ATOM      7  C   UNL     1       0.675  -2.599  -3.505  0.00  0.00    +0.266 C 
ATOM      8  O   UNL     1      -0.516  -2.355  -3.535  0.00  0.00    -0.268 OA
ATOM      9  H   UNL     1       2.304  -2.698  -2.322  0.00  0.00    +0.150 HD
BRANCH   6  10
ATOM     10  C   UNL     1       0.657  -2.104  -1.120  0.00  0.00    +0.213 C 
BRANCH  10  11
ATOM     11  C   UNL     1       1.400  -2.639   0.077  0.00  0.00    -0.016 A 
ATOM     12  C   UNL     1       2.782  -2.615   0.101  0.00  0.00    +0.006 A 
ATOM     13  C   UNL     1       3.464  -3.106   1.199  0.00  0.00    +0.000 A 
ATOM     14  C   UNL     1       2.763  -3.621   2.273  0.00  0.00    +0.000 A 
ATOM     15  C   UNL     1       1.381  -3.644   2.250  0.00  0.00    +0.000 A 
ATOM     16  C   UNL     1       0.700  -3.149   1.154  0.00  0.00    +0.006 A 
ENDBRANCH  10  11
BRANCH  10  17
ATOM     17  C   UNL     1       0.598  -0.600  -1.043  0.00  0.00    +0.332 C 
ATOM     18  O   UNL     1       1.088   0.070  -1.921  0.00  0.00    -0.248 OA
BRANCH  17  20
ATOM     19  C   UNL     1      -0.017   1.425   0.010  0.00  0.00    +0.280 C 
ATOM     20  O   UNL     1       0.002  -0.004   0.002  0.00  0.00    -0.466 OA
ENDBRANCH  17  20
ENDBRANCH  10  17
ENDBRANCH   6  10
ENDBRANCH   1   7
BRANCH   4  21
ATOM     21  C   UNL     1       4.285  -4.013  -6.645  0.00  0.00    +0.017 C 
BRANCH  21  22
ATOM     22  N   UNL     1       4.125  -5.179  -7.524  0.00  0.00    +0.386 N 
ATOM     23  H   UNL     1       3.735  -5.947  -6.998  0.00  0.00    -0.089 HD
ATOM     24  H   UNL     1       3.506  -4.944  -8.286  0.00  0.00    -0.089 HD
ATOM     25  H   UNL     1       5.025  -5.448  -7.893  0.00  0.00    -0.089 HD
ENDBRANCH  21  22
BRANCH  21  26
ATOM     26  C   UNL     1       4.877  -2.850  -7.442  0.00  0.00    +0.028 C 
BRANCH  26  27
ATOM     27  C   UNL     1       6.271  -3.206  -7.890  0.00  0.00    -0.048 A 
ATOM     28  C   UNL     1       7.353  -2.907  -7.083  0.00  0.00    +0.003 A 
ATOM     29  C   UNL     1       8.632  -3.234  -7.493  0.00  0.00    +0.000 A 
ATOM     30  C   UNL     1       8.830  -3.859  -8.710  0.00  0.00    +0.000 A 
ATOM     31  C   UNL     1       7.748  -4.158  -9.516  0.00  0.00    +0.000 A 
ATOM     32  C   UNL     1       6.468  -3.836  -9.104  0.00  0.00    +0.003 A 
ENDBRANCH  26  27
ENDBRANCH  21  26
ENDBRANCH   4  21
TORSDOF 9
