REMARK  Name = ZINC58556053
REMARK  11 active torsions:
REMARK  status: ('A' for Active; 'I' for Inactive)
REMARK    1  A    between atoms: C_1  and  C_2
REMARK    2  A    between atoms: C_2  and  C_3
REMARK    3  A    between atoms: C_3  and  C_4
REMARK    4  A    between atoms: C_4  and  N_5
REMARK    5  A    between atoms: C_6  and  C_30
REMARK    6  A    between atoms: C_7  and  C_29
REMARK    7  A    between atoms: C_9  and  S_10
REMARK    8  A    between atoms: S_10  and  C_11
REMARK    9  A    between atoms: C_11  and  C_12
REMARK   10  A    between atoms: N_17  and  S_20
REMARK   11  A    between atoms: S_20  and  C_23
REMARK                            x       y       z     vdW  Elec       q    Type
REMARK                         _______ _______ _______ _____ _____    ______ ____
ROOT
ATOM      1  C   UNL     1       6.653  -2.933  -1.147  0.00  0.00    +0.226 C 
ATOM      2  O   UNL     1       6.435  -2.557  -0.015  0.00  0.00    -0.275 OA
ATOM      3  N   UNL     1       7.909  -3.247  -1.523  0.00  0.00    -0.298 N 
ATOM      4  C   UNL     1       8.189  -3.698  -2.894  0.00  0.00    +0.125 C 
ATOM      5  C   UNL     1       9.267  -2.790  -3.498  0.00  0.00    +0.128 C 
ATOM      6  N   UNL     1      10.381  -2.686  -2.545  0.00  0.00    -0.174 NA
ATOM      7  C   UNL     1      10.101  -2.235  -1.174  0.00  0.00    +0.128 C 
ATOM      8  C   UNL     1       9.023  -3.138  -0.572  0.00  0.00    +0.125 C 
ENDROOT
BRANCH   6   9
ATOM      9  S   UNL     1      11.924  -3.071  -3.006  0.00  0.00    +0.061 S 
ATOM     10  O   UNL     1      12.629  -3.414  -1.821  0.00  0.00    -0.153 OA
ATOM     11  O   UNL     1      11.808  -3.961  -4.108  0.00  0.00    -0.153 OA
BRANCH   9  12
ATOM     12  C   UNL     1      12.666  -1.597  -3.625  0.00  0.00    +0.105 A 
ATOM     13  C   UNL     1      12.557  -1.279  -4.966  0.00  0.00    +0.028 A 
ATOM     14  C   UNL     1      13.139  -0.123  -5.451  0.00  0.00    +0.002 A 
ATOM     15  C   UNL     1      13.829   0.715  -4.596  0.00  0.00    +0.000 A 
ATOM     16  C   UNL     1      13.937   0.398  -3.255  0.00  0.00    +0.002 A 
ATOM     17  C   UNL     1      13.351  -0.756  -2.768  0.00  0.00    +0.028 A 
ENDBRANCH   9  12
ENDBRANCH   6   9
BRANCH   1  18
ATOM     18  C   UNL     1       5.520  -3.050  -2.134  0.00  0.00    +0.173 C 
BRANCH  18  19
ATOM     19  S   UNL     1       3.967  -2.562  -1.333  0.00  0.00    -0.080 S 
BRANCH  19  24
ATOM     20  N   UNL     1       1.425  -2.500  -2.470  0.00  0.00    -0.324 N 
ATOM     21  C   UNL     1       0.845  -2.769  -3.690  0.00  0.00    +0.037 A 
ATOM     22  C   UNL     1       1.829  -3.175  -4.510  0.00  0.00    +0.034 A 
ATOM     23  N   UNL     1       2.985  -3.160  -3.825  0.00  0.00    -0.338 N 
ATOM     24  C   UNL     1       2.756  -2.751  -2.599  0.00  0.00    +0.148 A 
ATOM     25  C   UNL     1       1.664  -3.580  -5.953  0.00  0.00    +0.065 C 
ATOM     26  C   UNL     1      -0.615  -2.634  -4.039  0.00  0.00    +0.065 C 
ATOM     27  H   UNL     1       3.852  -3.409  -4.181  0.00  0.00    +0.168 HD
BRANCH  20  28
ATOM     28  C   UNL     1       0.739  -2.027  -1.265  0.00  0.00    +0.124 C 
BRANCH  28  29
ATOM     29  C   UNL     1       0.718  -0.497  -1.257  0.00  0.00    +0.021 C 
BRANCH  29  31
ATOM     30  C   UNL     1      -0.019   1.526   0.010  0.00  0.00    +0.004 C 
ATOM     31  C   UNL     1       0.002  -0.004   0.002  0.00  0.00    -0.002 C 
ENDBRANCH  29  31
ENDBRANCH  28  29
ENDBRANCH  20  28
ENDBRANCH  19  24
ENDBRANCH  18  19
ENDBRANCH   1  18
TORSDOF 8
