REMARK  Name = ZINC41023861
REMARK  3 active torsions:
REMARK  status: ('A' for Active; 'I' for Inactive)
REMARK    1  A    between atoms: C_6  and  S_7
REMARK    2  A    between atoms: S_7  and  C_8
REMARK    3  A    between atoms: C_12  and  N_14
REMARK                            x       y       z     vdW  Elec       q    Type
REMARK                         _______ _______ _______ _____ _____    ______ ____
ROOT
ATOM      1  C   UNL     1      -0.997  -2.595  -0.002  0.00  0.00    +0.198 A 
ATOM      2  N   UNL     1       0.298  -2.876  -0.011  0.00  0.00    -0.207 NA
ATOM      3  C   UNL     1       0.722  -4.137  -0.022  0.00  0.00    +0.122 A 
ATOM      4  C   UNL     1      -0.214  -5.167  -0.024  0.00  0.00    +0.086 A 
ATOM      5  C   UNL     1      -1.566  -4.833  -0.014  0.00  0.00    +0.122 A 
ATOM      6  N   UNL     1      -1.916  -3.549   0.002  0.00  0.00    -0.207 NA
ATOM      7  N   UNL     1       2.079  -4.422  -0.032  0.00  0.00    -0.343 N 
ATOM      8  H   UNL     1       2.726  -3.699  -0.030  0.00  0.00    +0.144 HD
ATOM      9  H   UNL     1       2.381  -5.343  -0.039  0.00  0.00    +0.144 HD
ENDROOT
BRANCH   5  10
ATOM     10  N   UNL     1      -2.534  -5.825  -0.016  0.00  0.00    -0.343 N 
ATOM     11  H   UNL     1      -2.272  -6.759  -0.024  0.00  0.00    +0.144 HD
ATOM     12  H   UNL     1      -3.474  -5.585  -0.009  0.00  0.00    +0.144 HD
ENDBRANCH   5  10
BRANCH   1  13
ATOM     13  S   UNL     1      -1.510  -0.909   0.012  0.00  0.00    -0.028 S 
BRANCH  13  19
ATOM     14  C   UNL     1      -0.017   1.390   0.010  0.00  0.00    +0.040 A 
ATOM     15  C   UNL     1       1.199   2.056   0.002  0.00  0.00    +0.044 A 
ATOM     16  C   UNL     1       2.360   1.294  -0.013  0.00  0.00    +0.152 A 
ATOM     17  N   UNL     1       2.284  -0.023  -0.020  0.00  0.00    -0.137 NA
ATOM     18  N   UNL     1       1.161  -0.645  -0.013  0.00  0.00    -0.141 NA
ATOM     19  C   UNL     1       0.002  -0.004   0.002  0.00  0.00    +0.127 A 
ATOM     20 CL   UNL     1       3.910   2.074  -0.025  0.00  0.00    -0.060 Cl
ENDBRANCH  13  19
ENDBRANCH   1  13
TORSDOF 3
