REMARK  Name = ZINC39323819
REMARK  4 active torsions:
REMARK  status: ('A' for Active; 'I' for Inactive)
REMARK    1  A    between atoms: C_1  and  C_2
REMARK    2  A    between atoms: C_2  and  C_3
REMARK    3  A    between atoms: C_9  and  N_21
REMARK    4  A    between atoms: C_10  and  C_19
REMARK                            x       y       z     vdW  Elec       q    Type
REMARK                         _______ _______ _______ _____ _____    ______ ____
ROOT
ATOM      1  C   UNL     1      -1.412  -0.526   0.013  0.00  0.00    +0.198 A 
ATOM      2  N   UNL     1      -2.131  -0.787  -1.045  0.00  0.00    -0.215 NA
ATOM      3  C   UNL     1      -3.327  -1.231  -0.648  0.00  0.00    +0.112 A 
ATOM      4  C   UNL     1      -3.331  -1.240   0.711  0.00  0.00    +0.216 A 
ATOM      5  O   UNL     1      -2.135  -0.803   1.114  0.00  0.00    -0.426 OA
ATOM      6  N   UNL     1      -4.438  -1.659   1.448  0.00  0.00    -0.272 N 
ATOM      7  C   UNL     1      -5.449  -2.308   0.773  0.00  0.00    +0.102 C 
ATOM      8  C   UNL     1      -5.518  -2.337  -0.581  0.00  0.00    +0.075 C 
ATOM      9  C   UNL     1      -4.512  -1.659  -1.471  0.00  0.00    +0.044 C 
ATOM     10  C   UNL     1      -4.058  -2.628  -2.565  0.00  0.00    -0.060 C 
ATOM     11  N   UNL     1      -4.385  -2.081  -3.884  0.00  0.00    +0.381 N 
ATOM     12  C   UNL     1      -5.832  -1.899  -4.023  0.00  0.00    -0.078 C 
ATOM     13  C   UNL     1      -6.339  -0.901  -2.980  0.00  0.00    -0.014 C 
ATOM     14  C   UNL     1      -5.152  -0.431  -2.128  0.00  0.00    +0.001 C 
ATOM     15  C   UNL     1      -4.116   0.215  -3.059  0.00  0.00    -0.014 C 
ATOM     16  C   UNL     1      -3.683  -0.815  -4.105  0.00  0.00    -0.078 C 
ATOM     17  H   UNL     1      -4.494  -1.499   2.403  0.00  0.00    +0.156 HD
ATOM     18  H   UNL     1      -4.085  -2.740  -4.586  0.00  0.00    -0.082 HD
ENDROOT
BRANCH   7  19
ATOM     19  N   UNL     1      -6.422  -2.950   1.500  0.00  0.00    -0.346 N 
ATOM     20  H   UNL     1      -6.390  -2.941   2.469  0.00  0.00    +0.144 HD
ATOM     21  H   UNL     1      -7.142  -3.413   1.043  0.00  0.00    +0.144 HD
ENDBRANCH   7  19
BRANCH   1  23
ATOM     22  C   UNL     1      -0.019   1.526   0.010  0.00  0.00    +0.013 C 
ATOM     23  C   UNL     1       0.002  -0.004   0.002  0.00  0.00    +0.093 C 
ENDBRANCH   1  23
BRANCH   8  24
ATOM     24  C   UNL     1      -6.602  -3.046  -1.193  0.00  0.00    +0.099 C 
ATOM     25  N   UNL     1      -7.461  -3.608  -1.678  0.00  0.00    -0.191 NA
ENDBRANCH   8  24
TORSDOF 3
