REMARK  Name = ZINC13639812
REMARK  5 active torsions:
REMARK  status: ('A' for Active; 'I' for Inactive)
REMARK    1  A    between atoms: C_1  and  C_2
REMARK    2  A    between atoms: C_5  and  O_26
REMARK    3  A    between atoms: C_15  and  C_18
REMARK    4  A    between atoms: C_21  and  O_25
REMARK    5  A    between atoms: C_23  and  O_24
REMARK                            x       y       z     vdW  Elec       q    Type
REMARK                         _______ _______ _______ _____ _____    ______ ____
ROOT
ATOM      1  C   UNL     1       2.276   6.278  -4.116  0.00  0.00    +0.044 C 
ATOM      2  C   UNL     1       2.765   4.896  -4.467  0.00  0.00    -0.045 A 
ATOM      3  C   UNL     1       3.768   4.742  -5.404  0.00  0.00    +0.007 A 
ATOM      4  C   UNL     1       4.215   3.474  -5.726  0.00  0.00    +0.047 A 
ATOM      5  C   UNL     1       3.657   2.366  -5.119  0.00  0.00    +0.138 A 
ATOM      6  C   UNL     1       2.636   2.508  -4.171  0.00  0.00    +0.074 A 
ATOM      7  C   UNL     1       2.206   3.796  -3.849  0.00  0.00    -0.013 A 
ATOM      8  C   UNL     1       1.148   3.933  -2.824  0.00  0.00    +0.049 C 
ATOM      9  C   UNL     1       0.186   5.062  -2.815  0.00  0.00    -0.023 C 
ATOM     10  C   UNL     1      -0.968   4.629  -2.317  0.00  0.00    -0.030 C 
ATOM     11  C   UNL     1      -0.866   3.138  -1.986  0.00  0.00    +0.033 C 
ATOM     12  C   UNL     1       0.225   2.683  -2.961  0.00  0.00    +0.029 C 
ATOM     13  C   UNL     1       1.100   1.516  -2.553  0.00  0.00    +0.109 C 
ATOM     14  N   UNL     1       2.110   1.343  -3.610  0.00  0.00    -0.334 N 
ATOM     15  H   UNL     1       1.780   0.713  -4.326  0.00  0.00    +0.147 HD
ENDROOT
BRANCH  13  16
ATOM     16  C   UNL     1       1.777   1.815  -1.240  0.00  0.00    +0.015 A 
ATOM     17  C   UNL     1       3.034   2.390  -1.226  0.00  0.00    +0.012 A 
ATOM     18  C   UNL     1       3.656   2.665  -0.024  0.00  0.00    +0.046 A 
ATOM     19  C   UNL     1       3.021   2.365   1.173  0.00  0.00    +0.120 A 
ATOM     20  C   UNL     1       1.758   1.794   1.161  0.00  0.00    +0.091 A 
ATOM     21  C   UNL     1       1.137   1.514  -0.046  0.00  0.00    +0.125 A 
BRANCH  21  22
ATOM     22  O   UNL     1      -0.099   0.949  -0.061  0.00  0.00    -0.506 OA
ATOM     23  H   UNL     1      -0.090  -0.018  -0.071  0.00  0.00    +0.292 HD
ENDBRANCH  21  22
BRANCH  19  24
ATOM     24  O   UNL     1       3.634   2.636   2.355  0.00  0.00    -0.507 OA
ATOM     25  H   UNL     1       3.445   3.518   2.704  0.00  0.00    +0.292 HD
ENDBRANCH  19  24
ENDBRANCH  13  16
BRANCH   5  26
ATOM     26  O   UNL     1       4.105   1.124  -5.445  0.00  0.00    -0.505 OA
ATOM     27  H   UNL     1       3.630   0.716  -6.182  0.00  0.00    +0.292 HD
ENDBRANCH   5  26
TORSDOF 4
