REMARK  Name = ZINC67010293
REMARK  10 active torsions:
REMARK  status: ('A' for Active; 'I' for Inactive)
REMARK    1  A    between atoms: C_1  and  C_2
REMARK    2  A    between atoms: C_2  and  C_4
REMARK    3  A    between atoms: C_2  and  N_15
REMARK    4  A    between atoms: C_8  and  S_10
REMARK    5  A    between atoms: S_10  and  N_13
REMARK    6  A    between atoms: N_13  and  C_14
REMARK    7  A    between atoms: N_15  and  C_16
REMARK    8  A    between atoms: C_16  and  C_17
REMARK    9  A    between atoms: C_19  and  C_24
REMARK   10  A    between atoms: C_22  and  O_23
REMARK                            x       y       z     vdW  Elec       q    Type
REMARK                         _______ _______ _______ _____ _____    ______ ____
ROOT
ATOM      1  N   UNL     1       0.690  -0.478  -1.207  0.00  0.00    +0.386 N 
ATOM      2  H   UNL     1       0.632  -1.484  -1.254  0.00  0.00    -0.085 HD
ATOM      3  H   UNL     1       0.251  -0.077  -2.022  0.00  0.00    -0.085 HD
ENDROOT
BRANCH   1   5
ATOM      4  C   UNL     1      -0.019   1.526   0.010  0.00  0.00    -0.009 C 
ATOM      5  C   UNL     1       0.002  -0.004   0.002  0.00  0.00    -0.044 C 
BRANCH   5   6
ATOM      6  C   UNL     1      -1.412  -0.526   0.013  0.00  0.00    -0.060 A 
ATOM      7  C   UNL     1      -2.142  -0.569  -1.161  0.00  0.00    +0.002 A 
ATOM      8  C   UNL     1      -3.438  -1.047  -1.151  0.00  0.00    +0.002 A 
ATOM      9  C   UNL     1      -4.005  -1.483   0.032  0.00  0.00    +0.028 A 
ATOM     10  C   UNL     1      -3.275  -1.441   1.205  0.00  0.00    +0.105 A 
ATOM     11  C   UNL     1      -1.977  -0.966   1.195  0.00  0.00    +0.030 A 
BRANCH  10  12
ATOM     12  S   UNL     1      -3.998  -1.996   2.713  0.00  0.00    +0.058 S 
ATOM     13  O   UNL     1      -3.297  -1.344   3.764  0.00  0.00    -0.153 OA
ATOM     14  O   UNL     1      -5.406  -1.885   2.554  0.00  0.00    -0.153 OA
BRANCH  12  15
ATOM     15  N   UNL     1      -3.663  -3.611   2.851  0.00  0.00    -0.193 NA
ATOM     16  C   UNL     1      -2.277  -4.062   3.005  0.00  0.00    +0.127 C 
ATOM     17  H   UNL     1      -4.384  -4.260   2.831  0.00  0.00    +0.148 HD
ENDBRANCH  12  15
ENDBRANCH  10  12
ENDBRANCH   5   6
ENDBRANCH   1   5
BRANCH   1  18
ATOM     18  C   UNL     1       2.100  -0.070  -1.159  0.00  0.00    -0.042 C 
BRANCH  18  19
ATOM     19  C   UNL     1       2.806  -0.556  -2.399  0.00  0.00    -0.022 A 
ATOM     20  C   UNL     1       3.130   0.334  -3.401  0.00  0.00    +0.013 A 
ATOM     21  C   UNL     1       3.783  -0.116  -4.547  0.00  0.00    -0.017 A 
ATOM     22  C   UNL     1       4.105  -1.466  -4.677  0.00  0.00    +0.012 A 
ATOM     23  C   UNL     1       3.778  -2.351  -3.673  0.00  0.00    +0.046 A 
ATOM     24  C   UNL     1       3.133  -1.899  -2.529  0.00  0.00    +0.118 A 
BRANCH  21  25
ATOM     25  C   UNL     1       4.133   0.840  -5.627  0.00  0.00    -0.018 A 
ATOM     26  C   UNL     1       3.816   2.190  -5.495  0.00  0.00    +0.008 A 
ATOM     27  C   UNL     1       4.144   3.075  -6.502  0.00  0.00    +0.001 A 
ATOM     28  C   UNL     1       4.787   2.623  -7.641  0.00  0.00    +0.000 A 
ATOM     29  C   UNL     1       5.104   1.283  -7.777  0.00  0.00    +0.001 A 
ATOM     30  C   UNL     1       4.785   0.391  -6.773  0.00  0.00    +0.008 A 
ENDBRANCH  21  25
BRANCH  24  31
ATOM     31  O   UNL     1       2.817  -2.773  -1.538  0.00  0.00    -0.507 OA
ATOM     32  H   UNL     1       1.945  -3.179  -1.635  0.00  0.00    +0.292 HD
ENDBRANCH  24  31
ENDBRANCH  18  19
ENDBRANCH   1  18
TORSDOF 8
