REMARK  Name = ZINC59377441
REMARK  7 active torsions:
REMARK  status: ('A' for Active; 'I' for Inactive)
REMARK    1  A    between atoms: C_1  and  C_2
REMARK    2  A    between atoms: C_5  and  C_8
REMARK    3  A    between atoms: N_10  and  N_11
REMARK    4  A    between atoms: C_12  and  C_13
REMARK    5  A    between atoms: C_16  and  N_19
REMARK    6  A    between atoms: N_19  and  C_20
REMARK    7  A    between atoms: N_19  and  C_21
REMARK                            x       y       z     vdW  Elec       q    Type
REMARK                         _______ _______ _______ _____ _____    ______ ____
ROOT
ATOM      1  C   UNL     1       1.674  -8.746   1.931  0.00  0.00    -0.005 A 
ATOM      2  C   UNL     1       1.164  -9.388   0.799  0.00  0.00    +0.011 A 
ATOM      3  C   UNL     1       0.673 -10.671   0.900  0.00  0.00    +0.024 A 
ATOM      4  C   UNL     1       0.684 -11.328   2.126  0.00  0.00    +0.034 A 
ATOM      5  C   UNL     1       1.191 -10.692   3.255  0.00  0.00    +0.024 A 
ATOM      6  C   UNL     1       1.689  -9.412   3.161  0.00  0.00    +0.011 A 
ENDROOT
BRANCH   1   8
ATOM      7  N   UNL     1       2.186  -6.757   0.685  0.00  0.00    -0.187 NA
ATOM      8  C   UNL     1       2.201  -7.374   1.828  0.00  0.00    +0.138 C 
BRANCH   7  11
ATOM      9  C   UNL     1       2.671  -4.812  -0.599  0.00  0.00    +0.263 C 
ATOM     10  O   UNL     1       2.223  -5.368  -1.584  0.00  0.00    -0.268 OA
ATOM     11  N   UNL     1       2.687  -5.452   0.587  0.00  0.00    -0.203 N 
ATOM     12  H   UNL     1       3.044  -5.010   1.373  0.00  0.00    +0.178 HD
BRANCH   9  17
ATOM     13  C   UNL     1       4.726   0.547  -1.003  0.00  0.00    +0.044 C 
ATOM     14  C   UNL     1       4.188  -0.856  -0.897  0.00  0.00    -0.050 A 
ATOM     15  C   UNL     1       3.679  -1.485  -2.020  0.00  0.00    +0.004 A 
ATOM     16  C   UNL     1       3.185  -2.770  -1.930  0.00  0.00    +0.013 A 
ATOM     17  C   UNL     1       3.199  -3.436  -0.703  0.00  0.00    +0.038 A 
ATOM     18  C   UNL     1       3.714  -2.796   0.426  0.00  0.00    +0.013 A 
ATOM     19  C   UNL     1       4.210  -1.512   0.321  0.00  0.00    +0.004 A 
ENDBRANCH   9  17
ENDBRANCH   7  11
ENDBRANCH   1   8
BRANCH   4  20
ATOM     20  N   UNL     1       0.185 -12.627   2.224  0.00  0.00    -0.303 N 
ATOM     21  C   UNL     1      -0.460 -13.253   1.067  0.00  0.00    +0.135 C 
BRANCH  20  22
ATOM     22  C   UNL     1       0.300 -13.331   3.425  0.00  0.00    +0.034 A 
ATOM     23  C   UNL     1      -0.714 -13.262   4.373  0.00  0.00    +0.023 A 
ATOM     24  C   UNL     1      -0.596 -13.959   5.559  0.00  0.00    +0.002 A 
ATOM     25  C   UNL     1       0.529 -14.724   5.805  0.00  0.00    +0.000 A 
ATOM     26  C   UNL     1       1.540 -14.795   4.864  0.00  0.00    +0.002 A 
ATOM     27  C   UNL     1       1.427 -14.105   3.673  0.00  0.00    +0.023 A 
ENDBRANCH  20  22
ENDBRANCH   4  20
TORSDOF 5
