REMARK  Name = ZINC44764576
REMARK  4 active torsions:
REMARK  status: ('A' for Active; 'I' for Inactive)
REMARK    1  A    between atoms: C_1  and  C_2
REMARK    2  A    between atoms: C_7  and  C_10
REMARK    3  A    between atoms: C_11  and  C_13
REMARK    4  A    between atoms: C_13  and  C_20
REMARK                            x       y       z     vdW  Elec       q    Type
REMARK                         _______ _______ _______ _____ _____    ______ ____
ROOT
ATOM      1  C   UNL     1       3.336  -2.923  -0.945  0.00  0.00    +0.039 C 
ATOM      2  C   UNL     1       2.680  -2.147   0.199  0.00  0.00    +0.133 C 
ATOM      3  C   UNL     1       2.920  -0.646   0.002  0.00  0.00    +0.139 C 
ATOM      4  N   UNL     1       2.171  -0.208  -1.187  0.00  0.00    -0.295 N 
ATOM      5  C   UNL     1       0.748  -0.570  -1.280  0.00  0.00    +0.139 C 
ATOM      6  C   UNL     1       0.614  -2.075  -1.020  0.00  0.00    +0.133 C 
ATOM      7  O   UNL     1       1.274  -2.403   0.206  0.00  0.00    -0.371 OA
ATOM      8  C   UNL     1      -0.867  -2.446  -0.920  0.00  0.00    +0.039 C 
ATOM      9  C   UNL     1       2.771   0.504  -2.161  0.00  0.00    +0.236 C 
ATOM     10  O   UNL     1       2.166   0.772  -3.177  0.00  0.00    -0.274 OA
ENDROOT
BRANCH   9  11
ATOM     11  C   UNL     1       4.195   0.967  -1.988  0.00  0.00    +0.133 C 
ATOM     12  C   UNL     1       4.296   1.799  -0.694  0.00  0.00    +0.031 C 
ATOM     13  C   UNL     1       5.734   1.825  -0.252  0.00  0.00    +0.002 C 
ATOM     14  C   UNL     1       6.487   3.065  -0.769  0.00  0.00    +0.000 C 
ATOM     15  C   UNL     1       6.145   3.406  -2.232  0.00  0.00    +0.000 C 
ATOM     16  C   UNL     1       6.062   2.183  -3.104  0.00  0.00    +0.002 C 
ATOM     17  C   UNL     1       4.590   1.724  -3.167  0.00  0.00    +0.031 C 
BRANCH  11  18
ATOM     18  C   UNL     1       5.067  -0.212  -1.864  0.00  0.00    +0.079 C 
ATOM     19  N   UNL     1       5.741  -1.122  -1.768  0.00  0.00    -0.195 NA
ENDBRANCH  11  18
ENDBRANCH   9  11
TORSDOF 2
