REMARK  Name = ZINC15971657
REMARK  4 active torsions:
REMARK  status: ('A' for Active; 'I' for Inactive)
REMARK    1  A    between atoms: C_1  and  C_2
REMARK    2  A    between atoms: C_5  and  N_8
REMARK    3  A    between atoms: C_13  and  C_30
REMARK    4  A    between atoms: C_30  and  C_31
REMARK                            x       y       z     vdW  Elec       q    Type
REMARK                         _______ _______ _______ _____ _____    ______ ____
ROOT
ATOM      1  N   UNL     1       0.059  -4.172  -0.021  0.00  0.00    -0.210 N 
ATOM      2  C   UNL     1      -0.030  -4.891  -1.146  0.00  0.00    +0.232 C 
ATOM      3  O   UNL     1      -0.139  -4.433  -2.263  0.00  0.00    -0.274 OA
ATOM      4  C   UNL     1       0.026  -6.363  -0.808  0.00  0.00    +0.108 C 
ATOM      5  C   UNL     1      -1.340  -7.011  -1.115  0.00  0.00    +0.072 C 
ATOM      6  N   UNL     1      -2.146  -6.808   0.118  0.00  0.00    -0.295 NA
ATOM      7  C   UNL     1      -1.182  -7.006   1.216  0.00  0.00    +0.136 C 
ATOM      8  C   UNL     1       0.149  -6.371   0.742  0.00  0.00    +0.123 C 
ATOM      9  C   UNL     1       0.172  -4.901   1.096  0.00  0.00    +0.233 C 
ATOM     10  O   UNL     1       0.275  -4.452   2.217  0.00  0.00    -0.274 OA
ATOM     11  C   UNL     1      -1.007  -8.462   1.540  0.00  0.00    +0.003 A 
ATOM     12  C   UNL     1      -0.595  -9.554   0.808  0.00  0.00    +0.008 A 
ATOM     13  C   UNL     1      -0.536 -10.802   1.401  0.00  0.00    +0.000 A 
ATOM     14  C   UNL     1      -0.891 -10.951   2.730  0.00  0.00    +0.002 A 
ATOM     15  C   UNL     1      -1.304  -9.861   3.466  0.00  0.00    +0.023 A 
ATOM     16  C   UNL     1      -1.367  -8.600   2.877  0.00  0.00    +0.039 A 
ATOM     17  N   UNL     1      -1.746  -7.364   3.405  0.00  0.00    -0.283 N 
ATOM     18  C   UNL     1      -1.667  -6.376   2.493  0.00  0.00    +0.243 C 
ATOM     19  O   UNL     1      -1.934  -5.206   2.668  0.00  0.00    -0.273 OA
ATOM     20  H   UNL     1      -2.538  -5.878   0.144  0.00  0.00    +0.124 HD
ATOM     21  H   UNL     1      -2.034  -7.232   4.322  0.00  0.00    +0.155 HD
ENDROOT
BRANCH   1  26
ATOM     22  C   UNL     1      -0.016   1.503   0.009  0.00  0.00    +0.044 C 
ATOM     23  C   UNL     1       0.004  -0.004   0.001  0.00  0.00    -0.050 A 
ATOM     24  C   UNL     1       1.156  -0.681   0.356  0.00  0.00    +0.005 A 
ATOM     25  C   UNL     1       1.177  -2.062   0.350  0.00  0.00    +0.024 A 
ATOM     26  C   UNL     1       0.040  -2.771  -0.013  0.00  0.00    +0.044 A 
ATOM     27  C   UNL     1      -1.115  -2.088  -0.369  0.00  0.00    +0.024 A 
ATOM     28  C   UNL     1      -1.132  -0.707  -0.357  0.00  0.00    +0.005 A 
ENDBRANCH   1  26
BRANCH   5  29
ATOM     29  C   UNL     1      -2.002  -6.316  -2.307  0.00  0.00    +0.056 C 
BRANCH  29  30
ATOM     30  C   UNL     1      -3.274  -7.039  -2.667  0.00  0.00    -0.021 A 
ATOM     31  C   UNL     1      -3.412  -7.997  -3.598  0.00  0.00    +0.087 A 
ATOM     32  N   UNL     1      -4.713  -8.419  -3.644  0.00  0.00    -0.360 N 
ATOM     33  H   UNL     1      -5.055  -9.105  -4.239  0.00  0.00    +0.165 HD
ATOM     34  C   UNL     1      -5.463  -7.726  -2.721  0.00  0.00    +0.047 A 
ATOM     35  C   UNL     1      -4.594  -6.836  -2.064  0.00  0.00    +0.003 A 
ATOM     36  C   UNL     1      -5.083  -5.998  -1.061  0.00  0.00    +0.010 A 
ATOM     37  C   UNL     1      -6.405  -6.049  -0.718  0.00  0.00    +0.001 A 
ATOM     38  C   UNL     1      -7.266  -6.929  -1.360  0.00  0.00    +0.002 A 
ATOM     39  C   UNL     1      -6.806  -7.758  -2.360  0.00  0.00    +0.026 A 
ENDBRANCH  29  30
ENDBRANCH   5  29
TORSDOF 3
