REMARK  Name = ZINC26570674
REMARK  8 active torsions:
REMARK  status: ('A' for Active; 'I' for Inactive)
REMARK    1  A    between atoms: C_1  and  C_2
REMARK    2  A    between atoms: C_2  and  O_3
REMARK    3  A    between atoms: O_3  and  C_4
REMARK    4  A    between atoms: C_4  and  C_5
REMARK    5  A    between atoms: N_7  and  C_13
REMARK    6  A    between atoms: C_8  and  C_12
REMARK    7  A    between atoms: C_28  and  C_37
REMARK    8  A    between atoms: C_33  and  C_36
REMARK                            x       y       z     vdW  Elec       q    Type
REMARK                         _______ _______ _______ _____ _____    ______ ____
ROOT
ATOM      1  C   UNL     1       0.698   3.947  -0.234  0.00  0.00    +0.155 C 
ATOM      2  C   UNL     1       1.012   4.038   1.285  0.00  0.00    +0.037 C 
ATOM      3  C   UNL     1       1.291   5.540   1.447  0.00  0.00    +0.008 C 
ATOM      4  C   UNL     1       2.023   5.971   2.690  0.00  0.00    -0.003 C 
ATOM      5  C   UNL     1       1.235   5.586   3.942  0.00  0.00    +0.004 C 
ATOM      6  C   UNL     1      -0.002   6.477   4.062  0.00  0.00    +0.004 C 
ATOM      7  C   UNL     1       0.487   7.912   4.271  0.00  0.00    -0.005 C 
ATOM      8  C   UNL     1      -0.691   8.809   4.632  0.00  0.00    +0.004 C 
ATOM      9  C   UNL     1      -1.655   8.915   3.450  0.00  0.00    +0.000 C 
ATOM     10  C   UNL     1      -0.916   9.508   2.250  0.00  0.00    +0.001 C 
ATOM     11  C   UNL     1       0.251   8.600   1.861  0.00  0.00    +0.007 C 
ATOM     12  C   UNL     1       1.215   8.399   3.023  0.00  0.00    -0.026 C 
ATOM     13  C   UNL     1       2.350   7.456   2.640  0.00  0.00    -0.001 C 
ATOM     14  C   UNL     1       2.993   7.877   1.324  0.00  0.00    +0.005 C 
ATOM     15  C   UNL     1       2.321   7.311   0.072  0.00  0.00    +0.015 C 
ATOM     16  C   UNL     1       2.177   5.811   0.207  0.00  0.00    +0.031 C 
ATOM     17  C   UNL     1       1.429   5.110  -0.898  0.00  0.00    +0.162 C 
ATOM     18  O   UNL     1       1.417   5.413  -2.065  0.00  0.00    -0.295 OA
ATOM     19  C   UNL     1       3.554   5.162   0.335  0.00  0.00    +0.019 C 
ATOM     20  C   UNL     1       1.849   9.765   3.372  0.00  0.00    +0.012 C 
ENDROOT
BRANCH   1  23
ATOM     21  C   UNL     1       2.852   1.050  -0.949  0.00  0.00    +0.036 A 
ATOM     22  C   UNL     1       2.420   2.227  -0.450  0.00  0.00    +0.097 A 
ATOM     23  N   UNL     1       1.168   2.671  -0.775  0.00  0.00    -0.325 N 
ATOM     24  C   UNL     1       0.356   1.954  -1.585  0.00  0.00    +0.109 A 
ATOM     25  N   UNL     1       0.720   0.813  -2.095  0.00  0.00    -0.217 NA
ATOM     26  C   UNL     1       1.947   0.296  -1.826  0.00  0.00    +0.133 A 
ATOM     27  N   UNL     1       2.319  -0.860  -2.341  0.00  0.00    -0.383 N 
ATOM     28  C   UNL     1      -1.011   2.498  -1.913  0.00  0.00    +0.086 C 
ATOM     29  H   UNL     1       1.632  -1.416  -2.997  0.00  0.00    +0.157 HD
ATOM     30  H   UNL     1       3.315  -1.268  -2.115  0.00  0.00    +0.157 HD
BRANCH  21  31
ATOM     31  C   UNL     1       4.225   0.525  -0.615  0.00  0.00    +0.200 C 
BRANCH  31  32
ATOM     32  O   UNL     1       4.891   1.447   0.250  0.00  0.00    -0.375 OA
BRANCH  32  34
ATOM     33  C   UNL     1       6.821   2.099   1.549  0.00  0.00    +0.034 C 
ATOM     34  C   UNL     1       6.207   1.042   0.629  0.00  0.00    +0.157 C 
ENDBRANCH  32  34
ENDBRANCH  31  32
ENDBRANCH  21  31
ENDBRANCH   1  23
TORSDOF 4
