REMARK  Name = ZINC44649342
REMARK  10 active torsions:
REMARK  status: ('A' for Active; 'I' for Inactive)
REMARK    1  A    between atoms: C_1  and  C_2
REMARK    2  A    between atoms: C_2  and  C_4
REMARK    3  A    between atoms: C_2  and  O_15
REMARK    4  A    between atoms: C_4  and  C_6
REMARK    5  A    between atoms: O_15  and  C_16
REMARK    6  A    between atoms: C_16  and  C_18
REMARK    7  A    between atoms: C_20  and  O_27
REMARK    8  A    between atoms: C_21  and  O_25
REMARK    9  A    between atoms: O_25  and  C_26
REMARK   10  A    between atoms: O_27  and  C_28
REMARK                            x       y       z     vdW  Elec       q    Type
REMARK                         _______ _______ _______ _____ _____    ______ ____
ROOT
ATOM      1  C   UNL     1      -0.019   1.526   0.010  0.00  0.00    +0.061 C 
ATOM      2  C   UNL     1       0.002  -0.004   0.002  0.00  0.00    +0.244 C 
ENDROOT
BRANCH   2   3
ATOM      3  C   UNL     1       0.731  -0.503   1.223  0.00  0.00    +0.202 C 
ATOM      4  O   UNL     1       1.888  -0.862   1.135  0.00  0.00    -0.288 OA
BRANCH   3   5
ATOM      5  C   UNL     1       0.069  -0.554   2.468  0.00  0.00    +0.027 C 
ATOM      6  C   UNL     1       0.592  -0.978   3.677  0.00  0.00    +0.006 A 
ATOM      7  C   UNL     1       1.864  -1.467   4.056  0.00  0.00    +0.010 A 
ATOM      8  C   UNL     1       2.104  -1.816   5.340  0.00  0.00    +0.001 A 
ATOM      9  C   UNL     1       1.128  -1.714   6.344  0.00  0.00    +0.002 A 
ATOM     10  C   UNL     1      -0.117  -1.260   6.087  0.00  0.00    +0.026 A 
ATOM     11  C   UNL     1      -0.463  -0.858   4.713  0.00  0.00    +0.043 A 
ATOM     12  N   UNL     1      -1.563  -0.395   4.194  0.00  0.00    -0.380 N 
ATOM     13  C   UNL     1      -1.359  -0.151   2.762  0.00  0.00    +0.152 C 
ATOM     14  H   UNL     1      -2.388  -0.232   4.678  0.00  0.00    +0.160 HD
ENDBRANCH   3   5
ENDBRANCH   2   3
BRANCH   2  15
ATOM     15  O   UNL     1       0.671  -0.465  -1.174  0.00  0.00    -0.450 OA
BRANCH  15  16
ATOM     16  C   UNL     1      -0.088  -0.673  -2.267  0.00  0.00    +0.340 C 
ATOM     17  O   UNL     1      -1.285  -0.469  -2.224  0.00  0.00    -0.245 OA
BRANCH  16  18
ATOM     18  C   UNL     1       0.534  -1.149  -3.517  0.00  0.00    +0.064 A 
ATOM     19  C   UNL     1      -0.251  -1.360  -4.654  0.00  0.00    +0.064 A 
ATOM     20  C   UNL     1       0.336  -1.805  -5.823  0.00  0.00    +0.164 A 
ATOM     21  C   UNL     1       1.709  -2.043  -5.866  0.00  0.00    +0.180 A 
ATOM     22  C   UNL     1       2.490  -1.833  -4.737  0.00  0.00    +0.087 A 
ATOM     23  C   UNL     1       1.910  -1.384  -3.569  0.00  0.00    +0.039 A 
ATOM     24 CL   UNL     1       4.199  -2.132  -4.797  0.00  0.00    -0.080 Cl
BRANCH  21  25
ATOM     25  O   UNL     1       2.284  -2.481  -7.016  0.00  0.00    -0.490 OA
ATOM     26  C   UNL     1       2.757  -1.485  -7.926  0.00  0.00    +0.277 C 
ENDBRANCH  21  25
BRANCH  20  27
ATOM     27  O   UNL     1      -0.425  -2.011  -6.930  0.00  0.00    -0.491 OA
ATOM     28  C   UNL     1      -1.825  -1.748  -6.814  0.00  0.00    +0.277 C 
ENDBRANCH  20  27
ENDBRANCH  16  18
ENDBRANCH  15  16
ENDBRANCH   2  15
TORSDOF 7
