REMARK  Name = ZINC09464393
REMARK  10 active torsions:
REMARK  status: ('A' for Active; 'I' for Inactive)
REMARK    1  A    between atoms: C_1  and  C_2
REMARK    2  A    between atoms: C_2  and  C_4
REMARK    3  A    between atoms: C_2  and  N_12
REMARK    4  A    between atoms: C_13  and  C_15
REMARK    5  A    between atoms: C_15  and  S_16
REMARK    6  A    between atoms: S_16  and  C_17
REMARK    7  A    between atoms: C_20  and  C_23
REMARK    8  A    between atoms: N_21  and  N_22
REMARK    9  A    between atoms: C_23  and  O_24
REMARK   10  A    between atoms: O_24  and  C_25
REMARK                            x       y       z     vdW  Elec       q    Type
REMARK                         _______ _______ _______ _____ _____    ______ ____
ROOT
ATOM      1  C   UNL     1       6.322   1.181  -1.534  0.00  0.00    +0.209 A 
ATOM      2  N   UNL     1       6.557   2.282  -0.859  0.00  0.00    -0.121 NA
ATOM      3  N   UNL     1       7.798   2.601  -0.961  0.00  0.00    -0.128 NA
ATOM      4  C   UNL     1       8.424   1.730  -1.701  0.00  0.00    +0.189 A 
ATOM      5  N   UNL     1       7.508   0.791  -2.087  0.00  0.00    -0.225 N 
ENDROOT
BRANCH   5   6
ATOM      6  N   UNL     1       7.733  -0.308  -2.868  0.00  0.00    -0.295 N 
ATOM      7  H   UNL     1       7.600  -0.090  -3.844  0.00  0.00    +0.163 HD
ATOM      8  H   UNL     1       8.653  -0.686  -2.704  0.00  0.00    +0.163 HD
ENDBRANCH   5   6
BRANCH   1   9
ATOM      9  S   UNL     1       4.773   0.357  -1.690  0.00  0.00    -0.075 S 
BRANCH   9  10
ATOM     10  C   UNL     1       3.732   1.454  -0.695  0.00  0.00    +0.173 C 
BRANCH  10  12
ATOM     11  N   UNL     1       1.362   1.593  -0.002  0.00  0.00    -0.308 N 
ATOM     12  C   UNL     1       2.318   0.933  -0.685  0.00  0.00    +0.224 C 
ATOM     13  O   UNL     1       2.042  -0.081  -1.290  0.00  0.00    -0.275 OA
ATOM     14  H   UNL     1       1.583   2.404   0.482  0.00  0.00    +0.149 HD
BRANCH  11  16
ATOM     15  C   UNL     1      -0.753   1.593  -1.232  0.00  0.00    +0.033 C 
ATOM     16  C   UNL     1      -0.013   1.086   0.008  0.00  0.00    +0.102 C 
BRANCH  16  17
ATOM     17  C   UNL     1      -0.718   1.572   1.248  0.00  0.00    -0.009 A 
ATOM     18  C   UNL     1      -0.295   2.729   1.875  0.00  0.00    +0.008 A 
ATOM     19  C   UNL     1      -0.942   3.176   3.012  0.00  0.00    +0.020 A 
ATOM     20  C   UNL     1      -2.012   2.464   3.524  0.00  0.00    +0.042 A 
ATOM     21  C   UNL     1      -2.436   1.306   2.897  0.00  0.00    +0.040 A 
ATOM     22  C   UNL     1      -1.792   0.863   1.755  0.00  0.00    +0.047 A 
ATOM     23 CL   UNL     1      -2.327  -0.587   0.964  0.00  0.00    -0.083 Cl
ATOM     24 CL   UNL     1      -2.824   3.025   4.952  0.00  0.00    -0.083 Cl
ENDBRANCH  16  17
ENDBRANCH  11  16
ENDBRANCH  10  12
ENDBRANCH   9  10
ENDBRANCH   1   9
BRANCH   4  25
ATOM     25  C   UNL     1       9.888   1.750  -2.058  0.00  0.00    +0.306 C 
BRANCH  25  26
ATOM     26  O   UNL     1      10.629   1.026  -1.075  0.00  0.00    -0.484 OA
BRANCH  26  27
ATOM     27  C   UNL     1      11.975   0.948  -1.249  0.00  0.00    +0.121 A 
ATOM     28  C   UNL     1      12.568   1.551  -2.349  0.00  0.00    +0.047 A 
ATOM     29  C   UNL     1      13.937   1.474  -2.522  0.00  0.00    +0.023 A 
ATOM     30  C   UNL     1      14.714   0.787  -1.606  0.00  0.00    +0.041 A 
ATOM     31  C   UNL     1      14.123   0.181  -0.512  0.00  0.00    +0.023 A 
ATOM     32  C   UNL     1      12.755   0.260  -0.332  0.00  0.00    +0.047 A 
ATOM     33 CL   UNL     1      16.432   0.687  -1.829  0.00  0.00    -0.084 Cl
ENDBRANCH  26  27
ENDBRANCH  25  26
ENDBRANCH   4  25
TORSDOF 9
