REMARK  Name = ZINC28287196
REMARK  10 active torsions:
REMARK  status: ('A' for Active; 'I' for Inactive)
REMARK    1  A    between atoms: C_1  and  C_2
REMARK    2  A    between atoms: C_5  and  N_9
REMARK    3  A    between atoms: C_6  and  C_8
REMARK    4  A    between atoms: C_10  and  C_12
REMARK    5  A    between atoms: C_13  and  C_33
REMARK    6  A    between atoms: C_17  and  C_22
REMARK    7  A    between atoms: C_18  and  O_21
REMARK    8  A    between atoms: C_22  and  N_23
REMARK    9  A    between atoms: C_25  and  C_32
REMARK   10  A    between atoms: C_28  and  C_31
REMARK                            x       y       z     vdW  Elec       q    Type
REMARK                         _______ _______ _______ _____ _____    ______ ____
ROOT
ATOM      1  C   UNL     1       0.810   3.527   0.013  0.00  0.00    +0.086 A 
ATOM      2  C   UNL     1      -0.550   3.562   0.025  0.00  0.00    +0.115 A 
ATOM      3  O   UNL     1      -1.036   2.316   0.018  0.00  0.00    -0.459 OA
ATOM      4  C   UNL     1      -0.044   1.401   0.009  0.00  0.00    +0.136 A 
ATOM      5  C   UNL     1       1.174   2.096   0.001  0.00  0.00    +0.040 A 
ATOM      6  C   UNL     1       2.379   1.402  -0.013  0.00  0.00    +0.019 A 
ATOM      7  C   UNL     1       2.370   0.019  -0.021  0.00  0.00    +0.122 A 
ATOM      8  C   UNL     1       1.162  -0.671  -0.014  0.00  0.00    +0.049 A 
ATOM      9  C   UNL     1      -0.035   0.012   0.001  0.00  0.00    +0.050 A 
ATOM     10  C   UNL     1      -1.384   4.817   0.039  0.00  0.00    +0.087 C 
ENDROOT
BRANCH   1  12
ATOM     11  N   UNL     1       2.159   5.197   1.177  0.00  0.00    -0.281 N 
ATOM     12  C   UNL     1       1.728   4.677   0.011  0.00  0.00    +0.252 C 
ATOM     13  O   UNL     1       2.098   5.158  -1.044  0.00  0.00    -0.270 OA
ATOM     14  H   UNL     1       1.768   4.811   2.129  0.00  0.00    +0.155 HD
BRANCH  11  19
ATOM     15  C   UNL     1       5.995   9.376   1.170  0.00  0.00    +0.044 C 
ATOM     16  C   UNL     1       4.975   8.266   1.172  0.00  0.00    -0.050 A 
ATOM     17  C   UNL     1       4.022   8.203   0.172  0.00  0.00    +0.005 A 
ATOM     18  C   UNL     1       3.090   7.184   0.168  0.00  0.00    +0.024 A 
ATOM     19  C   UNL     1       3.104   6.228   1.175  0.00  0.00    +0.037 A 
ATOM     20  C   UNL     1       4.063   6.294   2.178  0.00  0.00    -0.029 A 
ATOM     21  C   UNL     1       4.995   7.313   2.174  0.00  0.00    +0.008 A 
ATOM     22  C   UNL     1       4.085   5.256   3.270  0.00  0.00    +0.045 C 
ENDBRANCH  11  19
ENDBRANCH   1  12
BRANCH   7  23
ATOM     23  O   UNL     1       3.544  -0.668  -0.036  0.00  0.00    -0.506 OA
ATOM     24  H   UNL     1       3.537  -1.768  -0.042  0.00  0.00    +0.292 HD
ENDBRANCH   7  23
BRANCH   6  25
ATOM     25  C   UNL     1       3.686   2.152  -0.021  0.00  0.00    +0.124 C 
BRANCH  25  26
ATOM     26  N   UNL     1       4.098   2.404  -1.409  0.00  0.00    -0.293 NA
ATOM     27  C   UNL     1       4.419   1.146  -2.099  0.00  0.00    +0.116 C 
ATOM     28  C   UNL     1       4.784   1.449  -3.555  0.00  0.00    +0.130 C 
ATOM     29  O   UNL     1       5.872   2.377  -3.585  0.00  0.00    -0.371 OA
ATOM     30  C   UNL     1       5.593   3.613  -2.922  0.00  0.00    +0.130 C 
ATOM     31  C   UNL     1       5.236   3.332  -1.460  0.00  0.00    +0.116 C 
ATOM     32  C   UNL     1       6.827   4.516  -2.983  0.00  0.00    +0.039 C 
ATOM     33  C   UNL     1       3.575   2.055  -4.271  0.00  0.00    +0.039 C 
ENDBRANCH  25  26
ENDBRANCH   6  25
TORSDOF 5
