REMARK  Name = ZINC03875243
REMARK  11 active torsions:
REMARK  status: ('A' for Active; 'I' for Inactive)
REMARK    1  A    between atoms: C_1  and  C_2
REMARK    2  A    between atoms: C_10  and  O_37
REMARK    3  A    between atoms: C_21  and  N_23
REMARK    4  A    between atoms: N_23  and  C_24
REMARK    5  A    between atoms: C_24  and  C_25
REMARK    6  A    between atoms: C_25  and  C_26
REMARK    7  A    between atoms: C_26  and  C_27
REMARK    8  A    between atoms: C_27  and  C_28
REMARK    9  A    between atoms: C_28  and  C_29
REMARK   10  A    between atoms: C_29  and  N_30
REMARK   11  A    between atoms: O_37  and  C_38
REMARK                            x       y       z     vdW  Elec       q    Type
REMARK                         _______ _______ _______ _____ _____    ______ ____
ROOT
ATOM      1  C   UNL     1      -0.019   1.527   0.010  0.00  0.00    +0.010 C 
ATOM      2  C   UNL     1       0.002  -0.004   0.002  0.00  0.00    -0.041 C 
ATOM      3  C   UNL     1      -1.399  -0.558  -0.018  0.00  0.00    +0.006 C 
ATOM      4  C   UNL     1      -1.915  -0.825   1.407  0.00  0.00    +0.009 C 
ATOM      5  C   UNL     1      -1.217   0.083   2.399  0.00  0.00    +0.023 C 
ATOM      6  C   UNL     1      -1.796   0.057   3.786  0.00  0.00    -0.041 A 
ATOM      7  C   UNL     1      -3.142  -0.211   3.961  0.00  0.00    +0.008 A 
ATOM      8  C   UNL     1      -3.692  -0.238   5.226  0.00  0.00    +0.046 A 
ATOM      9  C   UNL     1      -2.887   0.011   6.328  0.00  0.00    +0.120 A 
ATOM     10  C   UNL     1      -1.544   0.290   6.149  0.00  0.00    +0.049 A 
ATOM     11  C   UNL     1      -0.986   0.320   4.877  0.00  0.00    -0.040 A 
ATOM     12  C   UNL     1       0.479   0.645   4.770  0.00  0.00    +0.036 C 
ATOM     13  C   UNL     1       0.947   0.804   3.321  0.00  0.00    +0.009 C 
ATOM     14  C   UNL     1       0.266  -0.287   2.502  0.00  0.00    +0.000 C 
ATOM     15  C   UNL     1       0.840  -0.582   1.161  0.00  0.00    -0.003 C 
ATOM     16  C   UNL     1       2.240  -0.038   0.840  0.00  0.00    +0.003 C 
ATOM     17  C   UNL     1       2.322  -0.174  -0.707  0.00  0.00    -0.015 C 
ATOM     18  C   UNL     1       0.875  -0.420  -1.203  0.00  0.00    -0.066 C 
ENDROOT
BRANCH  18  19
ATOM     19  N   UNL     1       0.569   0.437  -2.352  0.00  0.00    +0.381 N 
ATOM     20  H   UNL     1      -0.422   0.402  -2.543  0.00  0.00    -0.086 HD
ATOM     21  H   UNL     1       0.837   1.387  -2.144  0.00  0.00    -0.086 HD
BRANCH  19  22
ATOM     22  C   UNL     1       1.311  -0.036  -3.528  0.00  0.00    -0.082 C 
BRANCH  22  23
ATOM     23  C   UNL     1       0.991   0.858  -4.727  0.00  0.00    -0.019 C 
BRANCH  23  24
ATOM     24  C   UNL     1       1.765   0.365  -5.952  0.00  0.00    -0.002 C 
BRANCH  24  25
ATOM     25  C   UNL     1       1.445   1.260  -7.151  0.00  0.00    +0.001 C 
BRANCH  25  26
ATOM     26  C   UNL     1       2.218   0.766  -8.376  0.00  0.00    +0.019 C 
BRANCH  26  27
ATOM     27  C   UNL     1       1.898   1.661  -9.575  0.00  0.00    +0.117 C 
BRANCH  27  28
ATOM     28  N   UNL     1       2.639   1.189 -10.748  0.00  0.00    -0.235 N 
ATOM     29  C   UNL     1       3.873   1.592 -11.099  0.00  0.00    +0.246 C 
ATOM     30  O   UNL     1       4.553   2.401 -10.502  0.00  0.00    -0.270 OA
ATOM     31  C   UNL     1       4.262   0.882 -12.338  0.00  0.00    +0.073 C 
ATOM     32  C   UNL     1       3.233   0.084 -12.667  0.00  0.00    +0.073 C 
ATOM     33  C   UNL     1       2.191   0.282 -11.634  0.00  0.00    +0.246 C 
ATOM     34  O   UNL     1       1.115  -0.278 -11.596  0.00  0.00    -0.270 OA
ENDBRANCH  27  28
ENDBRANCH  26  27
ENDBRANCH  25  26
ENDBRANCH  24  25
ENDBRANCH  23  24
ENDBRANCH  22  23
ENDBRANCH  19  22
ENDBRANCH  18  19
BRANCH   9  35
ATOM     35  O   UNL     1      -3.416  -0.023   7.580  0.00  0.00    -0.495 OA
ATOM     36  C   UNL     1      -4.809  -0.322   7.687  0.00  0.00    +0.277 C 
ENDBRANCH   9  35
TORSDOF 9
