REMARK  Name = ZINC16349951
REMARK  13 active torsions:
REMARK  status: ('A' for Active; 'I' for Inactive)
REMARK    1  A    between atoms: C_1  and  C_2
REMARK    2  A    between atoms: C_6  and  N_9
REMARK    3  A    between atoms: C_7  and  C_8
REMARK    4  A    between atoms: N_9  and  C_10
REMARK    5  A    between atoms: N_9  and  S_34
REMARK    6  A    between atoms: C_10  and  C_11
REMARK    7  A    between atoms: N_13  and  N_14
REMARK    8  A    between atoms: C_15  and  C_16
REMARK    9  A    between atoms: C_19  and  O_22
REMARK   10  A    between atoms: O_22  and  C_23
REMARK   11  A    between atoms: C_23  and  C_24
REMARK   12  A    between atoms: N_26  and  C_27
REMARK   13  A    between atoms: S_34  and  C_37
REMARK                            x       y       z     vdW  Elec       q    Type
REMARK                         _______ _______ _______ _____ _____    ______ ____
ROOT
ATOM      1  N   UNL     1       1.983  -2.993  -7.697  0.00  0.00    -0.188 NA
ATOM      2  C   UNL     1       0.736  -2.713  -7.923  0.00  0.00    +0.138 C 
ENDROOT
BRANCH   2   3
ATOM      3  C   UNL     1      -0.127  -2.253  -6.819  0.00  0.00    -0.005 A 
ATOM      4  C   UNL     1      -1.470  -1.951  -7.059  0.00  0.00    +0.013 A 
ATOM      5  C   UNL     1      -2.273  -1.521  -6.025  0.00  0.00    +0.046 A 
ATOM      6  C   UNL     1      -1.749  -1.388  -4.746  0.00  0.00    +0.121 A 
ATOM      7  C   UNL     1      -0.413  -1.681  -4.504  0.00  0.00    +0.046 A 
ATOM      8  C   UNL     1       0.396  -2.117  -5.531  0.00  0.00    +0.013 A 
BRANCH   6   9
ATOM      9  O   UNL     1      -2.544  -0.964  -3.729  0.00  0.00    -0.483 OA
BRANCH   9  10
ATOM     10  C   UNL     1      -1.941  -0.849  -2.439  0.00  0.00    +0.324 C 
BRANCH  10  11
ATOM     11  C   UNL     1      -2.968  -0.369  -1.446  0.00  0.00    +0.255 C 
ATOM     12  O   UNL     1      -4.104  -0.147  -1.807  0.00  0.00    -0.272 OA
ATOM     13  N   UNL     1      -2.624  -0.186  -0.155  0.00  0.00    -0.283 N 
ATOM     14  H   UNL     1      -1.699  -0.289   0.119  0.00  0.00    +0.155 HD
BRANCH  13  15
ATOM     15  C   UNL     1      -3.601   0.153   0.789  0.00  0.00    +0.034 A 
ATOM     16  C   UNL     1      -3.268   0.942   1.882  0.00  0.00    +0.026 A 
ATOM     17  C   UNL     1      -4.234   1.280   2.809  0.00  0.00    +0.040 A 
ATOM     18  C   UNL     1      -5.532   0.823   2.655  0.00  0.00    +0.124 A 
ATOM     19  C   UNL     1      -5.865   0.031   1.569  0.00  0.00    +0.040 A 
ATOM     20  C   UNL     1      -4.903  -0.304   0.636  0.00  0.00    +0.026 A 
ATOM     21  F   UNL     1      -6.475   1.150   3.566  0.00  0.00    -0.205 F 
ENDBRANCH  13  15
ENDBRANCH  10  11
ENDBRANCH   9  10
ENDBRANCH   6   9
ENDBRANCH   2   3
BRANCH   1  24
ATOM     22  C   UNL     1       4.099  -3.720  -8.512  0.00  0.00    +0.251 C 
ATOM     23  O   UNL     1       4.554  -3.603  -7.394  0.00  0.00    -0.272 OA
ATOM     24  N   UNL     1       2.803  -3.430  -8.746  0.00  0.00    -0.206 N 
ATOM     25  H   UNL     1       2.439  -3.524  -9.640  0.00  0.00    +0.177 HD
BRANCH  22  26
ATOM     26  C   UNL     1       4.981  -4.191  -9.640  0.00  0.00    +0.228 C 
BRANCH  26  27
ATOM     27  N   UNL     1       6.332  -4.438  -9.132  0.00  0.00    -0.198 N 
BRANCH  27  33
ATOM     28  C   UNL     1       9.954  -1.784 -11.130  0.00  0.00    +0.044 C 
ATOM     29  C   UNL     1       9.014  -2.076  -9.989  0.00  0.00    -0.046 A 
ATOM     30  C   UNL     1       9.054  -1.300  -8.845  0.00  0.00    +0.004 A 
ATOM     31  C   UNL     1       8.193  -1.565  -7.796  0.00  0.00    +0.002 A 
ATOM     32  C   UNL     1       7.289  -2.605  -7.888  0.00  0.00    +0.025 A 
ATOM     33  C   UNL     1       7.245  -3.385  -9.036  0.00  0.00    +0.055 A 
ATOM     34  C   UNL     1       8.116  -3.121 -10.085  0.00  0.00    -0.025 A 
ATOM     35  C   UNL     1       8.077  -3.969 -11.330  0.00  0.00    +0.046 C 
ENDBRANCH  27  33
BRANCH  27  36
ATOM     36  S   UNL     1       6.778  -5.965  -8.672  0.00  0.00    +0.043 S 
ATOM     37  O   UNL     1       7.949  -5.781  -7.889  0.00  0.00    -0.155 OA
ATOM     38  O   UNL     1       5.605  -6.529  -8.101  0.00  0.00    -0.155 OA
ATOM     39  C   UNL     1       7.190  -6.817 -10.220  0.00  0.00    +0.218 C 
ENDBRANCH  27  36
ENDBRANCH  26  27
ENDBRANCH  22  26
ENDBRANCH   1  24
TORSDOF 10
