REMARK  Name = ZINC04908777
REMARK  10 active torsions:
REMARK  status: ('A' for Active; 'I' for Inactive)
REMARK    1  A    between atoms: C_1  and  C_2
REMARK    2  A    between atoms: C_5  and  C_8
REMARK    3  A    between atoms: C_8  and  N_57
REMARK    4  A    between atoms: C_9  and  C_10
REMARK    5  A    between atoms: C_9  and  N_57
REMARK    6  A    between atoms: C_10  and  C_11
REMARK    7  A    between atoms: C_10  and  C_12
REMARK    8  A    between atoms: C_13  and  C_14
REMARK    9  A    between atoms: C_13  and  N_57
REMARK   10  A    between atoms: C_20  and  C_22
REMARK                            x       y       z     vdW  Elec       q    Type
REMARK                         _______ _______ _______ _____ _____    ______ ____
ROOT
ATOM      1  C   UNL     1       1.196   1.756   0.071  0.00  0.00    +0.019 C 
ENDROOT
BRANCH   1   2
ATOM      2  C   UNL     1       1.785   1.635   1.453  0.00  0.00    +0.200 C 
ATOM      3  O   UNL     1       1.107   1.214   2.366  0.00  0.00    -0.278 OA
ATOM      4  N   UNL     1       3.064   1.996   1.674  0.00  0.00    -0.286 N 
ATOM      5  C   UNL     1       3.920   2.503   0.605  0.00  0.00    +0.120 C 
ATOM      6  C   UNL     1       5.405   2.114   0.849  0.00  0.00    +0.090 C 
ATOM      7  S   UNL     1       5.446   2.331   2.685  0.00  0.00    -0.132 S 
ATOM      8  C   UNL     1       3.685   1.897   3.009  0.00  0.00    +0.164 C 
BRANCH   8   9
ATOM      9  C   UNL     1       3.059   2.883   3.961  0.00  0.00    -0.017 A 
ATOM     10  C   UNL     1       2.556   4.079   3.485  0.00  0.00    +0.009 A 
ATOM     11  C   UNL     1       1.977   4.982   4.357  0.00  0.00    +0.039 A 
ATOM     12  C   UNL     1       1.913   4.693   5.709  0.00  0.00    +0.123 A 
ATOM     13  C   UNL     1       2.422   3.497   6.186  0.00  0.00    +0.039 A 
ATOM     14  C   UNL     1       2.995   2.593   5.311  0.00  0.00    +0.009 A 
ATOM     15  F   UNL     1       1.353   5.577   6.564  0.00  0.00    -0.205 F 
ENDBRANCH   8   9
ENDBRANCH   1   2
BRANCH   1  16
ATOM     16  N   UNL     1      -0.171   1.194   0.088  0.00  0.00    +0.388 N 
ATOM     17  H   UNL     1      -0.645   1.496   0.948  0.00  0.00    -0.081 HD
BRANCH  16  18
ATOM     18  C   UNL     1      -0.111  -0.283   0.067  0.00  0.00    -0.042 C 
BRANCH  18  23
ATOM     19  C   UNL     1      -5.416  -2.381   0.986  0.00  0.00    +0.044 C 
ATOM     20  C   UNL     1      -4.032  -1.833   0.746  0.00  0.00    -0.050 A 
ATOM     21  C   UNL     1      -3.599  -1.591  -0.544  0.00  0.00    +0.003 A 
ATOM     22  C   UNL     1      -2.330  -1.089  -0.764  0.00  0.00    +0.002 A 
ATOM     23  C   UNL     1      -1.494  -0.830   0.307  0.00  0.00    -0.064 A 
ATOM     24  C   UNL     1      -1.926  -1.077   1.596  0.00  0.00    +0.002 A 
ATOM     25  C   UNL     1      -3.197  -1.574   1.817  0.00  0.00    +0.003 A 
ENDBRANCH  18  23
ENDBRANCH  16  18
BRANCH  16  26
ATOM     26  C   UNL     1      -0.934   1.685  -1.079  0.00  0.00    -0.075 C 
BRANCH  26  27
ATOM     27  C   UNL     1      -1.301   3.152  -0.844  0.00  0.00    -0.034 C 
ATOM     28  C   UNL     1      -2.039   3.695  -2.069  0.00  0.00    +0.005 C 
ATOM     29  C   UNL     1      -2.206   3.260   0.386  0.00  0.00    +0.005 C 
ENDBRANCH  26  27
ENDBRANCH  16  26
ENDBRANCH   1  16
TORSDOF 7
