REMARK  Name = ZINC27374849
REMARK  8 active torsions:
REMARK  status: ('A' for Active; 'I' for Inactive)
REMARK    1  A    between atoms: C_1  and  C_2
REMARK    2  A    between atoms: C_7  and  S_31
REMARK    3  A    between atoms: C_12  and  C_14
REMARK    4  A    between atoms: C_14  and  N_15
REMARK    5  A    between atoms: C_21  and  C_23
REMARK    6  A    between atoms: C_26  and  O_29
REMARK    7  A    between atoms: O_29  and  C_30
REMARK    8  A    between atoms: S_31  and  N_34
REMARK                            x       y       z     vdW  Elec       q    Type
REMARK                         _______ _______ _______ _____ _____    ______ ____
ROOT
ATOM      1  C   UNL     1       1.962   2.886   6.426  0.00  0.00    +0.029 C 
ATOM      2  C   UNL     1       1.742   3.508   5.046  0.00  0.00    +0.083 C 
ATOM      3  C   UNL     1       2.055   2.483   3.943  0.00  0.00    +0.059 C 
ATOM      4  C   UNL     1       0.751   2.320   3.195  0.00  0.00    -0.022 A 
ATOM      5  C   UNL     1       0.423   1.532   2.108  0.00  0.00    +0.034 A 
ATOM      6  C   UNL     1      -0.861   1.558   1.595  0.00  0.00    +0.105 A 
ATOM      7  C   UNL     1      -1.815   2.377   2.169  0.00  0.00    +0.030 A 
ATOM      8  C   UNL     1      -1.494   3.159   3.257  0.00  0.00    +0.026 A 
ATOM      9  C   UNL     1      -0.200   3.140   3.781  0.00  0.00    +0.040 A 
ATOM     10  N   UNL     1       0.330   3.852   4.862  0.00  0.00    -0.270 N 
ATOM     11  C   UNL     1      -0.358   4.725   5.623  0.00  0.00    +0.203 C 
ATOM     12  O   UNL     1       0.193   5.295   6.542  0.00  0.00    -0.277 OA
ENDROOT
BRANCH   6  13
ATOM     13  S   UNL     1      -1.277   0.553   0.208  0.00  0.00    +0.056 S 
ATOM     14  O   UNL     1      -0.064   0.294  -0.485  0.00  0.00    -0.153 OA
ATOM     15  O   UNL     1      -2.395   1.168  -0.417  0.00  0.00    -0.153 OA
BRANCH  13  16
ATOM     16  N   UNL     1      -1.806  -0.901   0.798  0.00  0.00    -0.204 NA
ATOM     17  H   UNL     1      -2.077  -1.560  -0.040  0.00  0.00    +0.144 HD
ATOM     18  H   UNL     1      -2.686  -0.739   1.437  0.00  0.00    +0.144 HD
ENDBRANCH  13  16
ENDBRANCH   6  13
BRANCH  11  19
ATOM     19  C   UNL     1      -1.813   4.995   5.334  0.00  0.00    +0.020 C 
BRANCH  19  20
ATOM     20  N   UNL     1      -2.334   5.965   6.306  0.00  0.00    +0.390 N 
ATOM     21  C   UNL     1      -2.168   5.484   7.656  0.00  0.00    -0.077 C 
ATOM     22  C   UNL     1      -3.384   5.820   8.541  0.00  0.00    -0.019 C 
ATOM     23  C   UNL     1      -3.922   7.243   8.281  0.00  0.00    -0.002 C 
ATOM     24  C   UNL     1      -2.829   8.264   8.118  0.00  0.00    -0.001 C 
ATOM     25  C   UNL     1      -2.482   8.388   6.617  0.00  0.00    -0.011 C 
ATOM     26  C   UNL     1      -1.660   7.273   6.163  0.00  0.00    -0.037 C 
ATOM     27  H   UNL     1      -3.412   6.079   6.119  0.00  0.00    -0.080 HD
BRANCH  26  28
ATOM     28  C   UNL     1      -1.314   7.484   4.711  0.00  0.00    -0.061 A 
ATOM     29  C   UNL     1      -2.310   7.451   3.753  0.00  0.00    +0.005 A 
ATOM     30  C   UNL     1      -1.996   7.650   2.422  0.00  0.00    +0.046 A 
ATOM     31  C   UNL     1      -0.680   7.873   2.047  0.00  0.00    +0.120 A 
ATOM     32  C   UNL     1       0.319   7.901   3.010  0.00  0.00    +0.046 A 
ATOM     33  C   UNL     1      -0.001   7.706   4.340  0.00  0.00    +0.005 A 
BRANCH  31  34
ATOM     34  O   UNL     1      -0.368   8.065   0.738  0.00  0.00    -0.495 OA
ATOM     35  C   UNL     1      -1.446   8.023  -0.199  0.00  0.00    +0.277 C 
ENDBRANCH  31  34
ENDBRANCH  26  28
ENDBRANCH  19  20
ENDBRANCH  11  19
TORSDOF 6
