REMARK  Name = ZINC22841585
REMARK  6 active torsions:
REMARK  status: ('A' for Active; 'I' for Inactive)
REMARK    1  A    between atoms: C_3  and  O_26
REMARK    2  A    between atoms: C_6  and  N_7
REMARK    3  A    between atoms: N_10  and  C_13
REMARK    4  A    between atoms: C_13  and  C_14
REMARK    5  A    between atoms: N_16  and  C_17
REMARK    6  A    between atoms: C_17  and  C_24
REMARK                            x       y       z     vdW  Elec       q    Type
REMARK                         _______ _______ _______ _____ _____    ______ ____
ROOT
ATOM      1  N   UNL     1       1.159   3.486   0.009  0.00  0.00    -0.333 N 
ATOM      2  C   UNL     1       0.378   4.009  -1.121  0.00  0.00    +0.086 C 
ATOM      3  C   UNL     1       0.316   5.535  -1.032  0.00  0.00    -0.059 C 
ATOM      4  N   UNL     1       1.681   6.080  -1.042  0.00  0.00    +0.387 N 
ATOM      5  C   UNL     1       2.462   5.557   0.088  0.00  0.00    -0.059 C 
ATOM      6  C   UNL     1       2.523   4.031  -0.001  0.00  0.00    +0.086 C 
ATOM      7  H   UNL     1       2.170   5.754  -1.972  0.00  0.00    -0.081 HD
ENDROOT
BRANCH   1  13
ATOM      8  C   UNL     1      -0.017   1.377   0.010  0.00  0.00    +0.026 A 
ATOM      9  C   UNL     1       0.002  -0.004   0.002  0.00  0.00    +0.047 A 
ATOM     10  C   UNL     1       1.212  -0.682  -0.013  0.00  0.00    +0.117 A 
ATOM     11  C   UNL     1       2.405   0.027  -0.020  0.00  0.00    +0.047 A 
ATOM     12  C   UNL     1       2.388   1.408  -0.013  0.00  0.00    +0.026 A 
ATOM     13  C   UNL     1       1.177   2.087   0.002  0.00  0.00    +0.030 A 
BRANCH  10  14
ATOM     14  O   UNL     1       1.230  -2.041  -0.021  0.00  0.00    -0.507 OA
ATOM     15  H   UNL     1       2.189  -2.579  -0.033  0.00  0.00    +0.292 HD
ENDBRANCH  10  14
ENDBRANCH   1  13
BRANCH   4  16
ATOM     16  C   UNL     1       1.662   7.549  -1.035  0.00  0.00    +0.019 C 
BRANCH  16  17
ATOM     17  C   UNL     1       1.070   8.050  -2.327  0.00  0.00    +0.198 C 
ATOM     18  O   UNL     1       0.701   7.261  -3.171  0.00  0.00    -0.278 OA
ATOM     19  N   UNL     1       0.952   9.375  -2.544  0.00  0.00    -0.299 N 
ATOM     20  H   UNL     1       1.287  10.090  -1.779  0.00  0.00    +0.150 HD
BRANCH  19  21
ATOM     21  C   UNL     1       0.376   9.862  -3.800  0.00  0.00    +0.121 C 
ATOM     22  C   UNL     1       1.197   9.299  -4.978  0.00  0.00    +0.041 C 
ATOM     23  C   UNL     1       0.352   9.356  -6.221  0.00  0.00    +0.003 C 
ATOM     24  C   UNL     1       0.594  10.639  -7.040  0.00  0.00    +0.000 C 
ATOM     25  C   UNL     1       0.719  11.896  -6.158  0.00  0.00    +0.000 C 
ATOM     26  C   UNL     1      -0.289  11.918  -5.041  0.00  0.00    +0.003 C 
ATOM     27  C   UNL     1       0.364  11.318  -3.780  0.00  0.00    +0.041 C 
BRANCH  21  28
ATOM     28  C   UNL     1      -1.008   9.375  -3.910  0.00  0.00    +0.088 C 
ATOM     29  N   UNL     1      -2.077   8.999  -3.996  0.00  0.00    -0.194 NA
ENDBRANCH  21  28
ENDBRANCH  19  21
ENDBRANCH  16  17
ENDBRANCH   4  16
TORSDOF 6
