REMARK  Name = ZINC21229917
REMARK  7 active torsions:
REMARK  status: ('A' for Active; 'I' for Inactive)
REMARK    1  A    between atoms: C_1  and  C_2
REMARK    2  A    between atoms: C_2  and  O_3
REMARK    3  A    between atoms: O_3  and  C_4
REMARK    4  A    between atoms: C_7  and  C_11
REMARK    5  A    between atoms: C_22  and  C_25
REMARK    6  A    between atoms: C_29  and  O_31
REMARK    7  A    between atoms: O_31  and  C_32
REMARK                            x       y       z     vdW  Elec       q    Type
REMARK                         _______ _______ _______ _____ _____    ______ ____
ROOT
ATOM      1  C   UNL     1       2.331   0.054   0.834  0.00  0.00    +0.063 C 
ATOM      2  C   UNL     1       1.315  -0.743   0.014  0.00  0.00    +0.109 C 
ATOM      3  C   UNL     1       0.002  -0.004   0.002  0.00  0.00    +0.218 C 
ATOM      4  O   UNL     1      -1.040  -0.623  -0.014  0.00  0.00    -0.275 OA
ATOM      5  N   UNL     1      -0.016   1.340   0.009  0.00  0.00    -0.289 N 
ATOM      6  C   UNL     1       1.148   2.066   0.002  0.00  0.00    +0.018 C 
ATOM      7  C   UNL     1       2.309   1.499   0.392  0.00  0.00    +0.020 C 
ATOM      8  C   UNL     1       3.511   2.226   0.401  0.00  0.00    +0.162 C 
ATOM      9  O   UNL     1       4.538   1.679   0.749  0.00  0.00    -0.292 OA
ATOM     10  C   UNL     1       3.546   3.672  -0.015  0.00  0.00    +0.088 C 
ATOM     11  C   UNL     1       2.182   4.307   0.277  0.00  0.00    +0.032 C 
ATOM     12  C   UNL     1       1.104   3.503  -0.453  0.00  0.00    +0.059 C 
ATOM     13  H   UNL     1      -0.976   1.877   0.021  0.00  0.00    +0.155 HD
ENDROOT
BRANCH   1  17
ATOM     14  C   UNL     1       1.319  -0.184   4.979  0.00  0.00    +0.139 A 
ATOM     15  C   UNL     1       0.420   0.361   4.075  0.00  0.00    +0.047 A 
ATOM     16  C   UNL     1       0.752   0.442   2.736  0.00  0.00    +0.008 A 
ATOM     17  C   UNL     1       1.975  -0.030   2.295  0.00  0.00    -0.038 A 
ATOM     18  C   UNL     1       2.873  -0.574   3.194  0.00  0.00    +0.028 A 
ATOM     19  C   UNL     1       2.549  -0.653   4.536  0.00  0.00    +0.083 A 
ATOM     20 CL   UNL     1       3.677  -1.336   5.665  0.00  0.00    -0.080 Cl
BRANCH  14  21
ATOM     21  O   UNL     1       0.997  -0.260   6.298  0.00  0.00    -0.491 OA
BRANCH  21  23
ATOM     22  C   UNL     1      -0.467   0.072   8.192  0.00  0.00    +0.048 C 
ATOM     23  C   UNL     1      -0.285   0.241   6.682  0.00  0.00    +0.226 C 
ENDBRANCH  21  23
ENDBRANCH  14  21
ENDBRANCH   1  17
BRANCH  11  24
ATOM     24  C   UNL     1       2.171   5.731  -0.215  0.00  0.00    -0.040 A 
ATOM     25  C   UNL     1       2.384   6.001  -1.554  0.00  0.00    +0.004 A 
ATOM     26  C   UNL     1       2.373   7.307  -2.009  0.00  0.00    +0.004 A 
ATOM     27  C   UNL     1       2.151   8.345  -1.125  0.00  0.00    +0.045 A 
ATOM     28  C   UNL     1       1.937   8.077   0.219  0.00  0.00    +0.120 A 
ATOM     29  C   UNL     1       1.943   6.765   0.672  0.00  0.00    +0.049 A 
BRANCH  28  30
ATOM     30  O   UNL     1       1.718   9.097   1.091  0.00  0.00    -0.495 OA
ATOM     31  C   UNL     1       1.721  10.421   0.553  0.00  0.00    +0.277 C 
ENDBRANCH  28  30
ENDBRANCH  11  24
TORSDOF 5
