REMARK  Name = ZINC31156245
REMARK  15 active torsions:
REMARK  status: ('A' for Active; 'I' for Inactive)
REMARK    1  A    between atoms: C_1  and  C_2
REMARK    2  A    between atoms: C_6  and  C_35
REMARK    3  A    between atoms: C_7  and  N_8
REMARK    4  A    between atoms: C_9  and  C_11
REMARK    5  A    between atoms: C_11  and  N_12
REMARK    6  A    between atoms: N_12  and  C_13
REMARK    7  A    between atoms: N_12  and  C_14
REMARK    8  A    between atoms: C_14  and  C_16
REMARK    9  A    between atoms: C_14  and  C_17
REMARK   10  A    between atoms: N_19  and  C_20
REMARK   11  A    between atoms: C_21  and  C_29
REMARK   12  A    between atoms: C_29  and  O_31
REMARK   13  A    between atoms: O_31  and  C_32
REMARK   14  A    between atoms: C_32  and  C_33
REMARK   15  A    between atoms: C_32  and  C_34
REMARK                            x       y       z     vdW  Elec       q    Type
REMARK                         _______ _______ _______ _____ _____    ______ ____
ROOT
ATOM      1  C   UNL     1      -1.528   3.581   1.532  0.00  0.00    +0.204 C 
ATOM      2  O   UNL     1      -1.445   2.821   0.591  0.00  0.00    -0.277 OA
ATOM      3  N   UNL     1      -1.598   4.910   1.320  0.00  0.00    -0.281 N 
ATOM      4  H   UNL     1      -1.673   5.601   2.173  0.00  0.00    +0.155 HD
ENDROOT
BRANCH   3   5
ATOM      5  C   UNL     1      -1.575   5.408   0.026  0.00  0.00    +0.086 A 
ATOM      6  C   UNL     1      -1.643   6.731  -0.391  0.00  0.00    +0.091 A 
ATOM      7  C   UNL     1      -1.594   6.987  -1.821  0.00  0.00    -0.021 A 
ATOM      8  C   UNL     1      -1.499   5.888  -2.599  0.00  0.00    -0.004 A 
ATOM      9  S   UNL     1      -1.464   4.530  -1.463  0.00  0.00    -0.077 S 
ATOM     10  C   UNL     1      -1.438   5.842  -4.095  0.00  0.00    +0.043 C 
ATOM     11  C   UNL     1      -1.876   7.210  -4.639  0.00  0.00    +0.005 C 
ATOM     12  C   UNL     1      -1.132   8.307  -3.872  0.00  0.00    +0.005 C 
ATOM     13  C   UNL     1      -1.651   8.380  -2.435  0.00  0.00    +0.037 C 
BRANCH   6  14
ATOM     14  C   UNL     1      -1.754   7.827   0.574  0.00  0.00    +0.342 C 
ATOM     15  O   UNL     1      -0.750   8.350   1.019  0.00  0.00    -0.245 OA
BRANCH  14  16
ATOM     16  O   UNL     1      -2.970   8.257   0.969  0.00  0.00    -0.458 OA
BRANCH  16  17
ATOM     17  C   UNL     1      -3.004   9.347   1.927  0.00  0.00    +0.171 C 
ATOM     18  C   UNL     1      -3.031  10.682   1.181  0.00  0.00    +0.052 C 
ATOM     19  C   UNL     1      -4.257   9.223   2.797  0.00  0.00    +0.052 C 
ENDBRANCH  16  17
ENDBRANCH  14  16
ENDBRANCH   6  14
ENDBRANCH   3   5
BRANCH   1  20
ATOM     20  C   UNL     1      -1.552   3.041   2.938  0.00  0.00    +0.017 C 
ATOM     21  C   UNL     1      -2.947   3.236   3.536  0.00  0.00    -0.004 C 
BRANCH  20  22
ATOM     22  N   UNL     1      -1.225   1.609   2.918  0.00  0.00    +0.391 N 
ATOM     23  C   UNL     1      -0.892   1.126   4.265  0.00  0.00    -0.094 C 
ATOM     24  H   UNL     1      -0.338   1.474   2.281  0.00  0.00    -0.080 HD
BRANCH  22  25
ATOM     25  C   UNL     1      -2.322   0.826   2.334  0.00  0.00    +0.020 C 
BRANCH  25  27
ATOM     26  N   UNL     1      -2.707  -1.496   1.572  0.00  0.00    -0.287 N 
ATOM     27  C   UNL     1      -1.862  -0.590   2.103  0.00  0.00    +0.201 C 
ATOM     28  O   UNL     1      -0.731  -0.916   2.396  0.00  0.00    -0.278 OA
ATOM     29  H   UNL     1      -3.708  -1.185   1.240  0.00  0.00    +0.155 HD
BRANCH  26  36
ATOM     30  C   UNL     1      -0.336  -2.057   0.102  0.00  0.00    +0.045 C 
ATOM     31  C   UNL     1      -1.160  -3.150   0.733  0.00  0.00    -0.029 A 
ATOM     32  C   UNL     1      -0.768  -4.468   0.611  0.00  0.00    +0.005 A 
ATOM     33  C   UNL     1      -1.527  -5.472   1.185  0.00  0.00    +0.001 A 
ATOM     34  C   UNL     1      -2.676  -5.159   1.887  0.00  0.00    +0.005 A 
ATOM     35  C   UNL     1      -3.070  -3.842   2.017  0.00  0.00    -0.029 A 
ATOM     36  C   UNL     1      -2.311  -2.831   1.442  0.00  0.00    +0.039 A 
ATOM     37  C   UNL     1      -4.322  -3.501   2.783  0.00  0.00    +0.045 C 
ENDBRANCH  26  36
ENDBRANCH  25  27
ENDBRANCH  22  25
ENDBRANCH  20  22
ENDBRANCH   1  20
TORSDOF 9
