REMARK  Name = ZINC09434181
REMARK  5 active torsions:
REMARK  status: ('A' for Active; 'I' for Inactive)
REMARK    1  A    between atoms: C_4  and  C_7
REMARK    2  A    between atoms: C_8  and  C_21
REMARK    3  A    between atoms: C_10  and  C_13
REMARK    4  A    between atoms: C_16  and  O_20
REMARK    5  A    between atoms: C_17  and  O_19
REMARK                            x       y       z     vdW  Elec       q    Type
REMARK                         _______ _______ _______ _____ _____    ______ ____
ROOT
ATOM      1  C   UNL     1       3.712  -0.652  -0.080  0.00  0.00    +0.072 A 
ATOM      2  C   UNL     1       4.001  -1.821  -0.763  0.00  0.00    +0.072 A 
ATOM      3  N   UNL     1       5.258  -2.176  -0.453  0.00  0.00    -0.339 N 
ATOM      4  C   UNL     1       5.770  -1.300   0.382  0.00  0.00    +0.117 A 
ATOM      5  N   UNL     1       4.843  -0.331   0.637  0.00  0.00    -0.339 N 
ATOM      6  H   UNL     1       4.959   0.439   1.216  0.00  0.00    +0.167 HD
ATOM      7  H   UNL     1       5.718  -2.959  -0.793  0.00  0.00    +0.167 HD
ENDROOT
BRANCH   2   8
ATOM      8  C   UNL     1       3.087  -2.549  -1.673  0.00  0.00    +0.001 A 
ATOM      9  C   UNL     1       2.383  -1.844  -2.655  0.00  0.00    +0.011 A 
ATOM     10  C   UNL     1       1.534  -2.526  -3.499  0.00  0.00    +0.016 A 
ATOM     11  C   UNL     1       1.387  -3.894  -3.369  0.00  0.00    +0.021 A 
ATOM     12  C   UNL     1       2.076  -4.633  -2.396  0.00  0.00    -0.002 A 
ATOM     13  C   UNL     1       2.944  -3.920  -1.544  0.00  0.00    +0.019 A 
ATOM     14  C   UNL     1       1.811  -6.090  -2.384  0.00  0.00    -0.003 A 
ATOM     15  C   UNL     1       2.368  -7.053  -1.516  0.00  0.00    +0.009 A 
ATOM     16  C   UNL     1       2.023  -8.376  -1.625  0.00  0.00    +0.001 A 
ATOM     17  C   UNL     1       1.122  -8.806  -2.588  0.00  0.00    +0.001 A 
ATOM     18  C   UNL     1       0.560  -7.886  -3.451  0.00  0.00    +0.015 A 
ATOM     19  C   UNL     1       0.902  -6.553  -3.347  0.00  0.00    +0.020 A 
ATOM     20  S   UNL     1       0.417  -5.098  -4.239  0.00  0.00    -0.088 S 
ENDBRANCH   2   8
BRANCH   1  24
ATOM     21  C   UNL     1       0.067   1.522  -0.186  0.00  0.00    +0.000 A 
ATOM     22  C   UNL     1       0.045   0.150  -0.003  0.00  0.00    +0.001 A 
ATOM     23  C   UNL     1       1.226  -0.562   0.032  0.00  0.00    +0.010 A 
ATOM     24  C   UNL     1       2.445   0.104  -0.117  0.00  0.00    +0.000 A 
ATOM     25  C   UNL     1       2.458   1.489  -0.301  0.00  0.00    +0.010 A 
ATOM     26  C   UNL     1       1.270   2.188  -0.334  0.00  0.00    +0.001 A 
ENDBRANCH   1  24
BRANCH   4  27
ATOM     27  C   UNL     1       7.133  -1.352   0.949  0.00  0.00    +0.019 A 
ATOM     28  C   UNL     1       7.997  -2.393   0.601  0.00  0.00    +0.015 A 
ATOM     29  C   UNL     1       9.269  -2.440   1.131  0.00  0.00    +0.050 A 
ATOM     30  C   UNL     1       9.694  -1.455   2.011  0.00  0.00    +0.158 A 
ATOM     31  C   UNL     1       8.838  -0.414   2.362  0.00  0.00    +0.159 A 
ATOM     32  C   UNL     1       7.564  -0.358   1.830  0.00  0.00    +0.060 A 
BRANCH  31  33
ATOM     33  O   UNL     1       9.258   0.550   3.224  0.00  0.00    -0.503 OA
ATOM     34  H   UNL     1       9.681   1.306   2.794  0.00  0.00    +0.292 HD
ENDBRANCH  31  33
BRANCH  30  35
ATOM     35  O   UNL     1      10.949  -1.507   2.531  0.00  0.00    -0.503 OA
ATOM     36  H   UNL     1      11.613  -1.045   2.002  0.00  0.00    +0.292 HD
ENDBRANCH  30  35
ENDBRANCH   4  27
TORSDOF 5
