REMARK  Name = ZINC57991591
REMARK  6 active torsions:
REMARK  status: ('A' for Active; 'I' for Inactive)
REMARK    1  A    between atoms: C_3  and  C_6
REMARK    2  A    between atoms: C_6  and  C_8
REMARK    3  A    between atoms: C_6  and  N_13
REMARK    4  A    between atoms: C_14  and  C_16
REMARK    5  A    between atoms: C_16  and  N_17
REMARK    6  A    between atoms: C_18  and  C_20
REMARK                            x       y       z     vdW  Elec       q    Type
REMARK                         _______ _______ _______ _____ _____    ______ ____
ROOT
ATOM      1  N   UNL     1       4.768   0.874  -0.661  0.00  0.00    -0.306 N 
ATOM      2  C   UNL     1       5.135   1.064  -1.944  0.00  0.00    +0.231 C 
ATOM      3  O   UNL     1       4.744   2.041  -2.547  0.00  0.00    -0.274 OA
ATOM      4  H   UNL     1       5.140   0.134  -0.155  0.00  0.00    +0.149 HD
ENDROOT
BRANCH   1   5
ATOM      5  C   UNL     1       3.810   1.784  -0.030  0.00  0.00    +0.113 C 
BRANCH   5   8
ATOM      6  C   UNL     1       0.105   1.365  -0.813  0.00  0.00    +0.008 A 
ATOM      7  C   UNL     1       1.300   2.026  -0.600  0.00  0.00    +0.013 A 
ATOM      8  C   UNL     1       2.407   1.304  -0.301  0.00  0.00    +0.010 A 
ATOM      9  S   UNL     1       1.773  -0.365  -0.314  0.00  0.00    -0.100 S 
ATOM     10  C   UNL     1       0.075   0.014  -0.717  0.00  0.00    +0.045 A 
ENDBRANCH   5   8
BRANCH   5  11
ATOM     11  C   UNL     1       4.054   1.816   1.480  0.00  0.00    +0.014 C 
ATOM     12  C   UNL     1       3.143   2.871   2.141  0.00  0.00    +0.006 C 
ATOM     13  C   UNL     1       4.023   3.486   3.258  0.00  0.00    +0.000 C 
ATOM     14  C   UNL     1       5.423   3.542   2.598  0.00  0.00    +0.000 C 
ATOM     15  C   UNL     1       5.504   2.242   1.771  0.00  0.00    +0.006 C 
ENDBRANCH   5  11
ENDBRANCH   1   5
BRANCH   2  16
ATOM     16  C   UNL     1       6.029   0.064  -2.628  0.00  0.00    +0.200 C 
BRANCH  16  17
ATOM     17  N   UNL     1       6.279   0.494  -4.006  0.00  0.00    -0.300 N 
ATOM     18  C   UNL     1       7.059  -0.251  -4.814  0.00  0.00    +0.280 C 
ATOM     19  O   UNL     1       7.555  -1.282  -4.400  0.00  0.00    -0.267 OA
ATOM     20  H   UNL     1       5.884   1.316  -4.337  0.00  0.00    +0.150 HD
BRANCH  18  21
ATOM     21  C   UNL     1       7.309   0.180  -6.193  0.00  0.00    +0.191 A 
ATOM     22  C   UNL     1       8.071  -0.480  -7.114  0.00  0.00    +0.056 A 
ATOM     23  C   UNL     1       8.035   0.284  -8.290  0.00  0.00    +0.058 A 
ATOM     24  C   UNL     1       7.262   1.366  -8.038  0.00  0.00    +0.171 A 
ATOM     25  O   UNL     1       6.822   1.296  -6.775  0.00  0.00    -0.444 OA
ATOM     26 BR   UNL     1       6.863   2.745  -9.269  0.00  0.00    -0.008 Br
ENDBRANCH  18  21
ENDBRANCH  16  17
ENDBRANCH   2  16
TORSDOF 6
