REMARK  Name = ZINC33328493
REMARK  8 active torsions:
REMARK  status: ('A' for Active; 'I' for Inactive)
REMARK    1  A    between atoms: C_1  and  C_2
REMARK    2  A    between atoms: C_5  and  C_21
REMARK    3  A    between atoms: C_6  and  O_8
REMARK    4  A    between atoms: O_8  and  C_9
REMARK    5  A    between atoms: C_9  and  C_10
REMARK    6  A    between atoms: N_12  and  N_13
REMARK    7  A    between atoms: C_14  and  C_15
REMARK    8  A    between atoms: C_16  and  C_20
REMARK                            x       y       z     vdW  Elec       q    Type
REMARK                         _______ _______ _______ _____ _____    ______ ____
ROOT
ATOM      1  C   UNL     1      -0.796  -2.939   4.886  0.00  0.00    +0.270 C 
ATOM      2  O   UNL     1      -0.522  -4.095   4.637  0.00  0.00    -0.270 OA
ATOM      3  N   UNL     1      -0.621  -2.459   6.133  0.00  0.00    -0.204 N 
ATOM      4  H   UNL     1      -0.840  -1.535   6.332  0.00  0.00    +0.177 HD
ENDROOT
BRANCH   3   5
ATOM      5  N   UNL     1      -0.122  -3.294   7.142  0.00  0.00    -0.187 NA
ATOM      6  C   UNL     1       0.175  -2.800   8.307  0.00  0.00    +0.145 C 
BRANCH   6   7
ATOM      7  C   UNL     1       0.157  -1.348   8.514  0.00  0.00    +0.035 A 
ATOM      8  C   UNL     1       0.340  -0.631   9.684  0.00  0.00    -0.035 A 
ATOM      9  C   UNL     1       0.277   0.742   9.626  0.00  0.00    +0.011 A 
ATOM     10  C   UNL     1       0.040   1.347   8.432  0.00  0.00    +0.046 A 
ATOM     11  S   UNL     1      -0.098  -0.044   7.322  0.00  0.00    -0.095 S 
ATOM     12  C   UNL     1       0.600  -1.337  10.990  0.00  0.00    +0.045 C 
ENDBRANCH   6   7
ENDBRANCH   3   5
BRANCH   1  13
ATOM     13  C   UNL     1      -1.331  -2.041   3.801  0.00  0.00    +0.326 C 
BRANCH  13  14
ATOM     14  O   UNL     1      -1.426  -2.775   2.579  0.00  0.00    -0.482 OA
BRANCH  14  20
ATOM     15  C   UNL     1      -3.128   1.356   0.613  0.00  0.00    +0.044 C 
ATOM     16  C   UNL     1      -2.734  -0.094   0.496  0.00  0.00    -0.047 A 
ATOM     17  C   UNL     1      -2.851  -0.746  -0.719  0.00  0.00    +0.004 A 
ATOM     18  C   UNL     1      -2.491  -2.076  -0.829  0.00  0.00    +0.007 A 
ATOM     19  C   UNL     1      -2.014  -2.757   0.274  0.00  0.00    -0.009 A 
ATOM     20  C   UNL     1      -1.896  -2.106   1.492  0.00  0.00    +0.124 A 
ATOM     21  C   UNL     1      -2.252  -0.770   1.600  0.00  0.00    +0.049 A 
ATOM     22  C   UNL     1      -1.622  -4.208   0.152  0.00  0.00    +0.047 C 
ENDBRANCH  14  20
ENDBRANCH  13  14
ENDBRANCH   1  13
TORSDOF 5
