REMARK  Name = ZINC11424725
REMARK  10 active torsions:
REMARK  status: ('A' for Active; 'I' for Inactive)
REMARK    1  A    between atoms: C_1  and  C_2
REMARK    2  A    between atoms: C_2  and  O_3
REMARK    3  A    between atoms: O_3  and  C_4
REMARK    4  A    between atoms: C_4  and  C_6
REMARK    5  A    between atoms: C_7  and  C_20
REMARK    6  A    between atoms: C_12  and  C_14
REMARK    7  A    between atoms: C_20  and  S_21
REMARK    8  A    between atoms: S_21  and  C_22
REMARK    9  A    between atoms: N_26  and  C_27
REMARK   10  A    between atoms: C_33  and  C_36
REMARK                            x       y       z     vdW  Elec       q    Type
REMARK                         _______ _______ _______ _____ _____    ______ ____
ROOT
ATOM      1  C   UNL     1      -4.850   2.058  -0.289  0.00  0.00    +0.079 C 
ATOM      2  C   UNL     1      -3.945   1.839  -1.267  0.00  0.00    +0.034 C 
ATOM      3  N   UNL     1      -4.128   2.346  -2.522  0.00  0.00    -0.272 N 
ATOM      4  C   UNL     1      -5.187   3.085  -2.877  0.00  0.00    +0.304 C 
ATOM      5  O   UNL     1      -5.262   3.493  -4.020  0.00  0.00    -0.252 OA
ATOM      6  N   UNL     1      -6.171   3.392  -2.010  0.00  0.00    -0.288 N 
ATOM      7  C   UNL     1      -6.068   2.893  -0.628  0.00  0.00    +0.144 C 
ATOM      8  H   UNL     1      -3.454   2.160  -3.194  0.00  0.00    +0.156 HD
ATOM      9  H   UNL     1      -6.929   3.929  -2.288  0.00  0.00    +0.151 HD
ENDROOT
BRANCH   7  10
ATOM     10  C   UNL     1      -7.291   2.059  -0.343  0.00  0.00    -0.023 A 
ATOM     11  C   UNL     1      -7.796   1.217  -1.316  0.00  0.00    +0.006 A 
ATOM     12  C   UNL     1      -8.915   0.450  -1.054  0.00  0.00    +0.000 A 
ATOM     13  C   UNL     1      -9.535   0.531   0.179  0.00  0.00    +0.000 A 
ATOM     14  C   UNL     1      -9.033   1.376   1.151  0.00  0.00    +0.000 A 
ATOM     15  C   UNL     1      -7.911   2.141   0.890  0.00  0.00    +0.006 A 
ENDBRANCH   7  10
BRANCH   1  16
ATOM     16  C   UNL     1      -4.665   1.528   1.010  0.00  0.00    +0.339 C 
ATOM     17  O   UNL     1      -3.611   0.998   1.306  0.00  0.00    -0.245 OA
BRANCH  16  18
ATOM     18  O   UNL     1      -5.657   1.612   1.921  0.00  0.00    -0.462 OA
BRANCH  18  20
ATOM     19  C   UNL     1      -6.632   1.244   4.101  0.00  0.00    +0.048 C 
ATOM     20  C   UNL     1      -5.401   1.057   3.212  0.00  0.00    +0.229 C 
ENDBRANCH  18  20
ENDBRANCH  16  18
ENDBRANCH   1  16
BRANCH   2  21
ATOM     21  C   UNL     1      -2.717   1.018  -0.971  0.00  0.00    +0.128 C 
BRANCH  21  22
ATOM     22  S   UNL     1      -1.336   2.122  -0.563  0.00  0.00    -0.080 S 
BRANCH  22  23
ATOM     23  C   UNL     1       0.007   1.025  -0.247  0.00  0.00    +0.193 A 
ATOM     24  N   UNL     1      -0.037  -0.284  -0.308  0.00  0.00    -0.121 NA
ATOM     25  N   UNL     1       1.238  -0.774   0.007  0.00  0.00    -0.112 NA
ATOM     26  C   UNL     1       2.018   0.251   0.249  0.00  0.00    +0.221 A 
ATOM     27  N   UNL     1       1.278   1.390   0.098  0.00  0.00    -0.287 N 
ATOM     28  N   UNL     1       3.361   0.191   0.597  0.00  0.00    -0.300 N 
ATOM     29  C   UNL     1       4.181   0.978  -0.333  0.00  0.00    +0.108 C 
ATOM     30  C   UNL     1       5.629   1.008   0.162  0.00  0.00    +0.022 C 
ATOM     31  C   UNL     1       6.162  -0.424   0.254  0.00  0.00    -0.011 C 
ATOM     32  C   UNL     1       5.262  -1.236   1.190  0.00  0.00    +0.022 C 
ATOM     33  C   UNL     1       3.824  -1.201   0.665  0.00  0.00    +0.108 C 
ATOM     34  C   UNL     1       7.588  -0.405   0.806  0.00  0.00    +0.007 C 
BRANCH  27  35
ATOM     35  C   UNL     1       1.762   2.761   0.276  0.00  0.00    +0.093 C 
ATOM     36  C   UNL     1       0.715   3.861   0.467  0.00  0.00    +0.027 C 
ATOM     37  C   UNL     1       1.487   3.759  -0.850  0.00  0.00    +0.027 C 
ENDBRANCH  27  35
ENDBRANCH  22  23
ENDBRANCH  21  22
ENDBRANCH   2  21
TORSDOF 8
