REMARK  Name = ZINC39856331
REMARK  7 active torsions:
REMARK  status: ('A' for Active; 'I' for Inactive)
REMARK    1  A    between atoms: C_1  and  C_2
REMARK    2  A    between atoms: C_6  and  C_7
REMARK    3  A    between atoms: N_9  and  C_10
REMARK    4  A    between atoms: C_12  and  N_17
REMARK    5  A    between atoms: C_21  and  C_29
REMARK    6  A    between atoms: C_21  and  C_30
REMARK    7  A    between atoms: N_24  and  N_25
REMARK                            x       y       z     vdW  Elec       q    Type
REMARK                         _______ _______ _______ _____ _____    ______ ____
ROOT
ATOM      1  C   UNL     1      -0.006   1.502   0.010  0.00  0.00    +0.048 C 
ATOM      2  C   UNL     1       0.021  -0.004   0.002  0.00  0.00    +0.009 A 
ATOM      3  C   UNL     1       0.039  -0.839  -1.123  0.00  0.00    +0.042 A 
ATOM      4  C   UNL     1       0.059  -2.138  -0.673  0.00  0.00    +0.116 A 
ATOM      5  O   UNL     1       0.057  -2.112   0.658  0.00  0.00    -0.454 OA
ATOM      6  C   UNL     1       0.039  -0.831   1.091  0.00  0.00    +0.193 A 
ATOM      7  C   UNL     1       0.076  -3.327  -1.599  0.00  0.00    +0.081 C 
ATOM      8  C   UNL     1      -0.440  -2.905  -2.978  0.00  0.00    -0.023 C 
ATOM      9  C   UNL     1       0.330  -1.684  -3.493  0.00  0.00    +0.064 C 
ATOM     10  C   UNL     1       0.040  -0.512  -2.567  0.00  0.00    +0.071 C 
ATOM     11  N   UNL     1      -0.189   0.685  -3.010  0.00  0.00    -0.183 NA
ATOM     12  C   UNL     1      -0.262  -4.065  -3.959  0.00  0.00    +0.011 C 
ATOM     13  C   UNL     1      -1.926  -2.557  -2.874  0.00  0.00    +0.011 C 
ENDROOT
BRANCH  11  14
ATOM     14  N   UNL     1      -0.175   0.936  -4.388  0.00  0.00    -0.191 N 
ATOM     15  C   UNL     1      -0.413   2.180  -4.848  0.00  0.00    +0.317 C 
ATOM     16  O   UNL     1      -0.401   2.399  -6.044  0.00  0.00    -0.251 OA
ATOM     17  N   UNL     1      -0.664   3.183  -3.983  0.00  0.00    -0.312 N 
ATOM     18  H   UNL     1       0.005   0.215  -5.011  0.00  0.00    +0.179 HD
ATOM     19  H   UNL     1      -0.673   3.009  -3.028  0.00  0.00    +0.147 HD
ATOM     20  H   UNL     1      -0.835   4.078  -4.314  0.00  0.00    +0.147 HD
ENDBRANCH  11  14
BRANCH   6  21
ATOM     21  C   UNL     1       0.035  -0.400   2.493  0.00  0.00    +0.284 C 
ATOM     22  O   UNL     1       0.014   0.786   2.765  0.00  0.00    -0.266 OA
ATOM     23  N   UNL     1       0.054  -1.318   3.480  0.00  0.00    -0.278 N 
ATOM     24  H   UNL     1      -0.010  -2.262   3.266  0.00  0.00    +0.155 HD
BRANCH  23  25
ATOM     25  C   UNL     1       0.167  -0.909   4.813  0.00  0.00    +0.050 A 
ATOM     26  C   UNL     1       0.759   0.309   5.120  0.00  0.00    +0.057 A 
ATOM     27  C   UNL     1       0.869   0.710   6.437  0.00  0.00    +0.128 A 
ATOM     28  C   UNL     1       0.391  -0.101   7.450  0.00  0.00    +0.034 A 
ATOM     29  C   UNL     1      -0.199  -1.314   7.149  0.00  0.00    +0.019 A 
ATOM     30  C   UNL     1      -0.318  -1.718   5.833  0.00  0.00    +0.039 A 
ATOM     31 BR   UNL     1      -1.133  -3.374   5.421  0.00  0.00    -0.048 Br
BRANCH  27  32
ATOM     32  N   UNL     1       1.500   2.008   6.764  0.00  0.00    +0.056 N 
ATOM     33  O   UNL     1       1.918   2.717   5.879  0.00  0.00    -0.126 OA
ATOM     34  O   UNL     1       1.596   2.360   7.917  0.00  0.00    -0.126 OA
ENDBRANCH  27  32
ENDBRANCH  23  25
ENDBRANCH   6  21
TORSDOF 4
