REMARK  Name = ZINC20214595
REMARK  4 active torsions:
REMARK  status: ('A' for Active; 'I' for Inactive)
REMARK    1  A    between atoms: CB_1  and  CA_2
REMARK    2  A    between atoms: CA_2  and  C_4
REMARK    3  A    between atoms: CA_2  and  N_7
REMARK    4  A    between atoms: C_8  and  CA_10
REMARK                            x       y       z     vdW  Elec       q    Type
REMARK                         _______ _______ _______ _____ _____    ______ ____
ROOT
ATOM      1  N   UNL     1      -1.083   3.518   0.026  0.00  0.00    -0.297 N 
ATOM      2  C   UNL     1      -2.009   4.358   0.529  0.00  0.00    +0.261 C 
ATOM      3  O   UNL     1      -3.052   3.918   0.977  0.00  0.00    -0.269 OA
ATOM      4  H   UNL     1      -0.141   3.916  -0.379  0.00  0.00    +0.150 HD
ENDROOT
BRANCH   2   5
ATOM      5  CA  UNL     1      -1.761   5.802   0.535  0.00  0.00    +0.104 A 
ATOM      6  C   UNL     1      -2.617   6.775   1.010  0.00  0.00    +0.053 A 
ATOM      7  C   UNL     1      -1.984   8.007   0.825  0.00  0.00    +0.078 A 
ATOM      8  C   UNL     1      -0.779   7.773   0.245  0.00  0.00    +0.126 A 
ATOM      9  N   UNL     1      -0.632   6.437   0.064  0.00  0.00    -0.341 N 
ATOM     10  H   UNL     1       0.190   5.848  -0.369  0.00  0.00    +0.167 HD
ATOM     11 CL   UNL     1       0.383   8.986  -0.194  0.00  0.00    -0.063 Cl
ATOM     12 CL   UNL     1      -2.626   9.561   1.256  0.00  0.00    -0.080 Cl
ENDBRANCH   2   5
BRANCH   1  14
ATOM     13  CB  UNL     1      -2.134   1.700  -1.228  0.00  0.00    +0.040 C 
ATOM     14  CA  UNL     1      -1.331   2.074   0.020  0.00  0.00    +0.183 C 
BRANCH  14  15
ATOM     15  C   UNL     1      -0.016   1.338   0.009  0.00  0.00    +0.376 C 
ATOM     16  O   UNL     1       1.022   1.956   0.003  0.00  0.00    -0.244 OA
ATOM     17  OXT UNL     1       0.002  -0.004   0.002  0.00  0.00    -0.244 OA
ENDBRANCH  14  15
ENDBRANCH   1  14
TORSDOF 3
