REMARK  Name = ZINC09465916
REMARK  11 active torsions:
REMARK  status: ('A' for Active; 'I' for Inactive)
REMARK    1  A    between atoms: C_1  and  C_2
REMARK    2  A    between atoms: C_2  and  C_3
REMARK    3  A    between atoms: C_2  and  N_4
REMARK    4  A    between atoms: N_4  and  C_5
REMARK    5  A    between atoms: C_5  and  C_6
REMARK    6  A    between atoms: C_12  and  C_14
REMARK    7  A    between atoms: C_14  and  O_15
REMARK    8  A    between atoms: O_15  and  C_16
REMARK    9  A    between atoms: C_16  and  C_18
REMARK   10  A    between atoms: N_21  and  C_24
REMARK   11  A    between atoms: C_27  and  C_29
REMARK                            x       y       z     vdW  Elec       q    Type
REMARK                         _______ _______ _______ _____ _____    ______ ____
ROOT
ATOM      1  C   UNL     1       3.123  -1.441   5.108  0.00  0.00    +0.311 C 
ATOM      2  O   UNL     1       2.219  -1.765   5.841  0.00  0.00    -0.251 OA
ENDROOT
BRANCH   1   3
ATOM      3  C   UNL     1       4.542  -1.444   5.614  0.00  0.00    +0.101 C 
ATOM      4  C   UNL     1       5.382  -2.410   4.774  0.00  0.00    +0.033 C 
ATOM      5  C   UNL     1       6.807  -2.456   5.332  0.00  0.00    +0.107 C 
ATOM      6  N   UNL     1       6.773  -2.896   6.732  0.00  0.00    -0.317 N 
ATOM      7  C   UNL     1       6.012  -1.957   7.566  0.00  0.00    +0.107 C 
ATOM      8  C   UNL     1       4.563  -1.897   7.076  0.00  0.00    +0.033 C 
BRANCH   6   9
ATOM      9  C   UNL     1       8.059  -3.074   7.229  0.00  0.00    +0.099 A 
ATOM     10  C   UNL     1       8.939  -3.930   6.575  0.00  0.00    +0.042 A 
ATOM     11  C   UNL     1      10.215  -4.098   7.081  0.00  0.00    +0.017 A 
ATOM     12  C   UNL     1      10.571  -3.400   8.229  0.00  0.00    +0.071 A 
ATOM     13  C   UNL     1       9.647  -2.567   8.826  0.00  0.00    +0.096 A 
ATOM     14  N   UNL     1       8.386  -2.373   8.354  0.00  0.00    -0.349 N 
ATOM     15  H   UNL     1       7.723  -1.740   8.814  0.00  0.00    +0.167 HD
BRANCH  12  16
ATOM     16  C   UNL     1      11.951  -3.551   8.815  0.00  0.00    +0.419 C 
ATOM     17  F   UNL     1      12.803  -2.594   8.254  0.00  0.00    -0.166 F 
ATOM     18  F   UNL     1      11.891  -3.369  10.200  0.00  0.00    -0.166 F 
ATOM     19  F   UNL     1      12.439  -4.832   8.534  0.00  0.00    -0.166 F 
ENDBRANCH  12  16
ENDBRANCH   6   9
ENDBRANCH   1   3
BRANCH   1  20
ATOM     20  O   UNL     1       2.862  -1.077   3.842  0.00  0.00    -0.455 OA
BRANCH  20  21
ATOM     21  C   UNL     1       1.472  -1.098   3.423  0.00  0.00    +0.327 C 
BRANCH  21  23
ATOM     22  N   UNL     1       0.166  -0.509   1.407  0.00  0.00    -0.292 N 
ATOM     23  C   UNL     1       1.374  -0.663   1.984  0.00  0.00    +0.254 C 
ATOM     24  O   UNL     1       2.383  -0.452   1.345  0.00  0.00    -0.272 OA
BRANCH  22  26
ATOM     25  C   UNL     1      -1.998   0.328   2.180  0.00  0.00    +0.028 C 
ATOM     26  C   UNL     1      -1.048  -0.871   2.142  0.00  0.00    +0.070 C 
ATOM     27  C   UNL     1      -1.736  -2.045   1.442  0.00  0.00    +0.028 C 
ENDBRANCH  22  26
BRANCH  22  28
ATOM     28  C   UNL     1       0.067   0.021   0.045  0.00  0.00    +0.143 C 
BRANCH  28  29
ATOM     29  C   UNL     1       0.104   1.527   0.088  0.00  0.00    -0.030 A 
ATOM     30  C   UNL     1      -1.075   2.249   0.054  0.00  0.00    +0.005 A 
ATOM     31  C   UNL     1      -1.041   3.630   0.098  0.00  0.00    +0.000 A 
ATOM     32  C   UNL     1       0.172   4.290   0.167  0.00  0.00    +0.000 A 
ATOM     33  C   UNL     1       1.351   3.569   0.195  0.00  0.00    +0.000 A 
ATOM     34  C   UNL     1       1.317   2.187   0.156  0.00  0.00    +0.005 A 
ENDBRANCH  28  29
ENDBRANCH  22  28
ENDBRANCH  21  23
ENDBRANCH  20  21
ENDBRANCH   1  20
TORSDOF 9
