REMARK  Name = ZINC64740182
REMARK  7 active torsions:
REMARK  status: ('A' for Active; 'I' for Inactive)
REMARK    1  A    between atoms: C_1  and  C_2
REMARK    2  A    between atoms: C_2  and  C_3
REMARK    3  A    between atoms: C_3  and  C_4
REMARK    4  A    between atoms: C_4  and  S_5
REMARK    5  A    between atoms: S_5  and  C_6
REMARK    6  A    between atoms: C_12  and  C_20
REMARK    7  A    between atoms: N_22  and  C_23
REMARK                            x       y       z     vdW  Elec       q    Type
REMARK                         _______ _______ _______ _____ _____    ______ ____
ROOT
ATOM      1  C   UNL     1      -2.939  -4.445   0.007  0.00  0.00    +0.182 C 
ATOM      2  N   UNL     1      -1.703  -4.914  -0.005  0.00  0.00    -0.154 NA
ATOM      3  C   UNL     1      -1.439  -6.221   0.051  0.00  0.00    +0.249 C 
ATOM      4  O   UNL     1      -0.300  -6.645   0.013  0.00  0.00    -0.273 OA
ATOM      5  C   UNL     1      -2.630  -7.151   0.166  0.00  0.00    +0.153 C 
ATOM      6  C   UNL     1      -2.557  -8.166  -0.977  0.00  0.00    +0.103 C 
ATOM      7  C   UNL     1      -3.655  -9.212  -0.772  0.00  0.00    +0.110 C 
ATOM      8  C   UNL     1      -4.978  -8.558  -0.501  0.00  0.00    +0.219 C 
ATOM      9  O   UNL     1      -5.989  -9.208  -0.661  0.00  0.00    -0.275 OA
ATOM     10  N   UNL     1      -5.093  -7.285  -0.088  0.00  0.00    -0.273 N 
ATOM     11  C   UNL     1      -3.994  -6.495   0.063  0.00  0.00    +0.117 C 
ATOM     12  N   UNL     1      -4.047  -5.194   0.017  0.00  0.00    -0.212 NA
ATOM     13  H   UNL     1      -5.969  -6.924   0.119  0.00  0.00    +0.156 HD
ENDROOT
BRANCH   6  14
ATOM     14  C   UNL     1      -2.764  -7.461  -2.293  0.00  0.00    +0.222 C 
ATOM     15  O   UNL     1      -2.952  -6.263  -2.316  0.00  0.00    -0.275 OA
ATOM     16  N   UNL     1      -2.741  -8.162  -3.444  0.00  0.00    -0.285 N 
ATOM     17  H   UNL     1      -2.524  -9.107  -3.432  0.00  0.00    +0.155 HD
BRANCH  16  18
ATOM     18  C   UNL     1      -3.029  -7.526  -4.656  0.00  0.00    +0.033 A 
ATOM     19  C   UNL     1      -3.710  -8.209  -5.656  0.00  0.00    +0.023 A 
ATOM     20  C   UNL     1      -3.993  -7.579  -6.851  0.00  0.00    +0.002 A 
ATOM     21  C   UNL     1      -3.599  -6.269  -7.054  0.00  0.00    +0.000 A 
ATOM     22  C   UNL     1      -2.920  -5.586  -6.061  0.00  0.00    +0.002 A 
ATOM     23  C   UNL     1      -2.640  -6.209  -4.861  0.00  0.00    +0.023 A 
ENDBRANCH  16  18
ENDBRANCH   6  14
BRANCH   1  24
ATOM     24  S   UNL     1      -3.142  -2.695   0.019  0.00  0.00    -0.088 S 
BRANCH  24  25
ATOM     25  C   UNL     1      -1.445  -2.055   0.002  0.00  0.00    +0.077 C 
BRANCH  25  26
ATOM     26  C   UNL     1      -1.476  -0.526   0.011  0.00  0.00    +0.011 C 
BRANCH  26  28
ATOM     27  C   UNL     1      -0.075   1.543   0.005  0.00  0.00    +0.004 C 
ATOM     28  C   UNL     1      -0.044   0.014  -0.004  0.00  0.00    -0.003 C 
ENDBRANCH  26  28
ENDBRANCH  25  26
ENDBRANCH  24  25
ENDBRANCH   1  24
TORSDOF 6
