REMARK  Name = ZINC46698943
REMARK  7 active torsions:
REMARK  status: ('A' for Active; 'I' for Inactive)
REMARK    1  A    between atoms: C_1  and  C_2
REMARK    2  A    between atoms: C_2  and  C_4
REMARK    3  A    between atoms: C_2  and  N_11
REMARK    4  A    between atoms: C_12  and  C_14
REMARK    5  A    between atoms: N_17  and  C_20
REMARK    6  A    between atoms: C_21  and  C_30
REMARK    7  A    between atoms: C_23  and  C_25
REMARK                            x       y       z     vdW  Elec       q    Type
REMARK                         _______ _______ _______ _____ _____    ______ ____
ROOT
ATOM      1  C   UNL     1       2.851  -1.139   2.341  0.00  0.00    +0.078 C 
ATOM      2  C   UNL     1       2.575  -0.120   3.450  0.00  0.00    +0.032 C 
ATOM      3  C   UNL     1       3.215  -0.605   4.754  0.00  0.00    +0.109 C 
ATOM      4  N   UNL     1       4.641  -0.864   4.514  0.00  0.00    -0.299 N 
ATOM      5  C   UNL     1       5.021  -1.759   3.412  0.00  0.00    +0.109 C 
ATOM      6  C   UNL     1       4.361  -1.261   2.122  0.00  0.00    +0.032 C 
ENDROOT
BRANCH   4   7
ATOM      7  C   UNL     1       5.604  -0.278   5.306  0.00  0.00    +0.228 A 
ATOM      8  C   UNL     1       6.143  -0.797   6.473  0.00  0.00    +0.201 A 
ATOM      9  N   UNL     1       7.055   0.105   6.924  0.00  0.00    -0.194 NA
ATOM     10  C   UNL     1       7.084   1.119   6.094  0.00  0.00    +0.266 A 
ATOM     11  O   UNL     1       6.208   0.906   5.093  0.00  0.00    -0.417 OA
BRANCH  10  12
ATOM     12  C   UNL     1       7.943   2.304   6.232  0.00  0.00    +0.189 A 
ATOM     13  C   UNL     1       8.841   2.530   7.233  0.00  0.00    +0.055 A 
ATOM     14  C   UNL     1       9.437   3.777   6.968  0.00  0.00    +0.042 A 
ATOM     15  C   UNL     1       8.882   4.249   5.833  0.00  0.00    +0.196 A 
ATOM     16  O   UNL     1       7.985   3.354   5.388  0.00  0.00    -0.458 OA
ENDBRANCH  10  12
BRANCH   8  17
ATOM     17  C   UNL     1       5.803  -2.045   7.088  0.00  0.00    +0.124 C 
ATOM     18  N   UNL     1       5.534  -3.035   7.575  0.00  0.00    -0.189 NA
ENDBRANCH   8  17
ENDBRANCH   4   7
BRANCH   1  20
ATOM     19  N   UNL     1       0.858  -0.504   1.020  0.00  0.00    -0.309 N 
ATOM     20  C   UNL     1       2.193  -0.682   1.065  0.00  0.00    +0.217 C 
ATOM     21  O   UNL     1       2.866  -0.474   0.077  0.00  0.00    -0.275 OA
ATOM     22  H   UNL     1       0.320  -0.670   1.810  0.00  0.00    +0.149 HD
BRANCH  19  24
ATOM     23  C   UNL     1       0.278   1.467  -0.307  0.00  0.00    +0.033 C 
ATOM     24  C   UNL     1       0.219  -0.060  -0.221  0.00  0.00    +0.100 C 
BRANCH  24  25
ATOM     25  C   UNL     1      -1.219  -0.509  -0.234  0.00  0.00    -0.027 A 
ATOM     26  C   UNL     1      -1.974  -0.444   0.922  0.00  0.00    +0.007 A 
ATOM     27  C   UNL     1      -3.293  -0.855   0.911  0.00  0.00    +0.020 A 
ATOM     28  C   UNL     1      -3.859  -1.332  -0.258  0.00  0.00    +0.041 A 
ATOM     29  C   UNL     1      -3.103  -1.397  -1.415  0.00  0.00    +0.020 A 
ATOM     30  C   UNL     1      -1.785  -0.980  -1.404  0.00  0.00    +0.007 A 
ATOM     31 CL   UNL     1      -5.516  -1.850  -0.273  0.00  0.00    -0.084 Cl
ENDBRANCH  24  25
ENDBRANCH  19  24
ENDBRANCH   1  20
TORSDOF 6
