REMARK  Name = ZINC20882939
REMARK  9 active torsions:
REMARK  status: ('A' for Active; 'I' for Inactive)
REMARK    1  A    between atoms: C_1  and  C_2
REMARK    2  A    between atoms: C_2  and  C_3
REMARK    3  A    between atoms: C_3  and  O_4
REMARK    4  A    between atoms: O_4  and  C_5
REMARK    5  A    between atoms: C_8  and  C_11
REMARK    6  A    between atoms: C_16  and  C_22
REMARK    7  A    between atoms: C_24  and  O_30
REMARK    8  A    between atoms: C_25  and  O_29
REMARK    9  A    between atoms: O_30  and  C_31
REMARK                            x       y       z     vdW  Elec       q    Type
REMARK                         _______ _______ _______ _____ _____    ______ ____
ROOT
ATOM      1  C   UNL     1       2.103  -1.066  -3.732  0.00  0.00    +0.032 C 
ATOM      2  C   UNL     1       2.098  -1.935  -2.473  0.00  0.00    +0.059 C 
ATOM      3  C   UNL     1       2.026  -1.055  -1.250  0.00  0.00    +0.018 C 
ATOM      4  C   UNL     1       2.567   0.182  -1.255  0.00  0.00    +0.020 C 
ATOM      5  C   UNL     1       2.489   1.043  -0.016  0.00  0.00    +0.063 C 
ATOM      6  C   UNL     1       2.591   0.156   1.226  0.00  0.00    +0.109 C 
ATOM      7  C   UNL     1       1.640  -1.004   1.083  0.00  0.00    +0.218 C 
ATOM      8  O   UNL     1       1.091  -1.460   2.063  0.00  0.00    -0.275 OA
ATOM      9  N   UNL     1       1.400  -1.535  -0.128  0.00  0.00    -0.289 N 
ATOM     10  C   UNL     1       3.206   0.696  -2.395  0.00  0.00    +0.162 C 
ATOM     11  O   UNL     1       3.692   1.809  -2.358  0.00  0.00    -0.292 OA
ATOM     12  C   UNL     1       3.299  -0.111  -3.663  0.00  0.00    +0.088 C 
ATOM     13  H   UNL     1       0.686  -2.368  -0.211  0.00  0.00    +0.155 HD
ENDROOT
BRANCH   5  14
ATOM     14  C   UNL     1       1.176   1.782   0.000  0.00  0.00    -0.035 A 
ATOM     15  C   UNL     1       1.162   3.164   0.007  0.00  0.00    +0.053 A 
ATOM     16  C   UNL     1      -0.044   3.846   0.022  0.00  0.00    +0.163 A 
ATOM     17  C   UNL     1      -1.241   3.136   0.029  0.00  0.00    +0.173 A 
ATOM     18  C   UNL     1      -1.221   1.750   0.017  0.00  0.00    +0.063 A 
ATOM     19  C   UNL     1      -0.013   1.076   0.008  0.00  0.00    +0.023 A 
ATOM     20 BR   UNL     1      -2.845   0.780   0.020  0.00  0.00    -0.046 Br
BRANCH  17  21
ATOM     21  O   UNL     1      -2.428   3.800   0.044  0.00  0.00    -0.503 OA
ATOM     22  H   UNL     1      -3.373   3.238   0.050  0.00  0.00    +0.292 HD
ENDBRANCH  17  21
BRANCH  16  23
ATOM     23  O   UNL     1      -0.059   5.205   0.029  0.00  0.00    -0.491 OA
ATOM     24  C   UNL     1       1.208   5.868   0.021  0.00  0.00    +0.277 C 
ENDBRANCH  16  23
ENDBRANCH   5  14
BRANCH   1  28
ATOM     25  C   UNL     1       2.452  -3.553  -7.190  0.00  0.00    +0.121 A 
ATOM     26  C   UNL     1       1.353  -2.720  -7.042  0.00  0.00    +0.046 A 
ATOM     27  C   UNL     1       1.242  -1.917  -5.923  0.00  0.00    +0.007 A 
ATOM     28  C   UNL     1       2.226  -1.943  -4.952  0.00  0.00    -0.043 A 
ATOM     29  C   UNL     1       3.326  -2.768  -5.100  0.00  0.00    +0.007 A 
ATOM     30  C   UNL     1       3.438  -3.577  -6.214  0.00  0.00    +0.046 A 
BRANCH  25  31
ATOM     31  O   UNL     1       2.564  -4.343  -8.290  0.00  0.00    -0.492 OA
BRANCH  31  32
ATOM     32  C   UNL     1       3.723  -5.175  -8.377  0.00  0.00    +0.229 C 
BRANCH  32  34
ATOM     33  C   UNL     1       4.914  -6.876  -9.766  0.00  0.00    +0.007 C 
ATOM     34  C   UNL     1       3.673  -5.985  -9.673  0.00  0.00    +0.038 C 
ENDBRANCH  32  34
ENDBRANCH  31  32
ENDBRANCH  25  31
ENDBRANCH   1  28
TORSDOF 7
