REMARK  Name = ZINC12151026
REMARK  10 active torsions:
REMARK  status: ('A' for Active; 'I' for Inactive)
REMARK    1  A    between atoms: C_1  and  C_2
REMARK    2  A    between atoms: C_2  and  C_3
REMARK    3  A    between atoms: C_2  and  C_4
REMARK    4  A    between atoms: C_4  and  C_5
REMARK    5  A    between atoms: C_5  and  N_6
REMARK    6  A    between atoms: C_7  and  C_9
REMARK    7  A    between atoms: N_11  and  C_28
REMARK    8  A    between atoms: C_13  and  C_16
REMARK    9  A    between atoms: N_18  and  C_19
REMARK   10  A    between atoms: C_19  and  C_20
REMARK                            x       y       z     vdW  Elec       q    Type
REMARK                         _______ _______ _______ _____ _____    ______ ____
ROOT
ATOM      1  C   UNL     1       2.432   0.936  -0.016  0.00  0.00    +0.100 A 
ATOM      2  C   UNL     1       2.471  -0.441  -0.018  0.00  0.00    +0.102 A 
ATOM      3  N   UNL     1       3.637  -1.108  -0.039  0.00  0.00    -0.349 N 
ATOM      4  C   UNL     1       4.835  -0.502  -0.047  0.00  0.00    +0.102 A 
ATOM      5  C   UNL     1       4.945   0.872  -0.041  0.00  0.00    +0.100 A 
ATOM      6  C   UNL     1       3.708   1.671  -0.024  0.00  0.00    +0.206 A 
ATOM      7  O   UNL     1       3.740   2.890  -0.018  0.00  0.00    -0.286 OA
ENDROOT
BRANCH   3   8
ATOM      8  C   UNL     1       3.599  -2.573  -0.046  0.00  0.00    +0.087 C 
ATOM      9  C   UNL     1       4.367  -3.127   1.171  0.00  0.00    +0.025 C 
ATOM     10  C   UNL     1       5.069  -4.399   0.630  0.00  0.00    +0.002 C 
ATOM     11  C   UNL     1       5.488  -3.976  -0.800  0.00  0.00    +0.002 C 
ATOM     12  C   UNL     1       4.311  -3.112  -1.299  0.00  0.00    +0.025 C 
ENDBRANCH   3   8
BRANCH   1  14
ATOM     13  N   UNL     1      -0.011   0.966   0.007  0.00  0.00    -0.311 N 
ATOM     14  C   UNL     1       1.147   1.655   0.000  0.00  0.00    +0.249 C 
ATOM     15  O   UNL     1       1.130   2.872   0.007  0.00  0.00    -0.270 OA
ATOM     16  H   UNL     1       0.002  -0.004   0.002  0.00  0.00    +0.149 HD
BRANCH  13  17
ATOM     17  C   UNL     1      -1.290   1.681   0.017  0.00  0.00    +0.105 C 
BRANCH  17  18
ATOM     18  C   UNL     1      -2.439   0.671   0.017  0.00  0.00    +0.022 C 
BRANCH  18  20
ATOM     19  C   UNL     1      -3.928   2.206  -1.275  0.00  0.00    +0.007 C 
ATOM     20  C   UNL     1      -3.774   1.418   0.028  0.00  0.00    -0.016 C 
ATOM     21  C   UNL     1      -4.920   0.412   0.153  0.00  0.00    +0.007 C 
ENDBRANCH  18  20
ENDBRANCH  17  18
ENDBRANCH  13  17
ENDBRANCH   1  14
BRANCH   5  22
ATOM     22  C   UNL     1       6.265   1.524  -0.050  0.00  0.00    +0.250 C 
ATOM     23  O   UNL     1       6.345   2.737  -0.045  0.00  0.00    -0.270 OA
ATOM     24  N   UNL     1       7.386   0.775  -0.065  0.00  0.00    -0.306 N 
ATOM     25  H   UNL     1       7.323  -0.193  -0.069  0.00  0.00    +0.149 HD
BRANCH  24  26
ATOM     26  C   UNL     1       8.700   1.424  -0.074  0.00  0.00    +0.161 C 
BRANCH  26  27
ATOM     27  C   UNL     1       9.779   0.372  -0.090  0.00  0.00    +0.078 A 
ATOM     28  C   UNL     1      10.394  -0.106  -1.185  0.00  0.00    +0.118 A 
ATOM     29  N   UNL     1      11.323  -1.055  -0.767  0.00  0.00    -0.300 N 
ATOM     30  C   UNL     1      12.256  -1.899  -1.331  0.00  0.00    +0.100 A 
ATOM     31  C   UNL     1      12.992  -2.708  -0.571  0.00  0.00    +0.067 A 
ATOM     32  S   UNL     1      12.395  -2.319   1.067  0.00  0.00    -0.058 S 
ATOM     33  C   UNL     1      11.197  -1.093   0.596  0.00  0.00    +0.178 A 
ATOM     34  N   UNL     1      10.285  -0.249   0.986  0.00  0.00    -0.225 NA
ENDBRANCH  26  27
ENDBRANCH  24  26
ENDBRANCH   5  22
TORSDOF 8
