REMARK  Name = ZINC63349818
REMARK  10 active torsions:
REMARK  status: ('A' for Active; 'I' for Inactive)
REMARK    1  A    between atoms: C_1  and  C_2
REMARK    2  A    between atoms: C_6  and  O_39
REMARK    3  A    between atoms: C_7  and  O_37
REMARK    4  A    between atoms: N_12  and  C_13
REMARK    5  A    between atoms: C_13  and  C_14
REMARK    6  A    between atoms: C_16  and  C_22
REMARK    7  A    between atoms: C_19  and  O_20
REMARK    8  A    between atoms: O_20  and  C_21
REMARK    9  A    between atoms: O_37  and  C_38
REMARK   10  A    between atoms: O_39  and  C_40
REMARK                            x       y       z     vdW  Elec       q    Type
REMARK                         _______ _______ _______ _____ _____    ______ ____
ROOT
ATOM      1  C   UNL     1       0.650  -0.625   3.621  0.00  0.00    -0.022 A 
ATOM      2  C   UNL     1       1.231   0.277   4.492  0.00  0.00    +0.010 A 
ATOM      3  C   UNL     1       1.889  -0.176   5.620  0.00  0.00    -0.028 A 
ATOM      4  C   UNL     1       1.966  -1.532   5.881  0.00  0.00    +0.009 A 
ATOM      5  C   UNL     1       1.386  -2.437   5.014  0.00  0.00    +0.046 A 
ATOM      6  C   UNL     1       0.721  -1.985   3.883  0.00  0.00    +0.121 A 
ENDROOT
BRANCH   3   7
ATOM      7  C   UNL     1       2.523   0.809   6.568  0.00  0.00    +0.111 C 
ATOM      8  C   UNL     1       2.009   0.562   7.989  0.00  0.00    +0.128 C 
ATOM      9  C   UNL     1       2.539  -0.806   8.401  0.00  0.00    -0.035 C 
ATOM     10  C   UNL     1       1.486  -1.516   8.783  0.00  0.00    -0.001 A 
ATOM     11  C   UNL     1       1.369  -2.865   9.360  0.00  0.00    +0.010 A 
ATOM     12  C   UNL     1       0.107  -3.296   9.625  0.00  0.00    +0.001 A 
ATOM     13  C   UNL     1      -1.036  -2.530   9.377  0.00  0.00    +0.002 A 
ATOM     14  C   UNL     1      -1.021  -1.278   8.854  0.00  0.00    +0.026 A 
ATOM     15  C   UNL     1       0.249  -0.714   8.538  0.00  0.00    +0.043 A 
ATOM     16  N   UNL     1       0.551   0.475   8.053  0.00  0.00    -0.376 N 
ATOM     17  C   UNL     1       3.996  -1.170   8.249  0.00  0.00    +0.048 C 
ATOM     18  C   UNL     1       4.396  -0.753   6.823  0.00  0.00    +0.086 C 
ATOM     19  N   UNL     1       3.983   0.630   6.566  0.00  0.00    -0.307 NA
ATOM     20  H   UNL     1       4.388   0.977   5.709  0.00  0.00    +0.123 HD
ATOM     21  H   UNL     1      -0.071   1.168   7.781  0.00  0.00    +0.160 HD
ENDBRANCH   3   7
BRANCH   6  22
ATOM     22  O   UNL     1       0.145  -2.873   3.031  0.00  0.00    -0.495 OA
ATOM     23  C   UNL     1       0.258  -4.258   3.364  0.00  0.00    +0.277 C 
ENDBRANCH   6  22
BRANCH   1  24
ATOM     24  C   UNL     1      -0.067  -0.130   2.391  0.00  0.00    -0.038 C 
BRANCH  24  35
ATOM     25  C   UNL     1      -0.025  -2.271   0.430  0.00  0.00    -0.008 C 
ATOM     26  C   UNL     1       1.217  -1.528   0.926  0.00  0.00    -0.040 C 
ATOM     27  C   UNL     1       2.277  -1.563  -0.144  0.00  0.00    -0.054 A 
ATOM     28  C   UNL     1       2.462  -2.742  -0.852  0.00  0.00    +0.051 A 
ATOM     29  C   UNL     1       3.426  -2.820  -1.841  0.00  0.00    +0.162 A 
ATOM     30  C   UNL     1       4.214  -1.709  -2.126  0.00  0.00    +0.162 A 
ATOM     31  C   UNL     1       4.026  -0.535  -1.417  0.00  0.00    +0.053 A 
ATOM     32  C   UNL     1       3.057  -0.463  -0.428  0.00  0.00    -0.044 A 
ATOM     33  C   UNL     1       2.880   0.838   0.313  0.00  0.00    +0.017 C 
ATOM     34  C   UNL     1       2.077   0.600   1.593  0.00  0.00    -0.073 C 
ATOM     35  N   UNL     1       0.856  -0.144   1.248  0.00  0.00    +0.387 N 
ATOM     36  H   UNL     1       0.413   0.284   0.449  0.00  0.00    -0.080 HD
BRANCH  30  37
ATOM     37  O   UNL     1       5.166  -1.776  -3.095  0.00  0.00    -0.491 OA
ATOM     38  C   UNL     1       5.936  -0.596  -3.332  0.00  0.00    +0.277 C 
ENDBRANCH  30  37
BRANCH  29  39
ATOM     39  O   UNL     1       3.603  -3.978  -2.533  0.00  0.00    -0.491 OA
ATOM     40  C   UNL     1       2.758  -5.076  -2.185  0.00  0.00    +0.277 C 
ENDBRANCH  29  39
ENDBRANCH  24  35
ENDBRANCH   1  24
TORSDOF 6
