REMARK  Name = ZINC15015523
REMARK  7 active torsions:
REMARK  status: ('A' for Active; 'I' for Inactive)
REMARK    1  A    between atoms: C_1  and  C_2
REMARK    2  A    between atoms: C_2  and  O_3
REMARK    3  A    between atoms: O_3  and  C_4
REMARK    4  A    between atoms: C_6  and  C_19
REMARK    5  A    between atoms: C_9  and  O_10
REMARK    6  A    between atoms: O_10  and  C_11
REMARK    7  A    between atoms: C_11  and  C_12
REMARK                            x       y       z     vdW  Elec       q    Type
REMARK                         _______ _______ _______ _____ _____    ______ ____
ROOT
ATOM      1  C   UNL     1      -0.206  -0.324  -0.814  0.00  0.00    +0.164 A 
ATOM      2  C   UNL     1       1.047  -0.868  -0.610  0.00  0.00    +0.057 A 
ATOM      3  C   UNL     1       1.172  -2.216  -0.255  0.00  0.00    -0.019 A 
ATOM      4  C   UNL     1       0.026  -3.006  -0.109  0.00  0.00    +0.027 A 
ATOM      5  C   UNL     1      -1.221  -2.455  -0.315  0.00  0.00    +0.064 A 
ATOM      6  C   UNL     1      -1.343  -1.115  -0.661  0.00  0.00    +0.176 A 
ATOM      7 BR   UNL     1      -2.769  -3.523  -0.117  0.00  0.00    -0.046 Br
ENDROOT
BRANCH   3   8
ATOM      8  C   UNL     1       2.502  -2.800  -0.036  0.00  0.00    +0.028 C 
ATOM      9  C   UNL     1       2.625  -3.976   0.630  0.00  0.00    +0.078 C 
ATOM     10  C   UNL     1       3.822  -4.814   0.835  0.00  0.00    +0.256 C 
ATOM     11  O   UNL     1       4.906  -4.497   0.382  0.00  0.00    -0.269 OA
ATOM     12  N   UNL     1       3.663  -5.926   1.533  0.00  0.00    -0.261 N 
ATOM     13  C   UNL     1       2.425  -6.267   2.038  0.00  0.00    +0.158 C 
ATOM     14  N   UNL     1       2.096  -7.316   2.741  0.00  0.00    -0.279 NA
ATOM     15  S   UNL     1       1.384  -4.920   1.502  0.00  0.00    -0.049 S 
ATOM     16  H   UNL     1       4.424  -6.506   1.692  0.00  0.00    +0.157 HD
ATOM     17  H   UNL     1       1.180  -7.435   3.035  0.00  0.00    +0.189 HD
ENDBRANCH   3   8
BRANCH   1  18
ATOM     18  O   UNL     1      -0.330   0.986  -1.159  0.00  0.00    -0.489 OA
BRANCH  18  20
ATOM     19  C   UNL     1       0.538   3.180  -1.682  0.00  0.00    +0.048 C 
ATOM     20  C   UNL     1       0.876   1.739  -1.292  0.00  0.00    +0.226 C 
ENDBRANCH  18  20
ENDBRANCH   1  18
BRANCH   6  21
ATOM     21  O   UNL     1      -2.575  -0.576  -0.857  0.00  0.00    -0.483 OA
BRANCH  21  22
ATOM     22  C   UNL     1      -3.106  -0.637  -2.182  0.00  0.00    +0.264 C 
BRANCH  22  23
ATOM     23  C   UNL     1      -4.469   0.005  -2.207  0.00  0.00    -0.010 A 
ATOM     24  C   UNL     1      -5.598  -0.758  -1.973  0.00  0.00    +0.007 A 
ATOM     25  C   UNL     1      -6.848  -0.168  -1.991  0.00  0.00    +0.000 A 
ATOM     26  C   UNL     1      -6.970   1.184  -2.252  0.00  0.00    +0.000 A 
ATOM     27  C   UNL     1      -5.842   1.946  -2.492  0.00  0.00    +0.000 A 
ATOM     28  C   UNL     1      -4.592   1.357  -2.469  0.00  0.00    +0.007 A 
ENDBRANCH  22  23
ENDBRANCH  21  22
ENDBRANCH   6  21
TORSDOF 6
