REMARK  Name = ZINC22698199
REMARK  6 active torsions:
REMARK  status: ('A' for Active; 'I' for Inactive)
REMARK    1  A    between atoms: C_1  and  C_2
REMARK    2  A    between atoms: C_5  and  C_15
REMARK    3  A    between atoms: N_8  and  C_9
REMARK    4  A    between atoms: C_9  and  C_10
REMARK    5  A    between atoms: C_15  and  C_17
REMARK    6  A    between atoms: C_15  and  N_24
REMARK                            x       y       z     vdW  Elec       q    Type
REMARK                         _______ _______ _______ _____ _____    ______ ____
ROOT
ATOM      1  C   UNL     1       0.749   9.191  -1.033  0.00  0.00    +0.126 C 
ENDROOT
BRANCH   1   2
ATOM      2  N   UNL     1       0.691   7.723  -1.052  0.00  0.00    -0.288 NA
ATOM      3  C   UNL     1       1.449   7.152   0.069  0.00  0.00    +0.104 C 
ATOM      4  C   UNL     1       1.431   5.624  -0.032  0.00  0.00    +0.122 C 
ATOM      5  N   UNL     1       0.039   5.152  -0.017  0.00  0.00    -0.314 N 
ATOM      6  C   UNL     1      -0.720   5.724  -1.139  0.00  0.00    +0.122 C 
ATOM      7  C   UNL     1      -0.701   7.251  -1.038  0.00  0.00    +0.104 C 
ATOM      8  C   UNL     1      -0.016   3.764  -0.035  0.00  0.00    +0.099 A 
ATOM      9  C   UNL     1      -1.251   3.122  -0.025  0.00  0.00    +0.042 A 
ATOM     10  C   UNL     1      -1.291   1.740  -0.048  0.00  0.00    +0.005 A 
ATOM     11  C   UNL     1      -0.091   1.042  -0.070  0.00  0.00    +0.018 A 
ATOM     12  C   UNL     1       1.098   1.743  -0.079  0.00  0.00    +0.084 A 
ATOM     13  N   UNL     1       1.107   3.063  -0.062  0.00  0.00    -0.350 N 
ATOM     14  H   UNL     1       2.078   3.580  -0.070  0.00  0.00    +0.166 HD
ENDBRANCH   1   2
BRANCH   1  19
ATOM     15  C   UNL     1      -2.227  11.257  -5.517  0.00  0.00    +0.064 C 
ATOM     16  C   UNL     1      -1.458  10.725  -4.335  0.00  0.00    +0.023 A 
ATOM     17  C   UNL     1      -1.769  11.150  -3.092  0.00  0.00    +0.072 A 
ATOM     18  C   UNL     1      -1.056  10.652  -1.983  0.00  0.00    +0.191 A 
ATOM     19  C   UNL     1      -0.039   9.740  -2.195  0.00  0.00    +0.085 A 
ATOM     20  C   UNL     1       0.246   9.329  -3.502  0.00  0.00    +0.261 A 
ATOM     21  O   UNL     1       1.138   8.520  -3.706  0.00  0.00    -0.267 OA
ATOM     22  N   UNL     1      -0.461   9.824  -4.535  0.00  0.00    -0.305 N 
ATOM     23  O   UNL     1      -1.359  11.065  -0.729  0.00  0.00    -0.287 OA
BRANCH  22  24
ATOM     24  C   UNL     1      -0.149   9.384  -5.898  0.00  0.00    +0.199 C 
BRANCH  24  25
ATOM     25  C   UNL     1      -0.873   8.094  -6.187  0.00  0.00    +0.125 A 
ATOM     26  C   UNL     1      -2.107   7.984  -6.710  0.00  0.00    +0.046 A 
ATOM     27  C   UNL     1      -2.387   6.602  -6.812  0.00  0.00    +0.041 A 
ATOM     28  C   UNL     1      -1.310   5.950  -6.338  0.00  0.00    +0.195 A 
ATOM     29  O   UNL     1      -0.396   6.859  -5.961  0.00  0.00    -0.466 OA
ENDBRANCH  24  25
ENDBRANCH  22  24
ENDBRANCH   1  19
BRANCH   1  30
ATOM     30  C   UNL     1       2.184   9.638  -1.143  0.00  0.00    -0.024 A 
ATOM     31  C   UNL     1       2.634  10.707  -0.390  0.00  0.00    +0.005 A 
ATOM     32  C   UNL     1       3.950  11.117  -0.490  0.00  0.00    +0.002 A 
ATOM     33  C   UNL     1       4.817  10.460  -1.343  0.00  0.00    +0.020 A 
ATOM     34  C   UNL     1       4.367   9.390  -2.096  0.00  0.00    +0.041 A 
ATOM     35  C   UNL     1       3.051   8.977  -1.992  0.00  0.00    +0.025 A 
ATOM     36 CL   UNL     1       5.455   8.564  -3.167  0.00  0.00    -0.084 Cl
ENDBRANCH   1  30
TORSDOF 5
