REMARK  Name = ZINC04291902
REMARK  6 active torsions:
REMARK  status: ('A' for Active; 'I' for Inactive)
REMARK    1  A    between atoms: C_1  and  C_2
REMARK    2  A    between atoms: C_7  and  C_8
REMARK    3  A    between atoms: C_7  and  C_9
REMARK    4  A    between atoms: N_12  and  N_13
REMARK    5  A    between atoms: C_18  and  C_21
REMARK    6  A    between atoms: C_21  and  C_22
REMARK                            x       y       z     vdW  Elec       q    Type
REMARK                         _______ _______ _______ _____ _____    ______ ____
ROOT
ATOM      1  N   UNL     1      -3.682  -0.950  -0.130  0.00  0.00    -0.127 NA
ATOM      2  C   UNL     1      -4.850  -0.425  -0.429  0.00  0.00    +0.183 C 
ATOM      3  N   UNL     1      -5.122   0.853  -0.867  0.00  0.00    -0.263 N 
ATOM      4  C   UNL     1      -6.349   1.265  -1.137  0.00  0.00    +0.233 C 
ATOM      5  O   UNL     1      -6.581   2.391  -1.521  0.00  0.00    -0.274 OA
ATOM      6  C   UNL     1      -7.451   0.237  -0.936  0.00  0.00    +0.149 C 
ATOM      7  S   UNL     1      -6.456  -1.205  -0.372  0.00  0.00    -0.075 S 
ATOM      8  H   UNL     1      -4.386   1.475  -0.980  0.00  0.00    +0.157 HD
ENDROOT
BRANCH   1  19
ATOM      9  C   UNL     1      -0.019   1.526   0.010  0.00  0.00    +0.018 C 
ATOM     10  C   UNL     1       0.002  -0.004   0.002  0.00  0.00    +0.013 C 
ATOM     11  C   UNL     1       0.746  -0.667  -1.197  0.00  0.00    +0.013 C 
ATOM     12  C   UNL     1       1.065  -2.101  -0.713  0.00  0.00    +0.005 C 
ATOM     13  C   UNL     1       0.474  -2.165   0.729  0.00  0.00    +0.001 C 
ATOM     14  C   UNL     1       0.727  -0.692   1.212  0.00  0.00    -0.021 C 
ATOM     15  C   UNL     1       0.034  -0.396   2.543  0.00  0.00    +0.012 C 
ATOM     16  C   UNL     1       2.218  -0.351   1.258  0.00  0.00    +0.012 C 
ATOM     17  C   UNL     1      -1.071  -2.146   0.514  0.00  0.00    +0.057 C 
ATOM     18  C   UNL     1      -1.369  -0.692   0.058  0.00  0.00    +0.048 C 
ATOM     19  N   UNL     1      -2.518  -0.176  -0.236  0.00  0.00    -0.156 NA
ENDBRANCH   1  19
BRANCH   6  20
ATOM     20  C   UNL     1      -8.442   0.689   0.139  0.00  0.00    +0.120 C 
BRANCH  20  21
ATOM     21  C   UNL     1      -9.580  -0.295   0.219  0.00  0.00    +0.222 C 
ATOM     22  O   UNL     1      -9.597  -1.263  -0.511  0.00  0.00    -0.275 OA
ATOM     23  N   UNL     1     -10.579  -0.100   1.103  0.00  0.00    -0.240 N 
ATOM     24  C   UNL     1     -11.596  -0.981   1.175  0.00  0.00    +0.303 C 
ATOM     25  O   UNL     1     -11.614  -1.951   0.442  0.00  0.00    -0.253 OA
ATOM     26  N   UNL     1     -12.595  -0.786   2.058  0.00  0.00    -0.313 N 
ATOM     27  H   UNL     1     -10.565   0.674   1.687  0.00  0.00    +0.159 HD
ATOM     28  H   UNL     1     -12.582  -0.011   2.642  0.00  0.00    +0.146 HD
ATOM     29  H   UNL     1     -13.328  -1.419   2.110  0.00  0.00    +0.146 HD
ENDBRANCH  20  21
ENDBRANCH   6  20
TORSDOF 3
