REMARK  Name = ZINC64428555
REMARK  7 active torsions:
REMARK  status: ('A' for Active; 'I' for Inactive)
REMARK    1  A    between atoms: C_1  and  C_2
REMARK    2  A    between atoms: C_2  and  S_3
REMARK    3  A    between atoms: S_3  and  C_4
REMARK    4  A    between atoms: C_8  and  C_11
REMARK    5  A    between atoms: C_11  and  C_13
REMARK    6  A    between atoms: C_11  and  N_23
REMARK    7  A    between atoms: C_13  and  C_14
REMARK                            x       y       z     vdW  Elec       q    Type
REMARK                         _______ _______ _______ _____ _____    ______ ____
ROOT
ATOM      1  C   UNL     1      -0.690  -5.286   0.860  0.00  0.00    -0.017 C 
ENDROOT
BRANCH   1   5
ATOM      2  C   UNL     1      -1.502  -2.435   0.003  0.00  0.00    +0.318 C 
ATOM      3  N   UNL     1      -0.717  -2.854  -1.165  0.00  0.00    -0.146 NA
ATOM      4  N   UNL     1       0.128  -3.694  -0.830  0.00  0.00    -0.159 NA
ATOM      5  C   UNL     1       0.032  -3.960   0.611  0.00  0.00    +0.246 C 
ATOM      6  O   UNL     1      -0.737  -2.862   1.149  0.00  0.00    -0.320 OA
BRANCH   2   7
ATOM      7  S   UNL     1      -1.700  -0.632   0.015  0.00  0.00    -0.105 S 
BRANCH   7   9
ATOM      8  C   UNL     1      -0.019   1.526   0.010  0.00  0.00    +0.015 C 
ATOM      9  C   UNL     1       0.002  -0.004   0.002  0.00  0.00    +0.070 C 
ENDBRANCH   7   9
ENDBRANCH   2   7
ENDBRANCH   1   5
BRANCH   1  10
ATOM     10  N   UNL     1      -2.030  -5.233   0.262  0.00  0.00    +0.383 N 
ATOM     11  H   UNL     1      -2.556  -4.480   0.682  0.00  0.00    -0.089 HD
ATOM     12  H   UNL     1      -1.950  -5.074  -0.731  0.00  0.00    -0.089 HD
ATOM     13  H   UNL     1      -2.506  -6.107   0.426  0.00  0.00    -0.089 HD
ENDBRANCH   1  10
BRANCH   1  14
ATOM     14  C   UNL     1       0.107  -6.427   0.224  0.00  0.00    +0.021 C 
BRANCH  14  15
ATOM     15  C   UNL     1      -0.537  -7.744   0.572  0.00  0.00    -0.043 C 
ATOM     16  C   UNL     1      -1.426  -8.437  -0.175  0.00  0.00    -0.001 A 
ATOM     17  C   UNL     1      -2.036  -8.182  -1.485  0.00  0.00    +0.010 A 
ATOM     18  C   UNL     1      -2.913  -9.082  -1.987  0.00  0.00    +0.001 A 
ATOM     19  C   UNL     1      -3.253 -10.248  -1.288  0.00  0.00    +0.002 A 
ATOM     20  C   UNL     1      -2.734 -10.552  -0.080  0.00  0.00    +0.026 A 
ATOM     21  C   UNL     1      -1.801  -9.677   0.542  0.00  0.00    +0.043 A 
ATOM     22  N   UNL     1      -1.169  -9.747   1.688  0.00  0.00    -0.380 N 
ATOM     23  C   UNL     1      -0.315  -8.561   1.825  0.00  0.00    +0.144 C 
ATOM     24  H   UNL     1      -1.248 -10.464   2.336  0.00  0.00    +0.160 HD
ENDBRANCH  14  15
ENDBRANCH   1  14
TORSDOF 6
