REMARK  Name = ZINC02667882
REMARK  10 active torsions:
REMARK  status: ('A' for Active; 'I' for Inactive)
REMARK    1  A    between atoms: C_1  and  O_2
REMARK    2  A    between atoms: O_2  and  C_3
REMARK    3  A    between atoms: C_6  and  C_11
REMARK    4  A    between atoms: C_8  and  O_9
REMARK    5  A    between atoms: O_9  and  C_10
REMARK    6  A    between atoms: C_13  and  C_25
REMARK    7  A    between atoms: C_18  and  C_20
REMARK    8  A    between atoms: C_20  and  C_21
REMARK    9  A    between atoms: C_21  and  C_22
REMARK   10  A    between atoms: C_22  and  O_23
REMARK                            x       y       z     vdW  Elec       q    Type
REMARK                         _______ _______ _______ _____ _____    ______ ____
ROOT
ATOM      1  C   UNL     1       2.575  -2.532   4.289  0.00  0.00    +0.055 C 
ATOM      2  C   UNL     1       3.182  -1.679   5.366  0.00  0.00    +0.091 C 
ATOM      3  C   UNL     1       3.088  -2.363   6.735  0.00  0.00    +0.182 C 
ATOM      4  N   UNL     1       3.416  -3.777   6.558  0.00  0.00    -0.220 N 
ATOM      5  C   UNL     1       3.169  -4.452   5.395  0.00  0.00    +0.227 A 
ATOM      6  N   UNL     1       3.561  -5.691   5.567  0.00  0.00    -0.311 N 
ATOM      7  C   UNL     1       4.058  -5.837   6.796  0.00  0.00    +0.130 A 
ATOM      8  N   UNL     1       3.991  -4.692   7.434  0.00  0.00    -0.155 NA
ATOM      9  N   UNL     1       2.618  -3.838   4.315  0.00  0.00    -0.217 NA
ATOM     10  H   UNL     1       3.498  -6.395   4.903  0.00  0.00    +0.170 HD
ENDROOT
BRANCH   1  14
ATOM     11  C   UNL     1       0.625  -0.618   1.041  0.00  0.00    +0.162 A 
ATOM     12  C   UNL     1       1.201   0.143   2.050  0.00  0.00    +0.050 A 
ATOM     13  C   UNL     1       1.835  -0.474   3.106  0.00  0.00    +0.013 A 
ATOM     14  C   UNL     1       1.899  -1.871   3.164  0.00  0.00    +0.000 A 
ATOM     15  C   UNL     1       1.318  -2.637   2.147  0.00  0.00    +0.059 A 
ATOM     16  C   UNL     1       0.680  -2.010   1.094  0.00  0.00    +0.162 A 
BRANCH  11  18
ATOM     17  C   UNL     1      -0.017   1.425   0.010  0.00  0.00    +0.277 C 
ATOM     18  O   UNL     1       0.002  -0.004   0.002  0.00  0.00    -0.491 OA
ENDBRANCH  11  18
BRANCH  16  19
ATOM     19  O   UNL     1       0.110  -2.751   0.106  0.00  0.00    -0.491 OA
ATOM     20  C   UNL     1       0.204  -4.172   0.225  0.00  0.00    +0.277 C 
ENDBRANCH  16  19
ENDBRANCH   1  14
BRANCH   3  21
ATOM     21  C   UNL     1       4.066  -1.728   7.690  0.00  0.00    +0.130 A 
ATOM     22  C   UNL     1       3.753  -1.122   8.849  0.00  0.00    +0.047 A 
ATOM     23  C   UNL     1       4.967  -0.674   9.418  0.00  0.00    +0.041 A 
ATOM     24  C   UNL     1       5.950  -1.033   8.573  0.00  0.00    +0.195 A 
ATOM     25  O   UNL     1       5.399  -1.677   7.530  0.00  0.00    -0.466 OA
ENDBRANCH   3  21
BRANCH   7  26
ATOM     26  C   UNL     1       4.610  -7.119   7.365  0.00  0.00    +0.078 C 
BRANCH  26  27
ATOM     27  C   UNL     1       6.035  -6.880   7.869  0.00  0.00    +0.035 C 
BRANCH  27  28
ATOM     28  C   UNL     1       6.596  -8.181   8.447  0.00  0.00    +0.156 C 
BRANCH  28  29
ATOM     29  O   UNL     1       7.927  -7.959   8.918  0.00  0.00    -0.395 OA
ATOM     30  H   UNL     1       8.345  -8.743   9.298  0.00  0.00    +0.209 HD
ENDBRANCH  28  29
ENDBRANCH  27  28
ENDBRANCH  26  27
ENDBRANCH   7  26
TORSDOF 8
