REMARK  Name = ZINC06860422
REMARK  9 active torsions:
REMARK  status: ('A' for Active; 'I' for Inactive)
REMARK    1  A    between atoms: C_1  and  C_2
REMARK    2  A    between atoms: C_6  and  O_8
REMARK    3  A    between atoms: O_8  and  C_9
REMARK    4  A    between atoms: C_9  and  C_10
REMARK    5  A    between atoms: N_12  and  C_13
REMARK    6  A    between atoms: C_13  and  N_15
REMARK    7  A    between atoms: N_15  and  N_16
REMARK    8  A    between atoms: C_17  and  C_19
REMARK    9  A    between atoms: C_24  and  C_25
REMARK                            x       y       z     vdW  Elec       q    Type
REMARK                         _______ _______ _______ _____ _____    ______ ____
ROOT
ATOM      1  C   UNL     1      -5.124  -2.973  -1.153  0.00  0.00    +0.153 C 
ATOM      2  S   UNL     1      -6.499  -1.993  -1.436  0.00  0.00    -0.017 S 
ENDROOT
BRANCH   1   5
ATOM      3  C   UNL     1      -3.748  -1.097  -1.343  0.00  0.00    +0.256 C 
ATOM      4  O   UNL     1      -4.722  -0.403  -1.544  0.00  0.00    -0.272 OA
ATOM      5  N   UNL     1      -3.895  -2.420  -1.137  0.00  0.00    -0.264 N 
ATOM      6  H   UNL     1      -3.115  -2.975  -0.976  0.00  0.00    +0.157 HD
BRANCH   3   7
ATOM      7  C   UNL     1      -2.373  -0.479  -1.325  0.00  0.00    +0.324 C 
BRANCH   7   8
ATOM      8  O   UNL     1      -2.479   0.925  -1.568  0.00  0.00    -0.483 OA
BRANCH   8  14
ATOM      9  C   UNL     1      -0.203   5.212  -2.083  0.00  0.00    +0.044 C 
ATOM     10  C   UNL     1      -0.173   3.727  -1.832  0.00  0.00    -0.047 A 
ATOM     11  C   UNL     1       1.035   3.086  -1.625  0.00  0.00    +0.003 A 
ATOM     12  C   UNL     1       1.067   1.723  -1.395  0.00  0.00    +0.004 A 
ATOM     13  C   UNL     1      -0.109   0.998  -1.372  0.00  0.00    +0.045 A 
ATOM     14  C   UNL     1      -1.322   1.637  -1.585  0.00  0.00    +0.121 A 
ATOM     15  C   UNL     1      -1.351   3.006  -1.810  0.00  0.00    +0.049 A 
ENDBRANCH   8  14
ENDBRANCH   7   8
ENDBRANCH   3   7
ENDBRANCH   1   5
BRANCH   1  16
ATOM     16  N   UNL     1      -5.271  -4.296  -0.946  0.00  0.00    -0.245 N 
ATOM     17  H   UNL     1      -6.155  -4.694  -0.957  0.00  0.00    +0.172 HD
BRANCH  16  18
ATOM     18  N   UNL     1      -4.145  -5.098  -0.714  0.00  0.00    -0.231 N 
ATOM     19  C   UNL     1      -4.292  -6.422  -0.507  0.00  0.00    +0.260 C 
ATOM     20  O   UNL     1      -5.401  -6.920  -0.521  0.00  0.00    -0.269 OA
ATOM     21  H   UNL     1      -3.261  -4.701  -0.702  0.00  0.00    +0.173 HD
BRANCH  19  22
ATOM     22  C   UNL     1      -3.104  -7.268  -0.262  0.00  0.00    +0.041 A 
ATOM     23  C   UNL     1      -1.823  -6.726  -0.375  0.00  0.00    +0.013 A 
ATOM     24  C   UNL     1      -0.719  -7.520  -0.140  0.00  0.00    +0.001 A 
ATOM     25  C   UNL     1      -0.880  -8.853   0.195  0.00  0.00    +0.000 A 
ATOM     26  C   UNL     1      -2.147  -9.397   0.303  0.00  0.00    +0.004 A 
ATOM     27  C   UNL     1      -3.260  -8.613   0.076  0.00  0.00    -0.038 A 
ATOM     28  C   UNL     1      -4.640  -9.208   0.193  0.00  0.00    +0.044 C 
ENDBRANCH  19  22
ENDBRANCH  16  18
ENDBRANCH   1  16
TORSDOF 7
