REMARK  Name = ZINC54728701
REMARK  9 active torsions:
REMARK  status: ('A' for Active; 'I' for Inactive)
REMARK    1  A    between atoms: C_1  and  C_2
REMARK    2  A    between atoms: C_5  and  C_7
REMARK    3  A    between atoms: C_7  and  C_9
REMARK    4  A    between atoms: C_7  and  N_10
REMARK    5  A    between atoms: C_16  and  C_19
REMARK    6  A    between atoms: C_19  and  C_20
REMARK    7  A    between atoms: C_20  and  N_21
REMARK    8  A    between atoms: N_21  and  C_22
REMARK    9  A    between atoms: N_21  and  C_23
REMARK                            x       y       z     vdW  Elec       q    Type
REMARK                         _______ _______ _______ _____ _____    ______ ____
ROOT
ATOM      1  N   UNL     1       2.210  -4.147   0.854  0.00  0.00    -0.292 N 
ATOM      2  C   UNL     1       2.553  -5.328   1.406  0.00  0.00    +0.303 C 
ATOM      3  O   UNL     1       1.843  -6.303   1.246  0.00  0.00    -0.253 OA
ATOM      4  N   UNL     1       3.682  -5.429   2.135  0.00  0.00    -0.286 N 
ATOM      5  C   UNL     1       4.488  -4.238   2.435  0.00  0.00    +0.109 C 
ATOM      6  C   UNL     1       5.933  -4.498   1.996  0.00  0.00    +0.022 C 
ATOM      7  C   UNL     1       6.439  -5.782   2.656  0.00  0.00    -0.010 C 
ATOM      8  C   UNL     1       5.578  -6.964   2.204  0.00  0.00    +0.022 C 
ATOM      9  C   UNL     1       4.126  -6.731   2.650  0.00  0.00    +0.109 C 
ATOM     10  H   UNL     1       2.736  -3.354   1.042  0.00  0.00    +0.151 HD
ENDROOT
BRANCH   1  11
ATOM     11  C   UNL     1       1.044  -4.062  -0.029  0.00  0.00    +0.108 C 
ATOM     12  C   UNL     1       1.455  -4.442  -1.453  0.00  0.00    +0.033 C 
BRANCH  11  17
ATOM     13  C   UNL     1      -0.018   1.502   0.005  0.00  0.00    +0.051 C 
ATOM     14  C   UNL     1       0.003  -0.005  -0.003  0.00  0.00    -0.013 A 
ATOM     15  C   UNL     1      -1.038  -0.873  -0.004  0.00  0.00    +0.011 A 
ATOM     16  C   UNL     1      -0.779  -2.230  -0.012  0.00  0.00    +0.013 A 
ATOM     17  C   UNL     1       0.509  -2.654  -0.019  0.00  0.00    +0.010 A 
ATOM     18  S   UNL     1       1.405  -1.110  -0.021  0.00  0.00    -0.097 S 
ENDBRANCH  11  17
ENDBRANCH   1  11
BRANCH   7  19
ATOM     19  C   UNL     1       7.894  -6.026   2.247  0.00  0.00    -0.015 C 
BRANCH  19  20
ATOM     20  C   UNL     1       8.439  -7.239   3.003  0.00  0.00    -0.079 C 
BRANCH  20  21
ATOM     21  N   UNL     1       9.835  -7.473   2.610  0.00  0.00    +0.376 N 
ATOM     22  C   UNL     1      10.663  -6.340   3.045  0.00  0.00    -0.097 C 
ATOM     23  C   UNL     1      10.322  -8.706   3.243  0.00  0.00    -0.097 C 
ATOM     24  H   UNL     1       9.892  -7.566   1.607  0.00  0.00    -0.083 HD
ENDBRANCH  20  21
ENDBRANCH  19  20
ENDBRANCH   7  19
TORSDOF 5
