REMARK  Name = ZINC52096882
REMARK  8 active torsions:
REMARK  status: ('A' for Active; 'I' for Inactive)
REMARK    1  A    between atoms: C_1  and  C_2
REMARK    2  A    between atoms: C_2  and  C_3
REMARK    3  A    between atoms: C_2  and  C_15
REMARK    4  A    between atoms: C_2  and  O_21
REMARK    5  A    between atoms: C_3  and  O_4
REMARK    6  A    between atoms: O_4  and  C_5
REMARK    7  A    between atoms: C_6  and  C_13
REMARK    8  A    between atoms: C_13  and  N_14
REMARK                            x       y       z     vdW  Elec       q    Type
REMARK                         _______ _______ _______ _____ _____    ______ ____
ROOT
ATOM      1  C   UNL     1       0.432  -0.427   3.686  0.00  0.00    +0.140 A 
ATOM      2  C   UNL     1       1.450   0.262   4.329  0.00  0.00    -0.020 A 
ATOM      3  C   UNL     1       2.034  -0.269   5.462  0.00  0.00    +0.025 A 
ATOM      4  C   UNL     1       1.606  -1.488   5.957  0.00  0.00    +0.043 A 
ATOM      5  C   UNL     1       0.591  -2.178   5.318  0.00  0.00    +0.043 A 
ATOM      6  C   UNL     1      -0.001  -1.647   4.187  0.00  0.00    +0.084 A 
ATOM      7 CL   UNL     1      -1.279  -2.510   3.389  0.00  0.00    -0.080 Cl
ATOM      8 CL   UNL     1       2.343  -2.154   7.381  0.00  0.00    -0.083 Cl
ENDROOT
BRANCH   1   9
ATOM      9  O   UNL     1      -0.144   0.094   2.571  0.00  0.00    -0.487 OA
BRANCH   9  10
ATOM     10  C   UNL     1       0.392  -0.316   1.311  0.00  0.00    +0.268 C 
BRANCH  10  12
ATOM     11  C   UNL     1      -0.421   1.807   0.274  0.00  0.00    +0.050 C 
ATOM     12  C   UNL     1      -0.449   0.280   0.181  0.00  0.00    +0.122 C 
BRANCH  12  13
ATOM     13  C   UNL     1       0.117  -0.152  -1.148  0.00  0.00    -0.013 A 
ATOM     14  C   UNL     1       1.470  -0.405  -1.273  0.00  0.00    +0.006 A 
ATOM     15  C   UNL     1       1.989  -0.801  -2.491  0.00  0.00    +0.000 A 
ATOM     16  C   UNL     1       1.155  -0.945  -3.584  0.00  0.00    +0.000 A 
ATOM     17  C   UNL     1      -0.198  -0.693  -3.459  0.00  0.00    +0.000 A 
ATOM     18  C   UNL     1      -0.718  -0.301  -2.239  0.00  0.00    +0.006 A 
ENDBRANCH  12  13
BRANCH  12  19
ATOM     19  O   UNL     1      -1.797  -0.180   0.296  0.00  0.00    -0.381 OA
ATOM     20  H   UNL     1      -1.890  -1.141   0.245  0.00  0.00    +0.211 HD
ENDBRANCH  12  19
ENDBRANCH  10  12
ENDBRANCH   9  10
ENDBRANCH   1   9
BRANCH   2  21
ATOM     21  C   UNL     1       1.917   1.590   3.791  0.00  0.00    -0.047 C 
BRANCH  21  22
ATOM     22  N   UNL     1       0.957   2.636   4.165  0.00  0.00    +0.381 N 
ATOM     23  H   UNL     1       0.073   2.459   3.712  0.00  0.00    -0.090 HD
ATOM     24  H   UNL     1       0.828   2.632   5.166  0.00  0.00    -0.090 HD
ATOM     25  H   UNL     1       1.309   3.536   3.875  0.00  0.00    -0.090 HD
ENDBRANCH  21  22
ENDBRANCH   2  21
TORSDOF 7
