REMARK  Name = ZINC44452574
REMARK  9 active torsions:
REMARK  status: ('A' for Active; 'I' for Inactive)
REMARK    1  A    between atoms: C_1  and  C_2
REMARK    2  A    between atoms: C_2  and  N_3
REMARK    3  A    between atoms: N_3  and  C_4
REMARK    4  A    between atoms: N_3  and  S_6
REMARK    5  A    between atoms: C_4  and  C_5
REMARK    6  A    between atoms: S_6  and  C_9
REMARK    7  A    between atoms: C_12  and  C_15
REMARK    8  A    between atoms: N_17  and  C_18
REMARK    9  A    between atoms: C_19  and  C_26
REMARK                            x       y       z     vdW  Elec       q    Type
REMARK                         _______ _______ _______ _____ _____    ______ ____
ROOT
ATOM      1  C   UNL     1       5.377   4.143   2.416  0.00  0.00    +0.249 C 
ATOM      2  O   UNL     1       5.686   4.917   1.531  0.00  0.00    -0.270 OA
ATOM      3  N   UNL     1       5.721   4.406   3.692  0.00  0.00    -0.275 N 
ATOM      4  H   UNL     1       5.475   3.788   4.398  0.00  0.00    +0.156 HD
ENDROOT
BRANCH   3   5
ATOM      5  C   UNL     1       6.426   5.559   3.996  0.00  0.00    +0.085 A 
ATOM      6  C   UNL     1       6.864   5.986   5.237  0.00  0.00    +0.069 A 
ATOM      7  C   UNL     1       7.594   7.252   5.289  0.00  0.00    -0.023 A 
ATOM      8  C   UNL     1       7.744   7.849   4.093  0.00  0.00    -0.004 A 
ATOM      9  S   UNL     1       6.950   6.755   2.944  0.00  0.00    -0.077 S 
ATOM     10  C   UNL     1       8.497   9.147   4.205  0.00  0.00    +0.043 C 
ATOM     11  C   UNL     1       8.434   9.507   5.706  0.00  0.00    +0.010 C 
ATOM     12  C   UNL     1       8.260   8.119   6.356  0.00  0.00    +0.037 C 
BRANCH   6  13
ATOM     13  C   UNL     1       6.607   5.203   6.448  0.00  0.00    +0.254 C 
ATOM     14  O   UNL     1       7.408   4.361   6.809  0.00  0.00    -0.270 OA
ATOM     15  N   UNL     1       5.484   5.415   7.162  0.00  0.00    -0.236 N 
ATOM     16  C   UNL     1       5.248   4.694   8.277  0.00  0.00    +0.304 C 
ATOM     17  O   UNL     1       6.048   3.853   8.637  0.00  0.00    -0.253 OA
ATOM     18  N   UNL     1       4.125   4.907   8.991  0.00  0.00    -0.313 N 
ATOM     19  H   UNL     1       4.846   6.087   6.875  0.00  0.00    +0.159 HD
ATOM     20  H   UNL     1       3.487   5.578   8.703  0.00  0.00    +0.146 HD
ATOM     21  H   UNL     1       3.955   4.388   9.793  0.00  0.00    +0.146 HD
ENDBRANCH   6  13
ENDBRANCH   3   5
BRANCH   1  25
ATOM     22  C   UNL     1       3.218   0.606   1.484  0.00  0.00    +0.106 A 
ATOM     23  C   UNL     1       3.567   1.486   0.475  0.00  0.00    +0.029 A 
ATOM     24  C   UNL     1       4.268   2.637   0.770  0.00  0.00    +0.015 A 
ATOM     25  C   UNL     1       4.625   2.912   2.091  0.00  0.00    +0.037 A 
ATOM     26  C   UNL     1       4.270   2.020   3.105  0.00  0.00    +0.015 A 
ATOM     27  C   UNL     1       3.564   0.876   2.796  0.00  0.00    +0.029 A 
BRANCH  22  28
ATOM     28  S   UNL     1       2.322  -0.861   1.097  0.00  0.00    +0.061 S 
ATOM     29  O   UNL     1       2.586  -1.786   2.143  0.00  0.00    -0.153 OA
ATOM     30  O   UNL     1       2.594  -1.155  -0.266  0.00  0.00    -0.153 OA
BRANCH  28  31
ATOM     31  N   UNL     1       0.711  -0.489   1.189  0.00  0.00    -0.177 NA
BRANCH  31  33
ATOM     32  C   UNL     1      -0.019   1.526   0.010  0.00  0.00    +0.022 C 
ATOM     33  C   UNL     1       0.002  -0.004   0.002  0.00  0.00    +0.106 C 
ENDBRANCH  31  33
BRANCH  31  34
ATOM     34  C   UNL     1      -0.006  -0.646   2.457  0.00  0.00    +0.106 C 
ATOM     35  C   UNL     1      -0.694  -2.013   2.489  0.00  0.00    +0.022 C 
ENDBRANCH  31  34
ENDBRANCH  28  31
ENDBRANCH  22  28
ENDBRANCH   1  25
TORSDOF 7
