REMARK  Name = ZINC67638906
REMARK  6 active torsions:
REMARK  status: ('A' for Active; 'I' for Inactive)
REMARK    1  A    between atoms: C_1  and  C_2
REMARK    2  A    between atoms: C_9  and  C_11
REMARK    3  A    between atoms: C_11  and  O_13
REMARK    4  A    between atoms: O_13  and  C_14
REMARK    5  A    between atoms: C_17  and  O_20
REMARK    6  A    between atoms: O_20  and  C_21
REMARK                            x       y       z     vdW  Elec       q    Type
REMARK                         _______ _______ _______ _____ _____    ______ ____
ROOT
ATOM      1  C   UNL     1      -0.003  -2.812   6.697  0.00  0.00    +0.132 A 
ATOM      2  C   UNL     1      -0.081  -1.672   7.485  0.00  0.00    +0.050 A 
ATOM      3  C   UNL     1       0.014  -1.775   8.859  0.00  0.00    +0.049 A 
ATOM      4  C   UNL     1       0.187  -3.017   9.451  0.00  0.00    +0.122 A 
ATOM      5  C   UNL     1       0.265  -4.157   8.664  0.00  0.00    +0.049 A 
ATOM      6  C   UNL     1       0.164  -4.054   7.290  0.00  0.00    +0.050 A 
ENDROOT
BRANCH   1   7
ATOM      7  O   UNL     1      -0.097  -2.711   5.345  0.00  0.00    -0.420 OA
BRANCH   7   8
ATOM      8  C   UNL     1       0.973  -2.249   4.670  0.00  0.00    +0.384 C 
ATOM      9  O   UNL     1       1.948  -1.853   5.275  0.00  0.00    -0.241 OA
BRANCH   8  18
ATOM     10  C   UNL     1       3.502  -1.093  -0.161  0.00  0.00    +0.066 C 
ATOM     11  C   UNL     1       2.113  -1.675  -0.103  0.00  0.00    +0.045 A 
ATOM     12  C   UNL     1       1.431  -1.943  -1.245  0.00  0.00    +0.043 A 
ATOM     13  C   UNL     1       0.140  -2.485  -1.161  0.00  0.00    +0.116 A 
ATOM     14  N   UNL     1      -0.402  -2.730   0.009  0.00  0.00    -0.219 NA
ATOM     15  C   UNL     1       0.263  -2.469   1.143  0.00  0.00    +0.254 A 
ATOM     16  N   UNL     1       1.527  -1.945   1.096  0.00  0.00    -0.200 N 
ATOM     17  N   UNL     1       1.946  -1.796   2.425  0.00  0.00    -0.137 NA
ATOM     18  C   UNL     1       0.960  -2.224   3.190  0.00  0.00    +0.261 A 
ATOM     19  N   UNL     1      -0.056  -2.622   2.420  0.00  0.00    -0.183 NA
ENDBRANCH   8  18
ENDBRANCH   7   8
ENDBRANCH   1   7
BRANCH   4  20
ATOM     20  O   UNL     1       0.281  -3.119  10.804  0.00  0.00    -0.480 OA
BRANCH  20  21
ATOM     21  C   UNL     1       0.113  -1.916  11.558  0.00  0.00    +0.259 C 
ATOM     22  C   UNL     1       0.776  -2.071  12.929  0.00  0.00    +0.054 C 
ATOM     23  C   UNL     1       0.640  -3.497  13.433  0.00  0.00    +0.006 C 
ATOM     24  C   UNL     1      -0.789  -3.901  13.749  0.00  0.00    +0.019 C 
ATOM     25  C   UNL     1      -1.633  -3.962  12.475  0.00  0.00    +0.104 C 
ATOM     26  N   UNL     1      -2.167  -2.618  12.199  0.00  0.00    -0.312 N 
ATOM     27  C   UNL     1      -1.363  -1.645  11.761  0.00  0.00    +0.254 C 
ATOM     28  O   UNL     1      -1.812  -0.541  11.531  0.00  0.00    -0.272 OA
ATOM     29  H   UNL     1      -3.111  -2.438  12.334  0.00  0.00    +0.149 HD
ENDBRANCH  20  21
ENDBRANCH   4  20
TORSDOF 5
