REMARK  Name = ZINC04222282
REMARK  10 active torsions:
REMARK  status: ('A' for Active; 'I' for Inactive)
REMARK    1  A    between atoms: C_1  and  C_2
REMARK    2  A    between atoms: C_2  and  C_3
REMARK    3  A    between atoms: C_2  and  N_4
REMARK    4  A    between atoms: C_5  and  C_7
REMARK    5  A    between atoms: C_7  and  C_8
REMARK    6  A    between atoms: C_27  and  C_37
REMARK    7  A    between atoms: C_30  and  O_36
REMARK    8  A    between atoms: C_32  and  C_33
REMARK    9  A    between atoms: C_32  and  C_34
REMARK   10  A    between atoms: C_34  and  O_35
REMARK                            x       y       z     vdW  Elec       q    Type
REMARK                         _______ _______ _______ _____ _____    ______ ____
ROOT
ATOM      1  C   UNL     1       8.888  -0.807   2.013  0.00  0.00    +0.054 C 
ATOM      2  C   UNL     1       7.448  -1.282   2.126  0.00  0.00    +0.058 A 
ATOM      3  C   UNL     1       7.165  -2.610   2.111  0.00  0.00    +0.015 A 
ATOM      4  S   UNL     1       5.400  -2.634   2.266  0.00  0.00    -0.057 S 
ATOM      5  C   UNL     1       5.168  -0.913   2.331  0.00  0.00    +0.166 A 
ATOM      6  N   UNL     1       6.403  -0.465   2.240  0.00  0.00    -0.229 NA
ATOM      7  N   UNL     1       3.985  -0.194   2.452  0.00  0.00    -0.248 N 
ATOM      8  C   UNL     1       2.807  -0.844   2.532  0.00  0.00    +0.308 C 
ATOM      9  O   UNL     1       2.785  -2.058   2.598  0.00  0.00    -0.252 OA
ATOM     10  N   UNL     1       1.653  -0.148   2.538  0.00  0.00    -0.281 N 
ATOM     11  C   UNL     1       0.353  -0.837   2.514  0.00  0.00    +0.137 C 
ATOM     12  C   UNL     1      -0.500  -0.224   1.398  0.00  0.00    +0.179 C 
ATOM     13  O   UNL     1      -0.537   1.196   1.560  0.00  0.00    -0.377 OA
ATOM     14  C   UNL     1       0.739   1.832   1.450  0.00  0.00    +0.179 C 
ATOM     15  C   UNL     1       1.655   1.323   2.569  0.00  0.00    +0.137 C 
ATOM     16  C   UNL     1       8.123  -3.743   1.998  0.00  0.00    +0.049 C 
ATOM     17  C   UNL     1       9.490  -3.201   1.536  0.00  0.00    +0.011 C 
ATOM     18  C   UNL     1       9.838  -1.960   2.362  0.00  0.00    -0.019 C 
ATOM     19  C   UNL     1      11.263  -1.496   2.042  0.00  0.00    +0.010 C 
ATOM     20  C   UNL     1      12.266  -2.601   2.298  0.00  0.00    +0.032 C 
ATOM     21  C   UNL     1      11.926  -3.799   1.405  0.00  0.00    +0.123 C 
ATOM     22  C   UNL     1      10.530  -4.301   1.770  0.00  0.00    +0.021 C 
ATOM     23  C   UNL     1      10.187  -5.514   0.903  0.00  0.00    +0.016 C 
ATOM     24  C   UNL     1       9.720  -2.288   3.852  0.00  0.00    +0.012 C 
ATOM     25  H   UNL     1       4.007   0.775   2.480  0.00  0.00    +0.158 HD
ENDROOT
BRANCH  21  26
ATOM     26  O   UNL     1      12.881  -4.840   1.617  0.00  0.00    -0.391 OA
ATOM     27  H   UNL     1      13.790  -4.590   1.406  0.00  0.00    +0.210 HD
ENDBRANCH  21  26
BRANCH   1  28
ATOM     28  C   UNL     1       9.120   0.355   2.980  0.00  0.00    +0.106 C 
BRANCH  28  30
ATOM     29  N   UNL     1       8.423   2.718   3.197  0.00  0.00    -0.313 N 
ATOM     30  C   UNL     1       8.366   1.568   2.498  0.00  0.00    +0.214 C 
ATOM     31  O   UNL     1       7.709   1.508   1.480  0.00  0.00    -0.276 OA
ATOM     32  H   UNL     1       8.948   2.766   4.011  0.00  0.00    +0.149 HD
BRANCH  29  34
ATOM     33  C   UNL     1       6.247   3.834   3.230  0.00  0.00    +0.027 C 
ATOM     34  C   UNL     1       7.691   3.897   2.728  0.00  0.00    +0.067 C 
ATOM     35  C   UNL     1       8.363   5.162   3.265  0.00  0.00    +0.027 C 
ENDBRANCH  29  34
ENDBRANCH  28  30
ENDBRANCH   1  28
BRANCH  22  36
ATOM     36  C   UNL     1      10.512  -4.710   3.244  0.00  0.00    +0.165 C 
BRANCH  36  37
ATOM     37  O   UNL     1      11.361  -5.844   3.433  0.00  0.00    -0.394 OA
ATOM     38  H   UNL     1      11.398  -6.159   4.347  0.00  0.00    +0.209 HD
ENDBRANCH  36  37
ENDBRANCH  22  36
TORSDOF 6
