REMARK  Name = ZINC16480705
REMARK  10 active torsions:
REMARK  status: ('A' for Active; 'I' for Inactive)
REMARK    1  A    between atoms: C_4  and  C_7
REMARK    2  A    between atoms: C_7  and  O_8
REMARK    3  A    between atoms: O_8  and  C_9
REMARK    4  A    between atoms: C_13  and  C_15
REMARK    5  A    between atoms: C_15  and  N_50
REMARK    6  A    between atoms: C_16  and  C_17
REMARK    7  A    between atoms: C_16  and  N_50
REMARK    8  A    between atoms: C_17  and  N_18
REMARK    9  A    between atoms: N_18  and  C_19
REMARK   10  A    between atoms: C_22  and  N_26
REMARK                            x       y       z     vdW  Elec       q    Type
REMARK                         _______ _______ _______ _____ _____    ______ ____
ROOT
ATOM      1  N   UNL     1       6.898  -4.089  -4.913  0.00  0.00    +0.383 N 
ATOM      2  H   UNL     1       5.871  -4.064  -4.902  0.00  0.00    -0.085 HD
ATOM      3  H   UNL     1       7.229  -4.823  -4.277  0.00  0.00    -0.085 HD
ENDROOT
BRANCH   1   4
ATOM      4  C   UNL     1       7.421  -2.784  -4.466  0.00  0.00    -0.047 C 
BRANCH   4   9
ATOM      5  C   UNL     1       5.287  -1.589  -1.586  0.00  0.00    +0.121 A 
ATOM      6  C   UNL     1       6.037  -2.008  -0.496  0.00  0.00    +0.045 A 
ATOM      7  C   UNL     1       7.230  -2.675  -0.696  0.00  0.00    +0.004 A 
ATOM      8  C   UNL     1       7.677  -2.926  -1.980  0.00  0.00    +0.002 A 
ATOM      9  C   UNL     1       6.931  -2.509  -3.067  0.00  0.00    -0.061 A 
ATOM     10  C   UNL     1       5.735  -1.846  -2.873  0.00  0.00    +0.047 A 
BRANCH   5  11
ATOM     11  O   UNL     1       4.113  -0.932  -1.392  0.00  0.00    -0.487 OA
BRANCH  11  12
ATOM     12  C   UNL     1       3.711  -0.707  -0.039  0.00  0.00    +0.264 C 
BRANCH  12  16
ATOM     13  C   UNL     1      -0.017   1.378   0.010  0.00  0.00    +0.000 A 
ATOM     14  C   UNL     1       1.171   2.086   0.002  0.00  0.00    +0.000 A 
ATOM     15  C   UNL     1       2.377   1.411  -0.014  0.00  0.00    +0.007 A 
ATOM     16  C   UNL     1       2.396   0.029  -0.022  0.00  0.00    -0.010 A 
ATOM     17  C   UNL     1       1.208  -0.679  -0.014  0.00  0.00    +0.007 A 
ATOM     18  C   UNL     1       0.002  -0.004   0.002  0.00  0.00    +0.000 A 
ENDBRANCH  12  16
ENDBRANCH  11  12
ENDBRANCH   5  11
ENDBRANCH   4   9
ENDBRANCH   1   4
BRANCH   1  19
ATOM     19  C   UNL     1       7.362  -4.385  -6.282  0.00  0.00    -0.063 C 
BRANCH  19  20
ATOM     20  C   UNL     1       6.804  -5.741  -6.718  0.00  0.00    +0.082 C 
BRANCH  20  21
ATOM     21  N   UNL     1       7.261  -6.042  -8.077  0.00  0.00    -0.345 N 
ATOM     22  H   UNL     1       7.830  -5.413  -8.549  0.00  0.00    +0.146 HD
BRANCH  21  23
ATOM     23  C   UNL     1       6.878  -7.236  -8.695  0.00  0.00    +0.046 A 
ATOM     24  C   UNL     1       6.064  -8.137  -8.022  0.00  0.00    +0.026 A 
ATOM     25  C   UNL     1       5.687  -9.316  -8.635  0.00  0.00    +0.034 A 
ATOM     26  C   UNL     1       6.119  -9.600  -9.918  0.00  0.00    +0.128 A 
ATOM     27  C   UNL     1       6.929  -8.705 -10.591  0.00  0.00    +0.054 A 
ATOM     28  C   UNL     1       7.306  -7.521  -9.986  0.00  0.00    +0.064 A 
ATOM     29 CL   UNL     1       8.317  -6.394 -10.835  0.00  0.00    -0.082 Cl
BRANCH  26  30
ATOM     30  N   UNL     1       5.712 -10.864 -10.571  0.00  0.00    +0.056 N 
ATOM     31  O   UNL     1       4.997 -11.653  -9.979  0.00  0.00    -0.126 OA
ATOM     32  O   UNL     1       6.091 -11.115 -11.701  0.00  0.00    -0.126 OA
ENDBRANCH  26  30
ENDBRANCH  21  23
ENDBRANCH  20  21
ENDBRANCH  19  20
ENDBRANCH   1  19
TORSDOF 10
