REMARK  Name = ZINC63752372
REMARK  6 active torsions:
REMARK  status: ('A' for Active; 'I' for Inactive)
REMARK    1  A    between atoms: C_1  and  C_2
REMARK    2  A    between atoms: C_5  and  C_8
REMARK    3  A    between atoms: N_10  and  C_11
REMARK    4  A    between atoms: C_14  and  C_36
REMARK    5  A    between atoms: C_19  and  C_21
REMARK    6  A    between atoms: N_26  and  C_29
REMARK                            x       y       z     vdW  Elec       q    Type
REMARK                         _______ _______ _______ _____ _____    ______ ____
ROOT
ATOM      1  C   UNL     1       0.255  -6.387   1.060  0.00  0.00    +0.051 C 
ATOM      2  C   UNL     1       0.411  -7.282   0.015  0.00  0.00    +0.018 A 
ATOM      3  C   UNL     1       0.434  -7.114  -1.390  0.00  0.00    +0.015 A 
ATOM      4  C   UNL     1       0.606  -8.193  -2.193  0.00  0.00    -0.050 A 
ATOM      5  C   UNL     1       0.763  -9.479  -1.669  0.00  0.00    +0.005 A 
ATOM      6  C   UNL     1       0.750  -9.714  -0.335  0.00  0.00    +0.026 A 
ATOM      7  C   UNL     1       0.576  -8.636   0.571  0.00  0.00    +0.045 A 
ATOM      8  N   UNL     1       0.527  -8.601   1.887  0.00  0.00    -0.369 N 
ATOM      9  C   UNL     1       0.332  -7.215   2.324  0.00  0.00    +0.211 C 
ATOM     10  C   UNL     1       0.629  -8.000  -3.688  0.00  0.00    +0.044 C 
ATOM     11  H   UNL     1       0.612  -9.369   2.474  0.00  0.00    +0.161 HD
ENDROOT
BRANCH   9  12
ATOM     12  C   UNL     1      -0.953  -7.096   3.102  0.00  0.00    +0.244 C 
ATOM     13  O   UNL     1      -1.862  -7.871   2.894  0.00  0.00    -0.273 OA
ATOM     14  N   UNL     1      -1.092  -6.127   4.029  0.00  0.00    -0.296 N 
ATOM     15  C   UNL     1      -0.050  -5.107   4.207  0.00  0.00    +0.126 C 
ATOM     16  C   UNL     1      -0.691  -3.721   4.062  0.00  0.00    +0.124 C 
ATOM     17  N   UNL     1      -1.888  -3.666   4.913  0.00  0.00    -0.325 N 
ATOM     18  C   UNL     1      -2.930  -4.687   4.735  0.00  0.00    +0.124 C 
ATOM     19  C   UNL     1      -2.292  -6.069   4.876  0.00  0.00    +0.126 C 
BRANCH  17  20
ATOM     20  C   UNL     1      -2.032  -2.662   5.875  0.00  0.00    +0.065 A 
ATOM     21  C   UNL     1      -2.654  -1.465   5.544  0.00  0.00    +0.026 A 
ATOM     22  C   UNL     1      -2.795  -0.474   6.496  0.00  0.00    +0.002 A 
ATOM     23  C   UNL     1      -2.318  -0.672   7.779  0.00  0.00    +0.003 A 
ATOM     24  C   UNL     1      -1.698  -1.862   8.114  0.00  0.00    +0.040 A 
ATOM     25  C   UNL     1      -1.558  -2.860   7.167  0.00  0.00    +0.144 A 
ATOM     26  F   UNL     1      -0.957  -4.025   7.496  0.00  0.00    -0.204 F 
ENDBRANCH  17  20
ENDBRANCH   9  12
BRANCH   1  29
ATOM     27  C   UNL     1      -0.473  -4.507  -0.139  0.00  0.00    +0.248 C 
ATOM     28  O   UNL     1      -0.909  -5.233  -1.011  0.00  0.00    -0.270 OA
ATOM     29  N   UNL     1       0.075  -5.041   0.970  0.00  0.00    -0.282 N 
ATOM     30  H   UNL     1       0.342  -4.466   1.704  0.00  0.00    +0.155 HD
BRANCH  27  35
ATOM     31  C   UNL     1      -0.750   1.208  -0.747  0.00  0.00    +0.044 C 
ATOM     32  C   UNL     1      -0.677  -0.289  -0.588  0.00  0.00    -0.050 A 
ATOM     33  C   UNL     1      -1.092  -1.113  -1.620  0.00  0.00    +0.004 A 
ATOM     34  C   UNL     1      -1.028  -2.483  -1.481  0.00  0.00    +0.013 A 
ATOM     35  C   UNL     1      -0.543  -3.040  -0.296  0.00  0.00    +0.037 A 
ATOM     36  C   UNL     1      -0.126  -2.203   0.742  0.00  0.00    +0.013 A 
ATOM     37  C   UNL     1      -0.191  -0.834   0.587  0.00  0.00    +0.004 A 
ENDBRANCH  27  35
ENDBRANCH   1  29
TORSDOF 4
