REMARK  Name = ZINC65510062
REMARK  4 active torsions:
REMARK  status: ('A' for Active; 'I' for Inactive)
REMARK    1  A    between atoms: C_4  and  N_22
REMARK    2  A    between atoms: C_5  and  C_7
REMARK    3  A    between atoms: C_7  and  N_8
REMARK    4  A    between atoms: N_11  and  C_12
REMARK                            x       y       z     vdW  Elec       q    Type
REMARK                         _______ _______ _______ _____ _____    ______ ____
ROOT
ATOM      1  N   UNL     1       1.486  -2.680   1.333  0.00  0.00    -0.295 N 
ATOM      2  C   UNL     1       1.549  -4.005   1.567  0.00  0.00    +0.300 C 
ATOM      3  O   UNL     1       1.389  -4.792   0.654  0.00  0.00    -0.253 OA
ATOM      4  N   UNL     1       1.788  -4.459   2.814  0.00  0.00    -0.294 N 
ATOM      5  H   UNL     1       1.613  -2.052   2.061  0.00  0.00    +0.151 HD
ATOM      6  H   UNL     1       1.915  -3.831   3.542  0.00  0.00    +0.151 HD
ENDROOT
BRANCH   4   7
ATOM      7  C   UNL     1       1.856  -5.900   3.068  0.00  0.00    +0.037 C 
ATOM      8  C   UNL     1       2.979  -6.514   2.230  0.00  0.00    +0.029 C 
ATOM      9  C   UNL     1       3.050  -8.019   2.496  0.00  0.00    -0.008 C 
ATOM     10  C   UNL     1       3.330  -8.262   3.980  0.00  0.00    +0.007 C 
ATOM     11  C   UNL     1       2.207  -7.648   4.819  0.00  0.00    -0.008 C 
ATOM     12  C   UNL     1       2.136  -6.143   4.553  0.00  0.00    +0.029 C 
ATOM     13  C   UNL     1       0.874  -8.296   4.439  0.00  0.00    +0.007 C 
ATOM     14  C   UNL     1       0.594  -8.053   2.955  0.00  0.00    -0.008 C 
ATOM     15  C   UNL     1       1.717  -8.667   2.116  0.00  0.00    +0.007 C 
ATOM     16  C   UNL     1       0.523  -6.548   2.689  0.00  0.00    +0.029 C 
ENDBRANCH   4   7
BRANCH   1  17
ATOM     17  C   UNL     1       1.226  -2.187  -0.022  0.00  0.00    +0.143 C 
BRANCH  17  22
ATOM     18  C   UNL     1      -0.017   1.378   0.010  0.00  0.00    +0.000 A 
ATOM     19  C   UNL     1       1.170   2.089   0.002  0.00  0.00    +0.002 A 
ATOM     20  C   UNL     1       2.377   1.419  -0.013  0.00  0.00    +0.028 A 
ATOM     21  C   UNL     1       2.399   0.031  -0.021  0.00  0.00    +0.070 A 
ATOM     22  C   UNL     1       1.207  -0.680  -0.013  0.00  0.00    -0.005 A 
ATOM     23  C   UNL     1       0.002  -0.004   0.002  0.00  0.00    +0.007 A 
BRANCH  21  24
ATOM     24  N   UNL     1       3.624  -0.652  -0.037  0.00  0.00    -0.240 N 
ATOM     25  C   UNL     1       4.851  -0.085  -0.042  0.00  0.00    +0.114 A 
ATOM     26  C   UNL     1       5.765  -1.083  -0.058  0.00  0.00    +0.041 A 
ATOM     27  C   UNL     1       5.075  -2.300  -0.064  0.00  0.00    +0.135 A 
ATOM     28  N   UNL     1       3.792  -2.043  -0.046  0.00  0.00    -0.175 NA
ENDBRANCH  21  24
ENDBRANCH  17  22
ENDBRANCH   1  17
TORSDOF 4
