REMARK  Name = ZINC32638429
REMARK  12 active torsions:
REMARK  status: ('A' for Active; 'I' for Inactive)
REMARK    1  A    between atoms: C_1  and  C_2
REMARK    2  A    between atoms: C_2  and  O_3
REMARK    3  A    between atoms: O_3  and  C_4
REMARK    4  A    between atoms: C_4  and  C_6
REMARK    5  A    between atoms: C_7  and  C_34
REMARK    6  A    between atoms: C_8  and  C_13
REMARK    7  A    between atoms: C_11  and  C_12
REMARK    8  A    between atoms: C_13  and  O_15
REMARK    9  A    between atoms: O_15  and  C_16
REMARK   10  A    between atoms: C_16  and  C_17
REMARK   11  A    between atoms: N_19  and  C_20
REMARK   12  A    between atoms: N_19  and  C_26
REMARK                            x       y       z     vdW  Elec       q    Type
REMARK                         _______ _______ _______ _____ _____    ______ ____
ROOT
ATOM      1  C   UNL     1       5.580  -0.580  -0.150  0.00  0.00    +0.328 C 
ENDROOT
BRANCH   1   2
ATOM      2  C   UNL     1       6.216  -1.946  -0.143  0.00  0.00    +0.258 C 
ATOM      3  O   UNL     1       5.520  -2.939  -0.103  0.00  0.00    -0.271 OA
ATOM      4  N   UNL     1       7.558  -2.066  -0.179  0.00  0.00    -0.260 N 
BRANCH   4   5
ATOM      5  C   UNL     1       8.402  -0.870  -0.111  0.00  0.00    +0.127 C 
ATOM      6  C   UNL     1       9.408  -1.020   1.061  0.00  0.00    +0.198 C 
ATOM      7  S   UNL     1      10.858  -0.182   0.295  0.00  0.00    -0.008 S 
ATOM      8  O   UNL     1      12.037  -0.961   0.450  0.00  0.00    -0.170 OA
ATOM      9  O   UNL     1      10.848   1.212   0.568  0.00  0.00    -0.170 OA
ATOM     10  C   UNL     1      10.384  -0.349  -1.416  0.00  0.00    +0.132 C 
ATOM     11  C   UNL     1       9.127  -0.704  -1.408  0.00  0.00    +0.016 C 
ENDBRANCH   4   5
BRANCH   4  12
ATOM     12  C   UNL     1       8.145  -3.332  -0.282  0.00  0.00    +0.037 A 
ATOM     13  C   UNL     1       8.825  -3.691  -1.438  0.00  0.00    +0.023 A 
ATOM     14  C   UNL     1       9.408  -4.940  -1.535  0.00  0.00    +0.002 A 
ATOM     15  C   UNL     1       9.305  -5.835  -0.486  0.00  0.00    +0.000 A 
ATOM     16  C   UNL     1       8.624  -5.482   0.664  0.00  0.00    +0.002 A 
ATOM     17  C   UNL     1       8.044  -4.233   0.769  0.00  0.00    +0.023 A 
ENDBRANCH   4  12
ENDBRANCH   1   2
BRANCH   1  18
ATOM     18  O   UNL     1       4.137  -0.718  -0.227  0.00  0.00    -0.451 OA
BRANCH  18  19
ATOM     19  C   UNL     1       3.413   0.420  -0.243  0.00  0.00    +0.356 C 
ATOM     20  O   UNL     1       3.974   1.498  -0.195  0.00  0.00    -0.243 OA
BRANCH  19  23
ATOM     21  C   UNL     1      -0.210   0.915  -0.419  0.00  0.00    +0.083 A 
ATOM     22  C   UNL     1       1.105   1.428  -0.343  0.00  0.00    -0.005 A 
ATOM     23  C   UNL     1       1.950   0.358  -0.320  0.00  0.00    +0.128 A 
ATOM     24  N   UNL     1       1.193  -0.793  -0.379  0.00  0.00    -0.352 N 
ATOM     25  H   UNL     1       1.686  -1.776  -0.372  0.00  0.00    +0.166 HD
ATOM     26  C   UNL     1      -0.106  -0.465  -0.439  0.00  0.00    +0.028 A 
ATOM     27  C   UNL     1      -1.258  -1.434  -0.516  0.00  0.00    +0.064 C 
ATOM     28  C   UNL     1       1.498   2.882  -0.296  0.00  0.00    +0.047 C 
BRANCH  21  29
ATOM     29  C   UNL     1      -1.454   1.700  -0.473  0.00  0.00    +0.341 C 
ATOM     30  O   UNL     1      -2.025   2.005   0.555  0.00  0.00    -0.245 OA
BRANCH  29  31
ATOM     31  O   UNL     1      -1.959   2.081  -1.663  0.00  0.00    -0.461 OA
BRANCH  31  33
ATOM     32  C   UNL     1      -3.606   3.190  -3.074  0.00  0.00    +0.048 C 
ATOM     33  C   UNL     1      -3.189   2.853  -1.641  0.00  0.00    +0.229 C 
ENDBRANCH  31  33
ENDBRANCH  29  31
ENDBRANCH  21  29
ENDBRANCH  19  23
ENDBRANCH  18  19
ENDBRANCH   1  18
TORSDOF 9
