REMARK  Name = ZINC37264063
REMARK  14 active torsions:
REMARK  status: ('A' for Active; 'I' for Inactive)
REMARK    1  A    between atoms: C_1  and  C_2
REMARK    2  A    between atoms: C_5  and  N_8
REMARK    3  A    between atoms: C_11  and  C_13
REMARK    4  A    between atoms: C_13  and  C_14
REMARK    5  A    between atoms: C_13  and  C_15
REMARK    6  A    between atoms: C_13  and  C_16
REMARK    7  A    between atoms: C_17  and  C_33
REMARK    8  A    between atoms: N_23  and  C_24
REMARK    9  A    between atoms: C_24  and  C_25
REMARK   10  A    between atoms: N_27  and  C_28
REMARK   11  A    between atoms: C_28  and  C_29
REMARK   12  A    between atoms: C_29  and  C_30
REMARK   13  A    between atoms: C_30  and  O_31
REMARK   14  A    between atoms: O_31  and  C_32
REMARK                            x       y       z     vdW  Elec       q    Type
REMARK                         _______ _______ _______ _____ _____    ______ ____
ROOT
ATOM      1  N   UNL     1       1.794  -6.403   1.148  0.00  0.00    -0.218 N 
ATOM      2  C   UNL     1       1.928  -7.744   1.288  0.00  0.00    +0.136 A 
ATOM      3  C   UNL     1       1.005  -8.342   0.500  0.00  0.00    +0.034 A 
ATOM      4  C   UNL     1       0.282  -7.341  -0.150  0.00  0.00    +0.075 A 
ATOM      5  N   UNL     1       0.747  -6.179   0.240  0.00  0.00    -0.169 NA
ATOM      6  C   UNL     1       0.817  -9.832   0.375  0.00  0.00    +0.118 C 
ATOM      7  S   UNL     1       2.202 -10.515  -0.605  0.00  0.00    -0.138 S 
ATOM      8  C   UNL     1       3.623  -9.574   0.046  0.00  0.00    +0.166 C 
ATOM      9  C   UNL     1       3.536  -9.445   1.536  0.00  0.00    +0.231 C 
ATOM     10  O   UNL     1       4.096 -10.254   2.246  0.00  0.00    -0.274 OA
ATOM     11  N   UNL     1       2.844  -8.443   2.087  0.00  0.00    -0.246 N 
ENDROOT
BRANCH   1  16
ATOM     12  C   UNL     1       4.881  -2.425   3.768  0.00  0.00    +0.044 C 
ATOM     13  C   UNL     1       4.061  -3.482   3.072  0.00  0.00    -0.050 A 
ATOM     14  C   UNL     1       4.688  -4.560   2.476  0.00  0.00    +0.005 A 
ATOM     15  C   UNL     1       3.940  -5.530   1.838  0.00  0.00    +0.028 A 
ATOM     16  C   UNL     1       2.557  -5.421   1.796  0.00  0.00    +0.067 A 
ATOM     17  C   UNL     1       1.929  -4.337   2.396  0.00  0.00    +0.028 A 
ATOM     18  C   UNL     1       2.683  -3.373   3.036  0.00  0.00    +0.005 A 
ENDBRANCH   1  16
BRANCH   6  19
ATOM     19  C   UNL     1      -0.489 -10.121  -0.320  0.00  0.00    +0.007 A 
ATOM     20  C   UNL     1      -0.722 -10.367  -1.632  0.00  0.00    +0.012 A 
ATOM     21  C   UNL     1      -2.018 -10.610  -2.049  0.00  0.00    +0.008 A 
ATOM     22  C   UNL     1      -3.017 -10.594  -1.133  0.00  0.00    +0.045 A 
ATOM     23  S   UNL     1      -2.130 -10.235   0.374  0.00  0.00    -0.100 S 
ENDBRANCH   6  19
BRANCH   4  24
ATOM     24  C   UNL     1      -0.845  -7.558  -1.127  0.00  0.00    +0.007 C 
ATOM     25  C   UNL     1      -2.038  -8.182  -0.400  0.00  0.00    +0.017 C 
ATOM     26  C   UNL     1      -1.261  -6.216  -1.732  0.00  0.00    +0.017 C 
ATOM     27  C   UNL     1      -0.380  -8.498  -2.242  0.00  0.00    +0.017 C 
ENDBRANCH   4  24
BRANCH  11  28
ATOM     28  C   UNL     1       3.038  -8.082   3.494  0.00  0.00    +0.210 C 
BRANCH  28  29
ATOM     29  C   UNL     1       2.185  -8.970   4.363  0.00  0.00    +0.231 C 
ATOM     30  O   UNL     1       1.483  -9.820   3.857  0.00  0.00    -0.274 OA
ATOM     31  N   UNL     1       2.201  -8.819   5.702  0.00  0.00    -0.314 N 
ATOM     32  H   UNL     1       2.762  -8.139   6.107  0.00  0.00    +0.149 HD
BRANCH  31  33
ATOM     33  C   UNL     1       1.371  -9.682   6.546  0.00  0.00    +0.106 C 
BRANCH  33  34
ATOM     34  C   UNL     1       1.574  -9.305   8.015  0.00  0.00    +0.047 C 
BRANCH  34  35
ATOM     35  C   UNL     1       0.708 -10.206   8.897  0.00  0.00    +0.161 C 
BRANCH  35  36
ATOM     36  O   UNL     1       0.897  -9.855  10.269  0.00  0.00    -0.383 OA
ATOM     37  C   UNL     1       0.129 -10.641  11.182  0.00  0.00    +0.193 C 
ENDBRANCH  35  36
ENDBRANCH  34  35
ENDBRANCH  33  34
ENDBRANCH  31  33
ENDBRANCH  28  29
ENDBRANCH  11  28
TORSDOF 9
