REMARK  Name = ZINC36313997
REMARK  17 active torsions:
REMARK  status: ('A' for Active; 'I' for Inactive)
REMARK    1  A    between atoms: C_1  and  C_2
REMARK    2  A    between atoms: C_2  and  C_3
REMARK    3  A    between atoms: C_3  and  C_4
REMARK    4  A    between atoms: C_4  and  O_5
REMARK    5  A    between atoms: O_5  and  C_6
REMARK    6  A    between atoms: C_6  and  C_7
REMARK    7  A    between atoms: C_7  and  C_9
REMARK    8  A    between atoms: C_7  and  O_35
REMARK    9  A    between atoms: C_9  and  N_10
REMARK   10  A    between atoms: N_10  and  C_11
REMARK   11  A    between atoms: N_10  and  C_31
REMARK   12  A    between atoms: C_11  and  C_12
REMARK   13  A    between atoms: C_13  and  C_30
REMARK   14  A    between atoms: N_15  and  C_24
REMARK   15  A    between atoms: C_16  and  O_17
REMARK   16  A    between atoms: O_17  and  C_18
REMARK   17  A    between atoms: C_31  and  C_32
REMARK                            x       y       z     vdW  Elec       q    Type
REMARK                         _______ _______ _______ _____ _____    ______ ____
ROOT
ATOM      1  C   UNL     1       4.401  -7.587  -6.856  0.00  0.00    +0.021 A 
ATOM      2  C   UNL     1       4.065  -7.801  -8.196  0.00  0.00    +0.065 A 
ATOM      3  N   UNL     1       5.128  -7.586  -8.928  0.00  0.00    -0.168 NA
ATOM      4  N   UNL     1       6.183  -7.226  -8.081  0.00  0.00    -0.200 N 
ATOM      5  C   UNL     1       5.711  -7.228  -6.805  0.00  0.00    +0.225 A 
ATOM      6  C   UNL     1       2.709  -8.211  -8.710  0.00  0.00    +0.068 C 
ENDROOT
BRANCH   4   7
ATOM      7  C   UNL     1       7.491  -6.915  -8.477  0.00  0.00    +0.069 A 
ATOM      8  C   UNL     1       8.171  -5.866  -7.870  0.00  0.00    +0.028 A 
ATOM      9  C   UNL     1       9.459  -5.562  -8.262  0.00  0.00    +0.002 A 
ATOM     10  C   UNL     1      10.073  -6.299  -9.258  0.00  0.00    +0.000 A 
ATOM     11  C   UNL     1       9.399  -7.344  -9.864  0.00  0.00    +0.002 A 
ATOM     12  C   UNL     1       8.112  -7.657  -9.472  0.00  0.00    +0.028 A 
ENDBRANCH   4   7
BRANCH   1  13
ATOM     13  C   UNL     1       3.472  -7.724  -5.676  0.00  0.00    -0.036 C 
BRANCH  13  14
ATOM     14  N   UNL     1       2.811  -6.437  -5.422  0.00  0.00    +0.384 N 
ATOM     15  H   UNL     1       3.509  -5.718  -5.304  0.00  0.00    -0.081 HD
BRANCH  14  16
ATOM     16  C   UNL     1       1.998  -6.537  -4.202  0.00  0.00    -0.044 C 
BRANCH  16  17
ATOM     17  C   UNL     1       2.915  -6.745  -2.995  0.00  0.00    +0.124 C 
BRANCH  17  18
ATOM     18  O   UNL     1       3.807  -5.635  -2.876  0.00  0.00    -0.391 OA
ATOM     19  H   UNL     1       3.367  -4.797  -2.679  0.00  0.00    +0.210 HD
ENDBRANCH  17  18
BRANCH  17  20
ATOM     20  C   UNL     1       2.068  -6.857  -1.725  0.00  0.00    +0.189 C 
BRANCH  20  21
ATOM     21  O   UNL     1       2.913  -7.167  -0.615  0.00  0.00    -0.377 OA
BRANCH  21  22
ATOM     22  C   UNL     1       2.217  -7.294   0.627  0.00  0.00    +0.160 C 
BRANCH  22  23
ATOM     23  C   UNL     1       3.215  -7.626   1.738  0.00  0.00    +0.028 C 
BRANCH  23  25
ATOM     24  C   UNL     1       3.468  -8.093   4.180  0.00  0.00    +0.004 C 
ATOM     25  C   UNL     1       2.471  -7.761   3.068  0.00  0.00    -0.001 C 
ENDBRANCH  23  25
ENDBRANCH  22  23
ENDBRANCH  21  22
ENDBRANCH  20  21
ENDBRANCH  17  20
ENDBRANCH  16  17
ENDBRANCH  14  16
BRANCH  14  26
ATOM     26  C   UNL     1       1.946  -6.098  -6.560  0.00  0.00    -0.075 C 
BRANCH  26  27
ATOM     27  C   UNL     1       1.343  -4.708  -6.346  0.00  0.00    -0.028 C 
ATOM     28  C   UNL     1      -0.174  -4.614  -6.179  0.00  0.00    +0.002 C 
ATOM     29  C   UNL     1       0.485  -4.129  -7.472  0.00  0.00    +0.002 C 
ENDBRANCH  26  27
ENDBRANCH  14  26
ENDBRANCH  13  14
ENDBRANCH   1  13
BRANCH   5  30
ATOM     30  O   UNL     1       6.419  -6.929  -5.686  0.00  0.00    -0.438 OA
BRANCH  30  31
ATOM     31  C   UNL     1       7.136  -7.923  -5.100  0.00  0.00    +0.130 A 
ATOM     32  C   UNL     1       7.221  -9.169  -5.706  0.00  0.00    +0.046 A 
ATOM     33  C   UNL     1       7.950 -10.178  -5.108  0.00  0.00    +0.004 A 
ATOM     34  C   UNL     1       8.594  -9.948  -3.906  0.00  0.00    +0.000 A 
ATOM     35  C   UNL     1       8.510  -8.709  -3.300  0.00  0.00    +0.004 A 
ATOM     36  C   UNL     1       7.787  -7.694  -3.897  0.00  0.00    +0.046 A 
ENDBRANCH  30  31
ENDBRANCH   5  30
TORSDOF 15
