REMARK  Name = ZINC43366849
REMARK  7 active torsions:
REMARK  status: ('A' for Active; 'I' for Inactive)
REMARK    1  A    between atoms: C_1  and  C_2
REMARK    2  A    between atoms: C_5  and  C_7
REMARK    3  A    between atoms: C_7  and  C_9
REMARK    4  A    between atoms: C_7  and  O_13
REMARK    5  A    between atoms: C_9  and  C_11
REMARK    6  A    between atoms: C_9  and  N_12
REMARK    7  A    between atoms: O_13  and  C_14
REMARK                            x       y       z     vdW  Elec       q    Type
REMARK                         _______ _______ _______ _____ _____    ______ ____
ROOT
ATOM      1  C   UNL     1       1.676  -3.243  -0.013  0.00  0.00    +0.224 C 
ENDROOT
BRANCH   1   6
ATOM      2  C   UNL     1      -0.127   1.463   0.192  0.00  0.00    +0.086 C 
ATOM      3  C   UNL     1      -0.074  -0.042   0.137  0.00  0.00    +0.102 A 
ATOM      4  C   UNL     1      -1.137  -0.866   0.130  0.00  0.00    +0.045 A 
ATOM      5  C   UNL     1      -0.631  -2.186   0.072  0.00  0.00    +0.049 A 
ATOM      6  C   UNL     1       0.710  -2.088   0.047  0.00  0.00    +0.144 A 
ATOM      7  O   UNL     1       1.042  -0.787   0.081  0.00  0.00    -0.461 OA
ENDBRANCH   1   6
BRANCH   1   8
ATOM      8  C   UNL     1       2.166  -3.423  -1.452  0.00  0.00    -0.029 C 
ATOM      9  C   UNL     1       2.976  -2.195  -1.872  0.00  0.00    -0.010 C 
BRANCH   8  10
ATOM     10  N   UNL     1       3.014  -4.620  -1.534  0.00  0.00    +0.382 N 
ATOM     11  H   UNL     1       2.480  -5.430  -1.257  0.00  0.00    -0.089 HD
ATOM     12  H   UNL     1       3.337  -4.739  -2.483  0.00  0.00    -0.089 HD
ATOM     13  H   UNL     1       3.807  -4.513  -0.920  0.00  0.00    -0.089 HD
ENDBRANCH   8  10
ENDBRANCH   1   8
BRANCH   1  14
ATOM     14  O   UNL     1       2.791  -2.976   0.840  0.00  0.00    -0.483 OA
BRANCH  14  15
ATOM     15  C   UNL     1       3.309  -4.029   1.526  0.00  0.00    +0.122 A 
ATOM     16  C   UNL     1       2.836  -5.312   1.291  0.00  0.00    +0.046 A 
ATOM     17  C   UNL     1       3.363  -6.380   1.989  0.00  0.00    +0.005 A 
ATOM     18  C   UNL     1       4.363  -6.173   2.921  0.00  0.00    +0.014 A 
ATOM     19  C   UNL     1       4.837  -4.895   3.158  0.00  0.00    +0.017 A 
ATOM     20  C   UNL     1       4.316  -3.823   2.458  0.00  0.00    +0.060 A 
ATOM     21  I   UNL     1       6.351  -4.585   4.572  0.00  0.00    -0.044 I 
ENDBRANCH  14  15
ENDBRANCH   1  14
TORSDOF 5
