REMARK  Name = ZINC64810371
REMARK  3 active torsions:
REMARK  status: ('A' for Active; 'I' for Inactive)
REMARK    1  A    between atoms: C_8  and  N_12
REMARK    2  A    between atoms: C_13  and  C_15
REMARK    3  A    between atoms: C_15  and  C_16
REMARK                            x       y       z     vdW  Elec       q    Type
REMARK                         _______ _______ _______ _____ _____    ______ ____
ROOT
ATOM      1  N   UNL     1       2.498  -4.025  -0.043  0.00  0.00    -0.268 N 
ATOM      2  C   UNL     1       1.356  -4.741  -0.035  0.00  0.00    +0.224 C 
ATOM      3  O   UNL     1       0.284  -4.173  -0.022  0.00  0.00    -0.275 OA
ATOM      4  H   UNL     1       3.355  -4.479  -0.053  0.00  0.00    +0.156 HD
ENDROOT
BRANCH   1  12
ATOM      5  C   UNL     1      -0.016   1.357   0.009  0.00  0.00    +0.002 A 
ATOM      6  C   UNL     1       1.169   2.090   0.002  0.00  0.00    +0.002 A 
ATOM      7  C   UNL     1       2.378   1.464  -0.013  0.00  0.00    +0.030 A 
ATOM      8  C   UNL     1       2.437   0.060  -0.021  0.00  0.00    +0.091 A 
ATOM      9  C   UNL     1       1.232  -0.684  -0.013  0.00  0.00    +0.091 A 
ATOM     10  C   UNL     1       0.002  -0.004   0.002  0.00  0.00    +0.030 A 
ATOM     11  N   UNL     1       1.279  -2.022  -0.021  0.00  0.00    -0.227 NA
ATOM     12  C   UNL     1       2.447  -2.634  -0.035  0.00  0.00    +0.163 A 
ATOM     13  C   UNL     1       3.642  -1.892  -0.043  0.00  0.00    +0.170 A 
ATOM     14  N   UNL     1       3.613  -0.580  -0.036  0.00  0.00    -0.230 NA
ATOM     15 CL   UNL     1       5.168  -2.719  -0.060  0.00  0.00    -0.058 Cl
ENDBRANCH   1  12
BRANCH   2  16
ATOM     16  C   UNL     1       1.411  -6.247  -0.043  0.00  0.00    +0.152 C 
BRANCH  16  17
ATOM     17  C   UNL     1       0.010  -6.801  -0.032  0.00  0.00    +0.059 A 
ATOM     18  C   UNL     1      -0.413  -7.677  -0.976  0.00  0.00    +0.072 A 
ATOM     19  S   UNL     1      -2.095  -7.954  -0.445  0.00  0.00    -0.060 S 
ATOM     20  C   UNL     1      -2.083  -6.942   0.900  0.00  0.00    +0.168 A 
ATOM     21  N   UNL     1      -0.860  -6.458   0.901  0.00  0.00    -0.229 NA
ATOM     22  N   UNL     1      -3.115  -6.685   1.796  0.00  0.00    -0.233 N 
ATOM     23  C   UNL     1      -4.460  -7.275   1.738  0.00  0.00    +0.136 C 
ATOM     24  C   UNL     1      -5.187  -6.656   2.948  0.00  0.00    +0.125 C 
ATOM     25  N   UNL     1      -4.173  -5.783   3.559  0.00  0.00    -0.297 N 
ATOM     26  C   UNL     1      -3.039  -5.864   2.852  0.00  0.00    +0.308 C 
ATOM     27  O   UNL     1      -2.032  -5.246   3.140  0.00  0.00    -0.252 OA
ATOM     28  H   UNL     1      -4.304  -5.238   4.351  0.00  0.00    +0.150 HD
ENDBRANCH  16  17
ENDBRANCH   2  16
TORSDOF 3
