REMARK  Name = ZINC39324936
REMARK  9 active torsions:
REMARK  status: ('A' for Active; 'I' for Inactive)
REMARK    1  A    between atoms: C_1  and  C_2
REMARK    2  A    between atoms: C_4  and  C_36
REMARK    3  A    between atoms: C_5  and  S_9
REMARK    4  A    between atoms: C_6  and  C_8
REMARK    5  A    between atoms: S_9  and  N_12
REMARK    6  A    between atoms: N_12  and  C_13
REMARK    7  A    between atoms: N_12  and  C_19
REMARK    8  A    between atoms: C_13  and  C_14
REMARK    9  A    between atoms: C_19  and  C_20
REMARK                            x       y       z     vdW  Elec       q    Type
REMARK                         _______ _______ _______ _____ _____    ______ ____
ROOT
ATOM      1  N   UNL     1       0.721  -5.397  -0.893  0.00  0.00    -0.168 NA
ENDROOT
BRANCH   1   2
ATOM      2  S   UNL     1      -0.549  -4.454  -0.404  0.00  0.00    +0.062 S 
ATOM      3  O   UNL     1      -0.925  -4.915   0.886  0.00  0.00    -0.153 OA
ATOM      4  O   UNL     1      -1.462  -4.406  -1.492  0.00  0.00    -0.153 OA
BRANCH   2   9
ATOM      5  C   UNL     1       1.569   1.150   0.315  0.00  0.00    +0.044 C 
ATOM      6  C   UNL     1       1.040  -0.249   0.135  0.00  0.00    -0.050 A 
ATOM      7  C   UNL     1       1.062  -1.138   1.194  0.00  0.00    +0.008 A 
ATOM      8  C   UNL     1       0.577  -2.422   1.029  0.00  0.00    -0.024 A 
ATOM      9  C   UNL     1       0.069  -2.817  -0.194  0.00  0.00    +0.111 A 
ATOM     10  C   UNL     1       0.046  -1.928  -1.252  0.00  0.00    -0.024 A 
ATOM     11  C   UNL     1       0.527  -0.643  -1.087  0.00  0.00    +0.008 A 
ATOM     12  C   UNL     1      -0.508  -2.359  -2.586  0.00  0.00    +0.046 C 
ATOM     13  C   UNL     1       0.602  -3.391   2.183  0.00  0.00    +0.046 C 
ENDBRANCH   2   9
ENDBRANCH   1   2
BRANCH   1  14
ATOM     14  C   UNL     1       1.420  -6.243   0.077  0.00  0.00    +0.183 C 
BRANCH  14  15
ATOM     15  C   UNL     1       0.772  -7.603   0.117  0.00  0.00    +0.120 A 
ATOM     16  C   UNL     1       1.112  -8.659  -0.645  0.00  0.00    +0.046 A 
ATOM     17  C   UNL     1       0.251  -9.720  -0.280  0.00  0.00    +0.041 A 
ATOM     18  C   UNL     1      -0.562  -9.250   0.682  0.00  0.00    +0.195 A 
ATOM     19  O   UNL     1      -0.238  -7.969   0.923  0.00  0.00    -0.466 OA
ENDBRANCH  14  15
ENDBRANCH   1  14
BRANCH   1  20
ATOM     20  C   UNL     1       1.145  -5.386  -2.295  0.00  0.00    +0.126 C 
BRANCH  20  21
ATOM     21  C   UNL     1       2.073  -4.194  -2.537  0.00  0.00    +0.114 C 
ATOM     22  C   UNL     1       2.218  -4.014  -4.036  0.00  0.00    -0.003 C 
ATOM     23  C   UNL     1       3.474  -4.069  -4.553  0.00  0.00    -0.003 A 
ATOM     24  C   UNL     1       3.700  -3.907  -5.990  0.00  0.00    +0.059 A 
ATOM     25  C   UNL     1       4.969  -3.966  -6.478  0.00  0.00    +0.163 A 
ATOM     26  C   UNL     1       6.068  -4.178  -5.622  0.00  0.00    +0.164 A 
ATOM     27  C   UNL     1       5.907  -4.339  -4.260  0.00  0.00    +0.073 A 
ATOM     28  C   UNL     1       4.637  -4.294  -3.675  0.00  0.00    +0.044 A 
ATOM     29  N   UNL     1       4.505  -4.452  -2.355  0.00  0.00    -0.284 N 
ATOM     30  C   UNL     1       3.337  -4.420  -1.739  0.00  0.00    +0.225 C 
ATOM     31  O   UNL     1       3.279  -4.571  -0.533  0.00  0.00    -0.275 OA
ATOM     32  O   UNL     1       7.330  -4.223  -6.128  0.00  0.00    -0.485 OA
ATOM     33  C   UNL     1       7.455  -4.441  -7.536  0.00  0.00    +0.270 C 
ATOM     34  C   UNL     1       6.479  -3.503  -8.257  0.00  0.00    +0.270 C 
ATOM     35  O   UNL     1       5.153  -3.816  -7.820  0.00  0.00    -0.485 OA
ATOM     36  H   UNL     1       5.304  -4.598  -1.825  0.00  0.00    +0.155 HD
ENDBRANCH  20  21
ENDBRANCH   1  20
TORSDOF 6
