REMARK  Name = ZINC40982865
REMARK  10 active torsions:
REMARK  status: ('A' for Active; 'I' for Inactive)
REMARK    1  A    between atoms: C_1  and  C_2
REMARK    2  A    between atoms: C_2  and  C_3
REMARK    3  A    between atoms: C_3  and  S_4
REMARK    4  A    between atoms: S_4  and  C_5
REMARK    5  A    between atoms: C_10  and  C_26
REMARK    6  A    between atoms: C_12  and  C_16
REMARK    7  A    between atoms: C_13  and  C_15
REMARK    8  A    between atoms: N_18  and  C_19
REMARK    9  A    between atoms: C_24  and  C_25
REMARK   10  A    between atoms: C_27  and  C_31
REMARK                            x       y       z     vdW  Elec       q    Type
REMARK                         _______ _______ _______ _____ _____    ______ ____
ROOT
ATOM      1  C   UNL     1      -2.767  -4.100  -1.248  0.00  0.00    +0.210 A 
ATOM      2  N   UNL     1      -3.544  -3.208  -0.616  0.00  0.00    -0.187 NA
ATOM      3  C   UNL     1      -4.726  -3.724  -0.415  0.00  0.00    +0.219 A 
ATOM      4  N   UNL     1      -4.731  -4.979  -0.928  0.00  0.00    -0.219 N 
ATOM      5  N   UNL     1      -3.461  -5.198  -1.460  0.00  0.00    -0.141 NA
ATOM      6  C   UNL     1      -5.894  -5.861  -0.895  0.00  0.00    +0.184 C 
ATOM      7  C   UNL     1      -6.933  -5.286   0.031  0.00  0.00    +0.061 C 
ATOM      8  C   UNL     1      -6.874  -4.036   0.512  0.00  0.00    +0.018 C 
ATOM      9  N   UNL     1      -5.845  -3.180   0.201  0.00  0.00    -0.287 N 
ATOM     10  C   UNL     1      -7.972  -3.553   1.423  0.00  0.00    +0.061 C 
ATOM     11  H   UNL     1      -5.899  -2.233   0.404  0.00  0.00    +0.155 HD
ENDROOT
BRANCH   6  12
ATOM     12  C   UNL     1      -6.471  -5.984  -2.282  0.00  0.00    +0.022 A 
ATOM     13  C   UNL     1      -6.555  -7.079  -3.077  0.00  0.00    -0.038 A 
ATOM     14  C   UNL     1      -7.132  -6.956  -4.327  0.00  0.00    +0.011 A 
ATOM     15  C   UNL     1      -7.597  -5.745  -4.721  0.00  0.00    +0.046 A 
ATOM     16  S   UNL     1      -7.228  -4.729  -3.300  0.00  0.00    -0.099 S 
ATOM     17  C   UNL     1      -6.026  -8.409  -2.606  0.00  0.00    +0.044 C 
ENDBRANCH   6  12
BRANCH   7  18
ATOM     18  C   UNL     1      -8.023  -6.104   0.413  0.00  0.00    +0.248 C 
ATOM     19  O   UNL     1      -7.872  -6.961   1.264  0.00  0.00    -0.270 OA
ATOM     20  N   UNL     1      -9.227  -5.935  -0.167  0.00  0.00    -0.281 N 
ATOM     21  H   UNL     1      -9.368  -5.204  -0.789  0.00  0.00    +0.155 HD
BRANCH  20  22
ATOM     22  C   UNL     1     -10.275  -6.813   0.128  0.00  0.00    +0.037 A 
ATOM     23  C   UNL     1     -10.498  -7.214   1.439  0.00  0.00    +0.023 A 
ATOM     24  C   UNL     1     -11.534  -8.082   1.726  0.00  0.00    +0.002 A 
ATOM     25  C   UNL     1     -12.348  -8.550   0.711  0.00  0.00    +0.000 A 
ATOM     26  C   UNL     1     -12.128  -8.153  -0.595  0.00  0.00    +0.005 A 
ATOM     27  C   UNL     1     -11.098  -7.281  -0.888  0.00  0.00    -0.029 A 
ATOM     28  C   UNL     1     -10.863  -6.843  -2.311  0.00  0.00    +0.045 C 
ENDBRANCH  20  22
ENDBRANCH   7  18
BRANCH   1  29
ATOM     29  S   UNL     1      -1.090  -3.842  -1.723  0.00  0.00    -0.084 S 
BRANCH  29  30
ATOM     30  C   UNL     1      -0.728  -2.158  -1.154  0.00  0.00    +0.077 C 
BRANCH  30  32
ATOM     31  C   UNL     1       1.024  -0.380  -1.028  0.00  0.00    +0.004 C 
ATOM     32  C   UNL     1       0.717  -1.800  -1.508  0.00  0.00    +0.008 C 
ENDBRANCH  30  32
ENDBRANCH  29  30
ENDBRANCH   1  29
TORSDOF 6
