REMARK  Name = ZINC25450992
REMARK  6 active torsions:
REMARK  status: ('A' for Active; 'I' for Inactive)
REMARK    1  A    between atoms: C_1  and  C_2
REMARK    2  A    between atoms: C_3  and  C_11
REMARK    3  A    between atoms: N_13  and  N_14
REMARK    4  A    between atoms: C_15  and  C_17
REMARK    5  A    between atoms: C_19  and  C_29
REMARK    6  A    between atoms: N_20  and  C_22
REMARK                            x       y       z     vdW  Elec       q    Type
REMARK                         _______ _______ _______ _____ _____    ______ ____
ROOT
ATOM      1  N   UNL     1      -3.441   2.767  -0.389  0.00  0.00    -0.229 N 
ATOM      2  C   UNL     1      -4.616   2.155  -0.634  0.00  0.00    +0.280 C 
ATOM      3  O   UNL     1      -4.636   0.979  -0.942  0.00  0.00    -0.267 OA
ATOM      4  H   UNL     1      -3.423   3.831  -0.111  0.00  0.00    +0.173 HD
ENDROOT
BRANCH   2   5
ATOM      5  C   UNL     1      -5.880   2.912  -0.527  0.00  0.00    +0.150 A 
ATOM      6  C   UNL     1      -7.178   2.408  -0.758  0.00  0.00    +0.066 A 
ATOM      7  C   UNL     1      -8.024   3.463  -0.538  0.00  0.00    +0.110 A 
ATOM      8  N   UNL     1      -7.239   4.533  -0.203  0.00  0.00    -0.228 N 
ATOM      9  N   UNL     1      -6.002   4.185  -0.204  0.00  0.00    -0.161 NA
BRANCH   8  10
ATOM     10  C   UNL     1      -7.714   5.815   0.098  0.00  0.00    +0.066 A 
ATOM     11  C   UNL     1      -7.095   6.932  -0.450  0.00  0.00    +0.029 A 
ATOM     12  C   UNL     1      -7.569   8.195  -0.156  0.00  0.00    +0.022 A 
ATOM     13  C   UNL     1      -8.652   8.350   0.692  0.00  0.00    +0.041 A 
ATOM     14  C   UNL     1      -9.266   7.239   1.243  0.00  0.00    +0.022 A 
ATOM     15  C   UNL     1      -8.800   5.973   0.949  0.00  0.00    +0.029 A 
ATOM     16 CL   UNL     1      -9.240   9.940   1.065  0.00  0.00    -0.084 Cl
ENDBRANCH   8  10
BRANCH   7  17
ATOM     17  C   UNL     1      -9.492   3.450  -0.648  0.00  0.00    +0.153 A 
ATOM     18  C   UNL     1     -10.279   2.341  -0.711  0.00  0.00    +0.051 A 
ATOM     19  C   UNL     1     -11.610   2.793  -0.808  0.00  0.00    +0.042 A 
ATOM     20  C   UNL     1     -11.572   4.140  -0.798  0.00  0.00    +0.196 A 
ATOM     21  O   UNL     1     -10.291   4.534  -0.696  0.00  0.00    -0.461 OA
ENDBRANCH   7  17
ENDBRANCH   2   5
BRANCH   1  24
ATOM     22  C   UNL     1      -1.067   2.662  -0.246  0.00  0.00    +0.279 C 
ATOM     23  O   UNL     1      -1.051   3.813   0.151  0.00  0.00    -0.267 OA
ATOM     24  N   UNL     1      -2.242   2.049  -0.490  0.00  0.00    -0.229 N 
ATOM     25  H   UNL     1      -2.260   0.985  -0.769  0.00  0.00    +0.173 HD
BRANCH  22  28
ATOM     26  C   UNL     1       0.647   2.767  -2.850  0.00  0.00    +0.068 C 
ATOM     27  C   UNL     1       0.936   1.987  -1.593  0.00  0.00    +0.069 A 
ATOM     28  C   UNL     1       0.152   1.966  -0.452  0.00  0.00    +0.133 A 
ATOM     29  N   UNL     1       0.788   1.127   0.445  0.00  0.00    -0.295 N 
ATOM     30  C   UNL     1       0.481   0.735   1.710  0.00  0.00    +0.093 A 
ATOM     31  C   UNL     1       1.291  -0.112   2.385  0.00  0.00    +0.018 A 
ATOM     32  C   UNL     1       2.460  -0.597   1.783  0.00  0.00    +0.005 A 
ATOM     33  C   UNL     1       2.775  -0.209   0.515  0.00  0.00    +0.047 A 
ATOM     34  C   UNL     1       1.920   0.674  -0.169  0.00  0.00    +0.138 A 
ATOM     35  N   UNL     1       1.984   1.205  -1.389  0.00  0.00    -0.232 NA
ENDBRANCH  22  28
ENDBRANCH   1  24
TORSDOF 5
