REMARK  Name = ZINC35706005
REMARK  13 active torsions:
REMARK  status: ('A' for Active; 'I' for Inactive)
REMARK    1  A    between atoms: C_1  and  C_2
REMARK    2  A    between atoms: C_2  and  N_3
REMARK    3  A    between atoms: N_3  and  C_4
REMARK    4  A    between atoms: C_5  and  C_7
REMARK    5  A    between atoms: C_10  and  C_12
REMARK    6  A    between atoms: C_12  and  N_13
REMARK    7  A    between atoms: N_13  and  C_14
REMARK    8  A    between atoms: N_13  and  C_22
REMARK    9  A    between atoms: C_14  and  C_15
REMARK   10  A    between atoms: C_22  and  C_24
REMARK   11  A    between atoms: C_22  and  C_25
REMARK   12  A    between atoms: C_25  and  C_26
REMARK   13  A    between atoms: C_25  and  C_27
REMARK                            x       y       z     vdW  Elec       q    Type
REMARK                         _______ _______ _______ _____ _____    ______ ____
ROOT
ATOM      1  N   UNL     1      -4.915  -4.833  -1.638  0.00  0.00    +0.390 N 
ATOM      2  H   UNL     1      -4.132  -5.248  -2.120  0.00  0.00    -0.080 HD
ENDROOT
BRANCH   1   3
ATOM      3  C   UNL     1      -5.162  -5.561  -0.386  0.00  0.00    -0.068 C 
ATOM      4  C   UNL     1      -4.309  -4.959   0.732  0.00  0.00    -0.013 C 
BRANCH   3   5
ATOM      5  C   UNL     1      -4.793  -7.034  -0.572  0.00  0.00    -0.031 C 
ATOM      6  C   UNL     1      -3.282  -7.159  -0.784  0.00  0.00    +0.005 C 
ATOM      7  C   UNL     1      -5.199  -7.824   0.674  0.00  0.00    +0.005 C 
ENDBRANCH   3   5
ENDBRANCH   1   3
BRANCH   1   8
ATOM      8  C   UNL     1      -4.614  -3.427  -1.335  0.00  0.00    +0.020 C 
BRANCH   8  12
ATOM      9  C   UNL     1      -1.006  -3.151  -1.166  0.00  0.00    +0.164 A 
ATOM     10  C   UNL     1      -1.321  -3.050   0.154  0.00  0.00    +0.230 A 
ATOM     11  O   UNL     1      -2.658  -3.137   0.245  0.00  0.00    -0.449 OA
ATOM     12  C   UNL     1      -3.154  -3.289  -0.991  0.00  0.00    +0.179 A 
ATOM     13  N   UNL     1      -2.176  -3.294  -1.847  0.00  0.00    -0.210 NA
BRANCH   9  16
ATOM     14  N   UNL     1       0.504  -3.102  -3.088  0.00  0.00    -0.300 N 
ATOM     15  C   UNL     1      -0.668  -3.019  -3.962  0.00  0.00    +0.132 C 
ATOM     16  C   UNL     1       0.347  -3.108  -1.749  0.00  0.00    +0.268 C 
ATOM     17  O   UNL     1       1.322  -3.078  -1.022  0.00  0.00    -0.268 OA
BRANCH  14  19
ATOM     18  C   UNL     1       2.404  -1.765  -3.853  0.00  0.00    +0.024 C 
ATOM     19  C   UNL     1       1.847  -3.178  -3.668  0.00  0.00    +0.104 C 
ENDBRANCH  14  19
ENDBRANCH   9  16
ENDBRANCH   8  12
ENDBRANCH   1   8
BRANCH   1  20
ATOM     20  C   UNL     1      -6.109  -4.905  -2.490  0.00  0.00    -0.042 C 
BRANCH  20  21
ATOM     21  C   UNL     1      -6.337  -6.333  -2.916  0.00  0.00    -0.064 A 
ATOM     22  C   UNL     1      -5.633  -6.856  -3.984  0.00  0.00    +0.003 A 
ATOM     23  C   UNL     1      -5.841  -8.165  -4.375  0.00  0.00    +0.020 A 
ATOM     24  C   UNL     1      -6.755  -8.952  -3.697  0.00  0.00    +0.041 A 
ATOM     25  C   UNL     1      -7.459  -8.428  -2.628  0.00  0.00    +0.020 A 
ATOM     26  C   UNL     1      -7.246  -7.120  -2.234  0.00  0.00    +0.003 A 
ATOM     27 CL   UNL     1      -7.017 -10.597  -4.188  0.00  0.00    -0.084 Cl
ENDBRANCH  20  21
ENDBRANCH   1  20
TORSDOF 8
