REMARK  Name = ZINC40659470
REMARK  6 active torsions:
REMARK  status: ('A' for Active; 'I' for Inactive)
REMARK    1  A    between atoms: C_4  and  C_7
REMARK    2  A    between atoms: C_7  and  C_8
REMARK    3  A    between atoms: N_10  and  N_11
REMARK    4  A    between atoms: C_13  and  N_29
REMARK    5  A    between atoms: C_14  and  S_18
REMARK    6  A    between atoms: S_18  and  C_19
REMARK                            x       y       z     vdW  Elec       q    Type
REMARK                         _______ _______ _______ _____ _____    ______ ____
ROOT
ATOM      1  N   UNL     1       5.959  -1.522   2.911  0.00  0.00    -0.246 N 
ATOM      2  C   UNL     1       7.129  -2.224   3.158  0.00  0.00    +0.170 A 
ATOM      3  C   UNL     1       7.478  -2.580   4.457  0.00  0.00    +0.199 A 
ATOM      4  C   UNL     1       8.662  -3.284   4.652  0.00  0.00    +0.137 A 
ATOM      5  N   UNL     1       9.414  -3.590   3.595  0.00  0.00    -0.226 NA
ATOM      6  C   UNL     1       9.049  -3.235   2.381  0.00  0.00    +0.224 A 
ATOM      7  N   UNL     1       7.932  -2.573   2.154  0.00  0.00    -0.217 NA
ATOM      8  H   UNL     1       5.379  -1.272   3.647  0.00  0.00    +0.172 HD
ENDROOT
BRANCH   1  11
ATOM      9  C   UNL     1       4.478  -0.492   1.358  0.00  0.00    +0.233 C 
ATOM     10  O   UNL     1       3.752  -0.179   2.278  0.00  0.00    -0.274 OA
ATOM     11  N   UNL     1       5.615  -1.175   1.598  0.00  0.00    -0.235 N 
ATOM     12  H   UNL     1       6.195  -1.425   0.862  0.00  0.00    +0.173 HD
BRANCH   9  13
ATOM     13  C   UNL     1       4.107  -0.118  -0.054  0.00  0.00    +0.132 C 
BRANCH  13  17
ATOM     14  C   UNL     1       0.405   2.013  -0.040  0.00  0.00    +0.000 A 
ATOM     15  C   UNL     1       1.599   2.700   0.076  0.00  0.00    +0.000 A 
ATOM     16  C   UNL     1       2.796   2.011   0.072  0.00  0.00    +0.004 A 
ATOM     17  C   UNL     1       2.801   0.634  -0.049  0.00  0.00    -0.039 A 
ATOM     18  C   UNL     1       1.607  -0.054  -0.164  0.00  0.00    +0.004 A 
ATOM     19  C   UNL     1       0.409   0.636  -0.161  0.00  0.00    +0.000 A 
ENDBRANCH  13  17
ENDBRANCH   9  13
ENDBRANCH   1  11
BRANCH   3  20
ATOM     20  N   UNL     1       6.612  -2.219   5.602  0.00  0.00    +0.063 N 
ATOM     21  O   UNL     1       5.739  -2.974   5.962  0.00  0.00    -0.126 OA
ATOM     22  O   UNL     1       6.777  -1.168   6.177  0.00  0.00    -0.126 OA
ENDBRANCH   3  20
BRANCH   4  23
ATOM     23  S   UNL     1       9.161  -3.764   6.272  0.00  0.00    -0.065 S 
BRANCH  23  24
ATOM     24  C   UNL     1      10.604  -4.739   6.004  0.00  0.00    +0.040 A 
ATOM     25  C   UNL     1      11.853  -4.218   6.266  0.00  0.00    +0.017 A 
ATOM     26  C   UNL     1      13.000  -4.977   6.058  0.00  0.00    +0.002 A 
ATOM     27  C   UNL     1      12.920  -6.255   5.590  0.00  0.00    +0.010 A 
ATOM     28  C   UNL     1      11.666  -6.821   5.311  0.00  0.00    +0.001 A 
ATOM     29  C   UNL     1      10.489  -6.062   5.523  0.00  0.00    +0.085 A 
ATOM     30  N   UNL     1       9.294  -6.599   5.263  0.00  0.00    -0.254 NA
ATOM     31  C   UNL     1       9.182  -7.827   4.816  0.00  0.00    +0.111 A 
ATOM     32  C   UNL     1      10.297  -8.630   4.591  0.00  0.00    +0.020 A 
ATOM     33  C   UNL     1      11.550  -8.138   4.827  0.00  0.00    +0.011 A 
ENDBRANCH  23  24
ENDBRANCH   4  23
TORSDOF 6
