REMARK  Name = ZINC32797335
REMARK  9 active torsions:
REMARK  status: ('A' for Active; 'I' for Inactive)
REMARK    1  A    between atoms: C_1  and  C_2
REMARK    2  A    between atoms: C_2  and  N_3
REMARK    3  A    between atoms: C_5  and  C_14
REMARK    4  A    between atoms: C_14  and  N_15
REMARK    5  A    between atoms: N_15  and  C_16
REMARK    6  A    between atoms: N_15  and  C_17
REMARK    7  A    between atoms: C_17  and  C_18
REMARK    8  A    between atoms: N_24  and  C_25
REMARK    9  A    between atoms: C_30  and  C_31
REMARK                            x       y       z     vdW  Elec       q    Type
REMARK                         _______ _______ _______ _____ _____    ______ ____
ROOT
ATOM      1  C   UNL     1      -5.923   3.117  -0.218  0.00  0.00    +0.120 A 
ATOM      2  N   UNL     1      -5.916   1.796  -0.226  0.00  0.00    -0.202 NA
ATOM      3  C   UNL     1      -4.764   1.134  -0.137  0.00  0.00    +0.217 A 
ATOM      4  N   UNL     1      -3.621   1.804  -0.042  0.00  0.00    -0.181 NA
ATOM      5  C   UNL     1      -3.632   3.133  -0.035  0.00  0.00    +0.224 A 
ATOM      6  N   UNL     1      -4.789   3.787  -0.118  0.00  0.00    -0.201 NA
ATOM      7  N   UNL     1      -2.446   3.834   0.065  0.00  0.00    -0.283 N 
ATOM      8  N   UNL     1      -4.758  -0.246  -0.145  0.00  0.00    -0.327 N 
ATOM      9  H   UNL     1      -2.462   4.929   0.168  0.00  0.00    +0.155 HD
ATOM     10  H   UNL     1      -3.805  -0.791  -0.072  0.00  0.00    +0.145 HD
ATOM     11  H   UNL     1      -5.705  -0.800  -0.225  0.00  0.00    +0.145 HD
ENDROOT
BRANCH   7  12
ATOM     12  C   UNL     1      -1.226   3.152   0.034  0.00  0.00    +0.036 A 
ATOM     13  C   UNL     1      -1.137   1.913  -0.589  0.00  0.00    +0.023 A 
ATOM     14  C   UNL     1       0.069   1.240  -0.613  0.00  0.00    +0.002 A 
ATOM     15  C   UNL     1       1.189   1.803  -0.028  0.00  0.00    +0.000 A 
ATOM     16  C   UNL     1       1.104   3.038   0.588  0.00  0.00    +0.005 A 
ATOM     17  C   UNL     1      -0.100   3.714   0.620  0.00  0.00    -0.029 A 
ATOM     18  C   UNL     1      -0.191   5.060   1.292  0.00  0.00    +0.045 C 
ENDBRANCH   7  12
BRANCH   1  19
ATOM     19  C   UNL     1      -7.229   3.862  -0.319  0.00  0.00    -0.001 C 
BRANCH  19  20
ATOM     20  N   UNL     1      -7.764   4.096   1.029  0.00  0.00    +0.385 N 
ATOM     21  C   UNL     1      -6.899   5.009   1.788  0.00  0.00    -0.095 C 
ATOM     22  H   UNL     1      -7.784   3.131   1.557  0.00  0.00    -0.081 HD
BRANCH  20  23
ATOM     23  C   UNL     1      -9.141   4.605   0.968  0.00  0.00    -0.032 C 
BRANCH  23  26
ATOM     24  N   UNL     1     -11.736   5.145   3.676  0.00  0.00    -0.324 N 
ATOM     25  C   UNL     1     -11.201   5.094   2.310  0.00  0.00    +0.147 C 
ATOM     26  C   UNL     1      -9.749   4.600   2.372  0.00  0.00    +0.174 C 
ATOM     27  O   UNL     1      -9.760   3.266   2.890  0.00  0.00    -0.487 OA
ATOM     28  C   UNL     1     -10.545   3.040   3.980  0.00  0.00    +0.142 A 
ATOM     29  C   UNL     1     -11.520   3.950   4.371  0.00  0.00    +0.072 A 
ATOM     30  C   UNL     1     -12.305   3.678   5.486  0.00  0.00    +0.027 A 
ATOM     31  C   UNL     1     -12.114   2.513   6.203  0.00  0.00    +0.002 A 
ATOM     32  C   UNL     1     -11.141   1.611   5.815  0.00  0.00    +0.004 A 
ATOM     33  C   UNL     1     -10.358   1.873   4.707  0.00  0.00    +0.047 A 
BRANCH  24  35
ATOM     34  C   UNL     1     -13.343   6.869   3.011  0.00  0.00    +0.024 C 
ATOM     35  C   UNL     1     -13.162   5.500   3.670  0.00  0.00    +0.102 C 
ENDBRANCH  24  35
ENDBRANCH  23  26
ENDBRANCH  20  23
ENDBRANCH  19  20
ENDBRANCH   1  19
TORSDOF 6
