REMARK  Name = ZINC40415639
REMARK  6 active torsions:
REMARK  status: ('A' for Active; 'I' for Inactive)
REMARK    1  A    between atoms: C_1  and  C_2
REMARK    2  A    between atoms: C_2  and  N_3
REMARK    3  A    between atoms: C_4  and  N_21
REMARK    4  A    between atoms: C_5  and  N_12
REMARK    5  A    between atoms: C_17  and  C_19
REMARK    6  A    between atoms: C_19  and  O_20
REMARK                            x       y       z     vdW  Elec       q    Type
REMARK                         _______ _______ _______ _____ _____    ______ ____
ROOT
ATOM      1  N   UNL     1       0.526  -2.294   2.215  0.00  0.00    -0.281 N 
ATOM      2  C   UNL     1       1.894  -2.447   2.231  0.00  0.00    +0.127 A 
ATOM      3  C   UNL     1       2.693  -1.336   2.216  0.00  0.00    +0.134 A 
ATOM      4  C   UNL     1       2.094  -0.065   2.184  0.00  0.00    +0.277 A 
ATOM      5  O   UNL     1       2.786   0.940   2.170  0.00  0.00    -0.266 OA
ATOM      6  N   UNL     1       0.750   0.038   2.170  0.00  0.00    -0.273 N 
ATOM      7  H   UNL     1       0.335   0.914   2.148  0.00  0.00    +0.173 HD
ATOM      8  C   UNL     1      -0.021  -1.065   2.180  0.00  0.00    +0.331 A 
ATOM      9  O   UNL     1      -1.231  -0.948   2.162  0.00  0.00    -0.246 OA
ENDROOT
BRANCH   3  10
ATOM     10  N   UNL     1       4.102  -1.466   2.232  0.00  0.00    -0.318 N 
ATOM     11  C   UNL     1       4.900  -1.109   1.051  0.00  0.00    +0.106 C 
ATOM     12  C   UNL     1       5.983  -0.110   1.472  0.00  0.00    +0.019 C 
ATOM     13  C   UNL     1       6.796  -0.702   2.625  0.00  0.00    +0.003 C 
ATOM     14  C   UNL     1       5.878  -0.952   3.824  0.00  0.00    +0.025 C 
ATOM     15  C   UNL     1       4.795  -1.954   3.432  0.00  0.00    +0.099 C 
BRANCH  15  16
ATOM     16  C   UNL     1       3.793  -2.099   4.580  0.00  0.00    +0.178 C 
BRANCH  16  17
ATOM     17  O   UNL     1       3.283  -0.811   4.931  0.00  0.00    -0.393 OA
ATOM     18  H   UNL     1       2.586  -0.834   5.601  0.00  0.00    +0.209 HD
ENDBRANCH  16  17
ENDBRANCH  15  16
ENDBRANCH   3  10
BRANCH   2  19
ATOM     19  N   UNL     1       2.452  -3.704   2.262  0.00  0.00    -0.343 N 
ATOM     20  H   UNL     1       1.884  -4.485   2.360  0.00  0.00    +0.144 HD
ATOM     21  H   UNL     1       3.413  -3.811   2.187  0.00  0.00    +0.144 HD
ENDBRANCH   2  19
BRANCH   1  23
ATOM     22  C   UNL     1      -0.622  -3.920   0.794  0.00  0.00    +0.027 C 
ATOM     23  C   UNL     1      -0.340  -3.475   2.231  0.00  0.00    +0.125 C 
ENDBRANCH   1  23
TORSDOF 5
