REMARK  Name = ZINC39688799
REMARK  8 active torsions:
REMARK  status: ('A' for Active; 'I' for Inactive)
REMARK    1  A    between atoms: C_1  and  C_2
REMARK    2  A    between atoms: C_4  and  C_8
REMARK    3  A    between atoms: N_6  and  C_7
REMARK    4  A    between atoms: C_12  and  C_21
REMARK    5  A    between atoms: N_23  and  C_24
REMARK    6  A    between atoms: C_24  and  C_26
REMARK    7  A    between atoms: C_24  and  C_27
REMARK    8  A    between atoms: C_27  and  C_28
REMARK                            x       y       z     vdW  Elec       q    Type
REMARK                         _______ _______ _______ _____ _____    ______ ____
ROOT
ATOM      1  C   UNL     1      -0.323  -3.275  -1.458  0.00  0.00    +0.267 C 
ATOM      2  O   UNL     1      -0.321  -3.280  -2.673  0.00  0.00    -0.268 OA
ATOM      3  N   UNL     1      -0.241  -4.436  -0.779  0.00  0.00    -0.295 N 
ATOM      4  C   UNL     1      -0.136  -4.626   0.687  0.00  0.00    +0.121 C 
ATOM      5  C   UNL     1      -1.028  -5.852   0.987  0.00  0.00    +0.100 C 
ATOM      6  C   UNL     1      -1.088  -6.628  -0.340  0.00  0.00    -0.004 C 
ATOM      7  C   UNL     1      -0.242  -5.813  -1.330  0.00  0.00    +0.115 C 
ATOM      8  C   UNL     1      -0.498  -8.023  -0.164  0.00  0.00    -0.010 C 
ATOM      9  C   UNL     1      -0.622  -8.795  -1.480  0.00  0.00    -0.082 C 
ATOM     10  N   UNL     1      -2.035  -8.885  -1.867  0.00  0.00    +0.379 N 
ATOM     11  C   UNL     1      -2.570  -7.542  -2.124  0.00  0.00    -0.082 C 
ATOM     12  C   UNL     1      -2.528  -6.718  -0.835  0.00  0.00    -0.010 C 
ATOM     13  H   UNL     1      -2.119  -9.445  -2.701  0.00  0.00    -0.086 HD
ATOM     14  H   UNL     1      -2.559  -9.316  -1.120  0.00  0.00    -0.086 HD
ENDROOT
BRANCH   1  18
ATOM     15  C   UNL     1      -0.830   1.636  -0.313  0.00  0.00    +0.065 C 
ATOM     16  C   UNL     1      -0.639   0.143  -0.242  0.00  0.00    +0.037 A 
ATOM     17  C   UNL     1      -0.626  -0.716  -1.288  0.00  0.00    +0.057 A 
ATOM     18  C   UNL     1      -0.416  -1.996  -0.725  0.00  0.00    +0.147 A 
ATOM     19  N   UNL     1      -0.319  -1.831   0.580  0.00  0.00    -0.167 NA
ATOM     20  N   UNL     1      -0.442  -0.587   0.877  0.00  0.00    -0.271 N 
ATOM     21  C   UNL     1      -0.381  -0.040   2.234  0.00  0.00    +0.172 C 
ENDBRANCH   1  18
BRANCH   5  22
ATOM     22  C   UNL     1      -2.408  -5.409   1.401  0.00  0.00    +0.218 C 
ATOM     23  O   UNL     1      -2.893  -4.408   0.918  0.00  0.00    -0.275 OA
ATOM     24  N   UNL     1      -3.102  -6.125   2.307  0.00  0.00    -0.312 N 
ATOM     25  H   UNL     1      -2.687  -6.884   2.747  0.00  0.00    +0.149 HD
BRANCH  24  26
ATOM     26  C   UNL     1      -4.483  -5.758   2.629  0.00  0.00    +0.074 C 
ATOM     27  C   UNL     1      -5.437  -6.470   1.668  0.00  0.00    +0.028 C 
BRANCH  26  28
ATOM     28  C   UNL     1      -4.801  -6.176   4.066  0.00  0.00    +0.057 C 
BRANCH  28  29
ATOM     29  C   UNL     1      -3.953  -5.375   5.021  0.00  0.00    -0.045 A 
ATOM     30  C   UNL     1      -2.675  -5.799   5.332  0.00  0.00    +0.006 A 
ATOM     31  C   UNL     1      -1.896  -5.066   6.207  0.00  0.00    +0.038 A 
ATOM     32  C   UNL     1      -2.398  -3.906   6.773  0.00  0.00    +0.123 A 
ATOM     33  C   UNL     1      -3.679  -3.482   6.461  0.00  0.00    +0.038 A 
ATOM     34  C   UNL     1      -4.453  -4.215   5.581  0.00  0.00    +0.006 A 
ATOM     35  F   UNL     1      -1.638  -3.188   7.629  0.00  0.00    -0.205 F 
ENDBRANCH  28  29
ENDBRANCH  26  28
ENDBRANCH  24  26
ENDBRANCH   5  22
TORSDOF 5
