REMARK  Name = ZINC13500596
REMARK  12 active torsions:
REMARK  status: ('A' for Active; 'I' for Inactive)
REMARK    1  A    between atoms: C_1  and  C_2
REMARK    2  A    between atoms: C_4  and  C_38
REMARK    3  A    between atoms: C_9  and  C_14
REMARK    4  A    between atoms: C_14  and  N_75
REMARK    5  A    between atoms: C_15  and  N_75
REMARK    6  A    between atoms: C_21  and  C_23
REMARK    7  A    between atoms: C_21  and  C_35
REMARK    8  A    between atoms: C_21  and  N_75
REMARK    9  A    between atoms: N_27  and  C_28
REMARK   10  A    between atoms: C_28  and  C_29
REMARK   11  A    between atoms: C_35  and  C_36
REMARK   12  A    between atoms: C_35  and  C_37
REMARK                            x       y       z     vdW  Elec       q    Type
REMARK                         _______ _______ _______ _____ _____    ______ ____
ROOT
ATOM      1  N   UNL     1      -3.136   0.551  -1.286  0.00  0.00    +0.391 N 
ATOM      2  H   UNL     1      -2.905   1.415  -1.791  0.00  0.00    -0.080 HD
ENDROOT
BRANCH   1   3
ATOM      3  C   UNL     1      -2.159  -0.496  -1.650  0.00  0.00    -0.067 C 
ATOM      4  C   UNL     1      -2.159  -1.614  -0.606  0.00  0.00    -0.015 C 
ATOM      5  C   UNL     1      -1.134  -2.680  -1.001  0.00  0.00    -0.002 C 
ATOM      6  C   UNL     1       0.258  -2.047  -1.072  0.00  0.00    -0.000 C 
ATOM      7  C   UNL     1       0.257  -0.929  -2.115  0.00  0.00    -0.002 C 
ATOM      8  C   UNL     1      -0.768   0.137  -1.721  0.00  0.00    -0.015 C 
ENDBRANCH   1   3
BRANCH   1   9
ATOM      9  C   UNL     1      -3.076   0.815   0.167  0.00  0.00    -0.036 C 
BRANCH   9  18
ATOM     10  C   UNL     1      -7.037   6.257   3.378  0.00  0.00    +0.044 C 
ATOM     11  C   UNL     1      -5.929   5.803   2.463  0.00  0.00    -0.050 A 
ATOM     12  C   UNL     1      -5.156   6.744   1.797  0.00  0.00    +0.008 A 
ATOM     13  C   UNL     1      -4.138   6.351   0.956  0.00  0.00    -0.026 A 
ATOM     14  C   UNL     1      -3.881   4.997   0.770  0.00  0.00    +0.052 A 
ATOM     15  C   UNL     1      -4.667   4.045   1.446  0.00  0.00    -0.001 A 
ATOM     16  C   UNL     1      -5.695   4.467   2.296  0.00  0.00    +0.013 A 
ATOM     17  C   UNL     1      -4.388   2.622   1.244  0.00  0.00    +0.017 A 
ATOM     18  C   UNL     1      -3.384   2.271   0.403  0.00  0.00    +0.001 A 
ATOM     19  C   UNL     1      -2.622   3.265  -0.247  0.00  0.00    +0.251 A 
ATOM     20  O   UNL     1      -1.720   2.929  -0.994  0.00  0.00    -0.268 OA
ATOM     21  N   UNL     1      -2.869   4.575  -0.067  0.00  0.00    -0.322 N 
ATOM     22  H   UNL     1      -2.329   5.232  -0.533  0.00  0.00    +0.169 HD
ATOM     23  C   UNL     1      -3.307   7.384   0.240  0.00  0.00    +0.046 C 
ENDBRANCH   9  18
ENDBRANCH   1   9
BRANCH   1  24
ATOM     24  C   UNL     1      -4.500   0.124  -1.665  0.00  0.00    +0.006 C 
BRANCH  24  25
ATOM     25  C   UNL     1      -4.916  -1.085  -0.867  0.00  0.00    +0.139 A 
ATOM     26  N   UNL     1      -4.674  -1.306   0.402  0.00  0.00    -0.115 NA
ATOM     27  N   UNL     1      -5.192  -2.443   0.714  0.00  0.00    -0.023 NA
ATOM     28  N   UNL     1      -5.753  -2.957  -0.325  0.00  0.00    -0.044 NA
ATOM     29  N   UNL     1      -5.604  -2.149  -1.320  0.00  0.00    -0.226 N 
BRANCH  29  30
ATOM     30  C   UNL     1      -6.091  -2.353  -2.686  0.00  0.00    +0.182 C 
BRANCH  30  31
ATOM     31  C   UNL     1      -5.037  -3.067  -3.494  0.00  0.00    -0.026 A 
ATOM     32  C   UNL     1      -4.091  -2.340  -4.192  0.00  0.00    +0.005 A 
ATOM     33  C   UNL     1      -3.123  -2.995  -4.929  0.00  0.00    +0.000 A 
ATOM     34  C   UNL     1      -3.106  -4.376  -4.976  0.00  0.00    +0.000 A 
ATOM     35  C   UNL     1      -4.055  -5.103  -4.282  0.00  0.00    +0.000 A 
ATOM     36  C   UNL     1      -5.021  -4.448  -3.541  0.00  0.00    +0.005 A 
ENDBRANCH  30  31
ENDBRANCH  29  30
ENDBRANCH  24  25
BRANCH  24  37
ATOM     37  C   UNL     1      -5.472   1.274  -1.395  0.00  0.00    -0.024 C 
ATOM     38  C   UNL     1      -5.050   2.500  -2.206  0.00  0.00    +0.006 C 
ATOM     39  C   UNL     1      -6.885   0.853  -1.803  0.00  0.00    +0.006 C 
ENDBRANCH  24  37
ENDBRANCH   1  24
TORSDOF 8
