REMARK  Name = ZINC14124321
REMARK  11 active torsions:
REMARK  status: ('A' for Active; 'I' for Inactive)
REMARK    1  A    between atoms: C_1  and  N_63
REMARK    2  A    between atoms: C_2  and  N_63
REMARK    3  A    between atoms: C_3  and  C_5
REMARK    4  A    between atoms: C_3  and  C_27
REMARK    5  A    between atoms: C_3  and  N_63
REMARK    6  A    between atoms: C_5  and  N_6
REMARK    7  A    between atoms: C_7  and  C_9
REMARK    8  A    between atoms: C_9  and  S_10
REMARK    9  A    between atoms: S_10  and  C_11
REMARK   10  A    between atoms: C_14  and  C_22
REMARK   11  A    between atoms: N_15  and  C_16
REMARK                            x       y       z     vdW  Elec       q    Type
REMARK                         _______ _______ _______ _____ _____    ______ ____
ROOT
ATOM      1  C   UNL     1       1.931   7.761  -1.804  0.00  0.00    +0.173 C 
ENDROOT
BRANCH   1   3
ATOM      2  N   UNL     1       1.525   5.461  -0.990  0.00  0.00    -0.316 N 
ATOM      3  C   UNL     1       1.863   6.270  -2.013  0.00  0.00    +0.223 C 
ATOM      4  O   UNL     1       2.113   5.798  -3.102  0.00  0.00    -0.275 OA
ATOM      5  H   UNL     1       1.325   5.838  -0.118  0.00  0.00    +0.149 HD
BRANCH   2   6
ATOM      6  C   UNL     1       1.459   4.011  -1.193  0.00  0.00    +0.093 C 
BRANCH   6   7
ATOM      7  C   UNL     1       1.222   3.318   0.150  0.00  0.00    -0.021 C 
BRANCH   7   8
ATOM      8  C   UNL     1       1.083   1.834  -0.068  0.00  0.00    -0.059 A 
ATOM      9  C   UNL     1      -0.165   1.241  -0.016  0.00  0.00    +0.002 A 
ATOM     10  C   UNL     1      -0.293  -0.120  -0.216  0.00  0.00    +0.000 A 
ATOM     11  C   UNL     1       0.827  -0.890  -0.470  0.00  0.00    +0.000 A 
ATOM     12  C   UNL     1       2.075  -0.297  -0.522  0.00  0.00    +0.000 A 
ATOM     13  C   UNL     1       2.203   1.064  -0.321  0.00  0.00    +0.002 A 
ENDBRANCH   7   8
BRANCH   7  16
ATOM     14  C   UNL     1       3.588   3.816   0.273  0.00  0.00    -0.096 C 
ATOM     15  C   UNL     1       2.077   4.702   1.944  0.00  0.00    -0.096 C 
ATOM     16  N   UNL     1       2.364   3.554   1.059  0.00  0.00    +0.382 N 
ATOM     17  H   UNL     1       2.510   2.717   1.635  0.00  0.00    -0.082 HD
ENDBRANCH   7  16
ENDBRANCH   6   7
ENDBRANCH   2   6
ENDBRANCH   1   3
BRANCH   1  18
ATOM     18  S   UNL     1       2.409   8.566  -3.353  0.00  0.00    -0.077 S 
BRANCH  18  19
ATOM     19  C   UNL     1       2.411  10.250  -2.834  0.00  0.00    +0.193 A 
ATOM     20  N   UNL     1       2.123  10.695  -1.632  0.00  0.00    -0.122 NA
ATOM     21  N   UNL     1       2.225  11.976  -1.598  0.00  0.00    -0.125 NA
ATOM     22  C   UNL     1       2.577  12.429  -2.781  0.00  0.00    +0.201 A 
ATOM     23  N   UNL     1       2.707  11.336  -3.610  0.00  0.00    -0.297 N 
BRANCH  23  24
ATOM     24  C   UNL     1       3.083  11.338  -5.025  0.00  0.00    +0.091 C 
ATOM     25  C   UNL     1       1.956  10.719  -5.854  0.00  0.00    +0.025 C 
ATOM     26  C   UNL     1       2.349  10.720  -7.332  0.00  0.00    +0.002 C 
ATOM     27  C   UNL     1       3.628   9.902  -7.521  0.00  0.00    +0.000 C 
ATOM     28  C   UNL     1       4.756  10.521  -6.692  0.00  0.00    +0.002 C 
ATOM     29  C   UNL     1       4.362  10.519  -5.214  0.00  0.00    +0.025 C 
ENDBRANCH  23  24
BRANCH  22  30
ATOM     30  C   UNL     1       2.791  13.837  -3.151  0.00  0.00    +0.172 A 
ATOM     31  C   UNL     1       2.393  14.923  -2.430  0.00  0.00    +0.053 A 
ATOM     32  C   UNL     1       2.803  16.061  -3.151  0.00  0.00    +0.042 A 
ATOM     33  C   UNL     1       3.424  15.622  -4.264  0.00  0.00    +0.196 A 
ATOM     34  O   UNL     1       3.420  14.278  -4.258  0.00  0.00    -0.460 OA
ENDBRANCH  22  30
ENDBRANCH  18  19
ENDBRANCH   1  18
TORSDOF 9
