REMARK  Name = ZINC64053589
REMARK  7 active torsions:
REMARK  status: ('A' for Active; 'I' for Inactive)
REMARK    1  A    between atoms: C_1  and  N_2
REMARK    2  A    between atoms: N_2  and  C_3
REMARK    3  A    between atoms: C_3  and  C_5
REMARK    4  A    between atoms: C_3  and  C_12
REMARK    5  A    between atoms: C_5  and  C_6
REMARK    6  A    between atoms: C_18  and  C_20
REMARK    7  A    between atoms: C_31  and  C_33
REMARK                            x       y       z     vdW  Elec       q    Type
REMARK                         _______ _______ _______ _____ _____    ______ ____
ROOT
ATOM      1  C   UNL     1       1.387  -0.267   2.001  0.00  0.00    +0.013 C 
ATOM      2  C   UNL     1       2.603  -0.402   1.082  0.00  0.00    +0.024 C 
ATOM      3  C   UNL     1       3.850   0.106   1.813  0.00  0.00    +0.108 C 
ATOM      4  N   UNL     1       3.975  -0.612   3.089  0.00  0.00    -0.300 N 
ATOM      5  C   UNL     1       2.829  -0.623   4.009  0.00  0.00    +0.108 C 
ATOM      6  C   UNL     1       1.594  -1.123   3.253  0.00  0.00    +0.024 C 
ATOM      7  C   UNL     1       5.119  -1.248   3.409  0.00  0.00    +0.242 C 
ATOM      8  O   UNL     1       6.057  -1.232   2.641  0.00  0.00    -0.273 OA
ENDROOT
BRANCH   7   9
ATOM      9  C   UNL     1       5.231  -1.981   4.722  0.00  0.00    +0.190 C 
ATOM     10  C   UNL     1       5.085  -1.012   5.874  0.00  0.00    +0.016 C 
ATOM     11  C   UNL     1       6.244  -1.076   6.568  0.00  0.00    -0.001 A 
ATOM     12  C   UNL     1       6.720  -0.389   7.774  0.00  0.00    +0.048 A 
ATOM     13  C   UNL     1       7.958  -0.669   8.244  0.00  0.00    +0.124 A 
ATOM     14  C   UNL     1       8.796  -1.598   7.607  0.00  0.00    +0.040 A 
ATOM     15  C   UNL     1       8.427  -2.269   6.495  0.00  0.00    +0.029 A 
ATOM     16  C   UNL     1       7.146  -2.052   5.915  0.00  0.00    +0.043 A 
ATOM     17  N   UNL     1       6.567  -2.571   4.858  0.00  0.00    -0.370 N 
ATOM     18  F   UNL     1       8.400  -0.038   9.354  0.00  0.00    -0.205 F 
ATOM     19  H   UNL     1       6.957  -3.234   4.266  0.00  0.00    +0.161 HD
ENDBRANCH   7   9
BRANCH   1  20
ATOM     20  C   UNL     1       0.135  -0.742   1.261  0.00  0.00    +0.083 C 
BRANCH  20  22
ATOM     21  C   UNL     1      -0.066   1.488   0.066  0.00  0.00    +0.132 C 
ATOM     22  N   UNL     1      -0.020   0.024   0.022  0.00  0.00    -0.301 N 
ATOM     23  C   UNL     1      -0.120  -0.618  -1.159  0.00  0.00    +0.219 C 
ATOM     24  O   UNL     1      -0.082  -1.829  -1.196  0.00  0.00    -0.275 OA
BRANCH  23  25
ATOM     25  C   UNL     1      -0.280   0.170  -2.434  0.00  0.00    +0.079 C 
ATOM     26  C   UNL     1       0.932   1.088  -2.624  0.00  0.00    +0.041 C 
ATOM     27  C   UNL     1       0.800   1.825  -3.959  0.00  0.00    +0.160 C 
ATOM     28  O   UNL     1       0.690   0.873  -5.019  0.00  0.00    -0.380 OA
ATOM     29  C   UNL     1      -0.452   0.019  -4.919  0.00  0.00    +0.160 C 
ATOM     30  C   UNL     1      -0.369  -0.791  -3.623  0.00  0.00    +0.041 C 
ENDBRANCH  23  25
ENDBRANCH  20  22
BRANCH  20  31
ATOM     31  C   UNL     1      -1.093  -0.529   2.148  0.00  0.00    +0.058 C 
BRANCH  31  32
ATOM     32  C   UNL     1      -2.309  -1.108   1.471  0.00  0.00    -0.046 A 
ATOM     33  C   UNL     1      -3.067  -0.323   0.623  0.00  0.00    +0.004 A 
ATOM     34  C   UNL     1      -4.182  -0.854   0.002  0.00  0.00    +0.000 A 
ATOM     35  C   UNL     1      -4.539  -2.170   0.229  0.00  0.00    +0.000 A 
ATOM     36  C   UNL     1      -3.780  -2.955   1.077  0.00  0.00    +0.000 A 
ATOM     37  C   UNL     1      -2.663  -2.425   1.694  0.00  0.00    +0.004 A 
ENDBRANCH  31  32
ENDBRANCH  20  31
ENDBRANCH   1  20
TORSDOF 6
