REMARK  Name = ZINC65247305
REMARK  8 active torsions:
REMARK  status: ('A' for Active; 'I' for Inactive)
REMARK    1  A    between atoms: C_1  and  C_2
REMARK    2  A    between atoms: C_2  and  C_3
REMARK    3  A    between atoms: N_5  and  C_26
REMARK    4  A    between atoms: C_11  and  S_13
REMARK    5  A    between atoms: S_13  and  N_16
REMARK    6  A    between atoms: N_16  and  C_17
REMARK    7  A    between atoms: C_17  and  C_18
REMARK    8  A    between atoms: C_26  and  C_27
REMARK                            x       y       z     vdW  Elec       q    Type
REMARK                         _______ _______ _______ _____ _____    ______ ____
ROOT
ATOM      1  C   UNL     1       0.707  -0.490  -1.238  0.00  0.00    +0.135 A 
ATOM      2  N   UNL     1       1.176   0.373  -2.072  0.00  0.00    -0.155 NA
ATOM      3  N   UNL     1       1.842  -0.003  -3.243  0.00  0.00    -0.226 N 
ATOM      4  C   UNL     1       2.012  -1.313  -3.530  0.00  0.00    +0.291 A 
ATOM      5  O   UNL     1       2.590  -1.663  -4.544  0.00  0.00    -0.264 OA
ATOM      6  C   UNL     1       1.482  -2.300  -2.586  0.00  0.00    +0.116 A 
ATOM      7  N   UNL     1       0.840  -1.850  -1.447  0.00  0.00    -0.297 N 
ATOM      8  C   UNL     1       0.444  -2.930  -0.729  0.00  0.00    +0.121 A 
ATOM      9  C   UNL     1       0.824  -4.056  -1.380  0.00  0.00    +0.124 A 
ATOM     10  C   UNL     1       1.474  -3.674  -2.558  0.00  0.00    +0.061 A 
ENDROOT
BRANCH   9  11
ATOM     11  S   UNL     1       0.538  -5.710  -0.844  0.00  0.00    +0.060 S 
ATOM     12  O   UNL     1       1.530  -6.516  -1.466  0.00  0.00    -0.153 OA
ATOM     13  O   UNL     1       0.373  -5.657   0.566  0.00  0.00    -0.153 OA
BRANCH  11  14
ATOM     14  N   UNL     1      -0.918  -6.184  -1.474  0.00  0.00    -0.186 NA
ATOM     15  H   UNL     1      -1.662  -6.378  -0.882  0.00  0.00    +0.148 HD
BRANCH  14  16
ATOM     16  C   UNL     1      -1.083  -6.311  -2.924  0.00  0.00    +0.142 C 
BRANCH  16  17
ATOM     17  C   UNL     1      -2.338  -7.090  -3.220  0.00  0.00    -0.013 A 
ATOM     18  C   UNL     1      -2.259  -8.434  -3.537  0.00  0.00    +0.009 A 
ATOM     19  C   UNL     1      -3.408  -9.150  -3.809  0.00  0.00    +0.039 A 
ATOM     20  C   UNL     1      -4.642  -8.522  -3.765  0.00  0.00    +0.125 A 
ATOM     21  C   UNL     1      -4.722  -7.177  -3.447  0.00  0.00    +0.058 A 
ATOM     22  C   UNL     1      -3.571  -6.463  -3.169  0.00  0.00    +0.048 A 
ATOM     23 CL   UNL     1      -3.670  -4.778  -2.764  0.00  0.00    -0.083 Cl
ATOM     24  F   UNL     1      -5.767  -9.222  -4.031  0.00  0.00    -0.205 F 
ENDBRANCH  16  17
ENDBRANCH  14  16
ENDBRANCH  11  14
ENDBRANCH   9  11
BRANCH   1  26
ATOM     25  C   UNL     1      -0.019   1.526   0.010  0.00  0.00    +0.012 C 
ATOM     26  C   UNL     1       0.002  -0.004   0.002  0.00  0.00    +0.073 C 
ENDBRANCH   1  26
BRANCH   3  27
ATOM     27  C   UNL     1       2.354   1.021  -4.157  0.00  0.00    +0.144 C 
ATOM     28  C   UNL     1       1.277   1.370  -5.186  0.00  0.00    +0.029 C 
ENDBRANCH   3  27
TORSDOF 6
