REMARK  Name = ZINC13208692
REMARK  7 active torsions:
REMARK  status: ('A' for Active; 'I' for Inactive)
REMARK    1  A    between atoms: C_3  and  O_29
REMARK    2  A    between atoms: C_6  and  C_7
REMARK    3  A    between atoms: N_8  and  N_9
REMARK    4  A    between atoms: C_10  and  C_12
REMARK    5  A    between atoms: C_15  and  N_18
REMARK    6  A    between atoms: N_18  and  S_19
REMARK    7  A    between atoms: S_19  and  C_22
REMARK                            x       y       z     vdW  Elec       q    Type
REMARK                         _______ _______ _______ _____ _____    ______ ____
ROOT
ATOM      1  C   UNL     1       4.110  -1.931  -4.274  0.00  0.00    +0.038 A 
ATOM      2  C   UNL     1       3.457  -3.164  -4.348  0.00  0.00    +0.015 A 
ATOM      3  C   UNL     1       2.465  -3.472  -3.445  0.00  0.00    +0.025 A 
ATOM      4  C   UNL     1       2.113  -2.556  -2.457  0.00  0.00    +0.048 A 
ATOM      5  C   UNL     1       2.758  -1.324  -2.384  0.00  0.00    +0.025 A 
ATOM      6  C   UNL     1       3.753  -1.013  -3.281  0.00  0.00    +0.015 A 
ENDROOT
BRANCH   1   8
ATOM      7  N   UNL     1       5.801  -0.408  -5.168  0.00  0.00    -0.203 N 
ATOM      8  C   UNL     1       5.173  -1.598  -5.241  0.00  0.00    +0.263 C 
ATOM      9  O   UNL     1       5.482  -2.397  -6.104  0.00  0.00    -0.268 OA
ATOM     10  H   UNL     1       5.555   0.230  -4.480  0.00  0.00    +0.178 HD
BRANCH   7  12
ATOM     11  C   UNL     1       7.417   1.054  -6.017  0.00  0.00    +0.138 C 
ATOM     12  N   UNL     1       6.811  -0.092  -6.087  0.00  0.00    -0.187 NA
BRANCH  11  18
ATOM     13  C   UNL     1       8.840   0.467  -7.972  0.00  0.00    +0.013 A 
ATOM     14  C   UNL     1       9.830   0.784  -8.877  0.00  0.00    +0.046 A 
ATOM     15  C   UNL     1      10.476   2.011  -8.800  0.00  0.00    +0.117 A 
ATOM     16  C   UNL     1      10.125   2.926  -7.815  0.00  0.00    +0.046 A 
ATOM     17  C   UNL     1       9.133   2.619  -6.910  0.00  0.00    +0.013 A 
ATOM     18  C   UNL     1       8.479   1.386  -6.983  0.00  0.00    -0.005 A 
BRANCH  15  19
ATOM     19  O   UNL     1      11.456   2.317  -9.690  0.00  0.00    -0.507 OA
ATOM     20  H   UNL     1      12.342   2.054  -9.406  0.00  0.00    +0.292 HD
ENDBRANCH  15  19
ENDBRANCH  11  18
ENDBRANCH   7  12
ENDBRANCH   1   8
BRANCH   4  21
ATOM     21  N   UNL     1       1.111  -2.870  -1.545  0.00  0.00    -0.216 N 
ATOM     22  H   UNL     1       0.239  -2.453  -1.621  0.00  0.00    +0.174 HD
BRANCH  21  23
ATOM     23  S   UNL     1       1.408  -3.954  -0.329  0.00  0.00    +0.072 S 
ATOM     24  O   UNL     1       1.972  -5.106  -0.941  0.00  0.00    -0.150 OA
ATOM     25  O   UNL     1       0.229  -4.012   0.461  0.00  0.00    -0.150 OA
BRANCH  23  26
ATOM     26  C   UNL     1       2.665  -3.260   0.693  0.00  0.00    +0.109 A 
ATOM     27  C   UNL     1       2.327  -2.375   1.699  0.00  0.00    +0.030 A 
ATOM     28  C   UNL     1       3.312  -1.831   2.501  0.00  0.00    +0.017 A 
ATOM     29  C   UNL     1       4.637  -2.172   2.296  0.00  0.00    +0.018 A 
ATOM     30  C   UNL     1       4.975  -3.057   1.288  0.00  0.00    +0.017 A 
ATOM     31  C   UNL     1       3.989  -3.601   0.487  0.00  0.00    +0.030 A 
ATOM     32 BR   UNL     1       5.986  -1.428   3.393  0.00  0.00    -0.050 Br
ENDBRANCH  23  26
ENDBRANCH  21  23
ENDBRANCH   4  21
TORSDOF 7
