REMARK  Name = ZINC09410602
REMARK  5 active torsions:
REMARK  status: ('A' for Active; 'I' for Inactive)
REMARK    1  A    between atoms: C_3  and  C_6
REMARK    2  A    between atoms: C_9  and  C_28
REMARK    3  A    between atoms: C_14  and  C_16
REMARK    4  A    between atoms: N_18  and  C_19
REMARK    5  A    between atoms: C_24  and  O_25
REMARK                            x       y       z     vdW  Elec       q    Type
REMARK                         _______ _______ _______ _____ _____    ______ ____
ROOT
ATOM      1  C   UNL     1      -0.807   3.631   0.263  0.00  0.00    +0.111 C 
ATOM      2  C   UNL     1       0.447   4.029  -0.523  0.00  0.00    +0.063 C 
ATOM      3  C   UNL     1       1.647   3.203  -0.045  0.00  0.00    +0.215 C 
ATOM      4  N   UNL     1       1.274   1.786  -0.036  0.00  0.00    -0.238 N 
ATOM      5  C   UNL     1      -0.018   1.342  -0.028  0.00  0.00    +0.119 A 
ATOM      6  C   UNL     1       0.001  -0.005  -0.025  0.00  0.00    +0.078 A 
ATOM      7  C   UNL     1       1.354  -0.413  -0.030  0.00  0.00    +0.149 A 
ATOM      8  N   UNL     1       2.111   0.670  -0.036  0.00  0.00    -0.164 NA
ATOM      9  N   UNL     1      -1.110   2.215  -0.018  0.00  0.00    -0.322 N 
ATOM     10  H   UNL     1      -2.014   1.907  -0.188  0.00  0.00    +0.148 HD
ENDROOT
BRANCH   1  13
ATOM     11  C   UNL     1      -0.585   4.778   3.889  0.00  0.00    +0.008 A 
ATOM     12  C   UNL     1      -0.925   4.829   2.550  0.00  0.00    +0.013 A 
ATOM     13  C   UNL     1      -0.556   3.808   1.739  0.00  0.00    +0.010 A 
ATOM     14  S   UNL     1       0.311   2.733   2.869  0.00  0.00    -0.100 S 
ATOM     15  C   UNL     1       0.116   3.713   4.349  0.00  0.00    +0.045 A 
ENDBRANCH   1  13
BRANCH   7  16
ATOM     16  C   UNL     1       1.839  -1.809  -0.029  0.00  0.00    +0.268 C 
ATOM     17  O   UNL     1       1.044  -2.728  -0.023  0.00  0.00    -0.268 OA
ATOM     18  N   UNL     1       3.163  -2.062  -0.034  0.00  0.00    -0.277 N 
ATOM     19  H   UNL     1       3.796  -1.331  -0.104  0.00  0.00    +0.155 HD
BRANCH  18  20
ATOM     20  C   UNL     1       3.623  -3.381   0.062  0.00  0.00    +0.077 A 
ATOM     21  C   UNL     1       2.906  -4.413  -0.527  0.00  0.00    +0.047 A 
ATOM     22  C   UNL     1       3.367  -5.714  -0.437  0.00  0.00    +0.043 A 
ATOM     23  C   UNL     1       4.535  -5.991   0.252  0.00  0.00    +0.023 A 
ATOM     24  C   UNL     1       5.250  -4.968   0.846  0.00  0.00    +0.049 A 
ATOM     25  C   UNL     1       4.799  -3.662   0.754  0.00  0.00    +0.138 A 
ATOM     26 CL   UNL     1       2.473  -7.003  -1.181  0.00  0.00    -0.083 Cl
BRANCH  25  27
ATOM     27  O   UNL     1       5.503  -2.655   1.338  0.00  0.00    -0.505 OA
ATOM     28  H   UNL     1       5.242  -2.472   2.251  0.00  0.00    +0.292 HD
ENDBRANCH  25  27
ENDBRANCH  18  20
ENDBRANCH   7  16
BRANCH   3  29
ATOM     29  C   UNL     1       2.829   3.416  -0.992  0.00  0.00    +0.412 C 
ATOM     30  F   UNL     1       2.468   3.022  -2.285  0.00  0.00    -0.168 F 
ATOM     31  F   UNL     1       3.183   4.769  -1.000  0.00  0.00    -0.168 F 
ATOM     32  F   UNL     1       3.918   2.651  -0.559  0.00  0.00    -0.168 F 
ENDBRANCH   3  29
TORSDOF 5
