REMARK  Name = ZINC11661376
REMARK  9 active torsions:
REMARK  status: ('A' for Active; 'I' for Inactive)
REMARK    1  A    between atoms: C_1  and  N_56
REMARK    2  A    between atoms: C_2  and  C_3
REMARK    3  A    between atoms: C_2  and  N_56
REMARK    4  A    between atoms: N_5  and  C_15
REMARK    5  A    between atoms: C_7  and  C_8
REMARK    6  A    between atoms: C_18  and  O_21
REMARK    7  A    between atoms: O_21  and  C_22
REMARK    8  A    between atoms: C_23  and  C_24
REMARK    9  A    between atoms: C_23  and  N_56
REMARK                            x       y       z     vdW  Elec       q    Type
REMARK                         _______ _______ _______ _____ _____    ______ ____
ROOT
ATOM      1  C   UNL     1      -0.547   3.031   6.105  0.00  0.00    -0.018 A 
ATOM      2  C   UNL     1      -0.651   1.987   6.956  0.00  0.00    +0.116 A 
ATOM      3  N   UNL     1       0.372   2.071   7.846  0.00  0.00    -0.239 N 
ATOM      4  N   UNL     1       1.129   3.207   7.529  0.00  0.00    -0.166 NA
ATOM      5  C   UNL     1       0.583   3.783   6.479  0.00  0.00    +0.095 A 
ENDROOT
BRANCH   5   6
ATOM      6  C   UNL     1       1.071   5.014   5.808  0.00  0.00    +0.005 A 
ATOM      7  C   UNL     1       1.651   6.036   6.558  0.00  0.00    +0.010 A 
ATOM      8  C   UNL     1       2.104   7.178   5.931  0.00  0.00    +0.003 A 
ATOM      9  C   UNL     1       1.985   7.312   4.560  0.00  0.00    +0.038 A 
ATOM     10  C   UNL     1       1.410   6.300   3.808  0.00  0.00    +0.124 A 
ATOM     11  C   UNL     1       0.957   5.149   4.427  0.00  0.00    +0.048 A 
ATOM     12  F   UNL     1       1.296   6.435   2.469  0.00  0.00    -0.205 F 
ENDBRANCH   5   6
BRANCH   3  13
ATOM     13  C   UNL     1       0.625   1.179   8.897  0.00  0.00    +0.066 A 
ATOM     14  C   UNL     1      -0.214   0.092   9.103  0.00  0.00    +0.031 A 
ATOM     15  C   UNL     1       0.040  -0.790  10.135  0.00  0.00    +0.048 A 
ATOM     16  C   UNL     1       1.126  -0.583  10.973  0.00  0.00    +0.120 A 
ATOM     17  C   UNL     1       1.961   0.506  10.772  0.00  0.00    +0.048 A 
ATOM     18  C   UNL     1       1.712   1.385   9.737  0.00  0.00    +0.031 A 
BRANCH  16  19
ATOM     19  O   UNL     1       1.372  -1.449  11.992  0.00  0.00    -0.495 OA
ATOM     20  C   UNL     1       0.472  -2.548  12.141  0.00  0.00    +0.277 C 
ENDBRANCH  16  19
ENDBRANCH   3  13
BRANCH   1  21
ATOM     21  C   UNL     1      -1.474   3.333   4.955  0.00  0.00    -0.040 C 
BRANCH  21  23
ATOM     22  C   UNL     1      -0.744   1.409   3.678  0.00  0.00    -0.096 C 
ATOM     23  N   UNL     1      -0.836   2.884   3.699  0.00  0.00    +0.382 N 
ATOM     24  H   UNL     1       0.110   3.278   3.646  0.00  0.00    -0.082 HD
BRANCH  23  25
ATOM     25  C   UNL     1      -1.619   3.358   2.538  0.00  0.00    -0.045 C 
BRANCH  25  26
ATOM     26  C   UNL     1      -0.757   3.232   1.280  0.00  0.00    +0.127 C 
ATOM     27  C   UNL     1      -1.482   3.879   0.097  0.00  0.00    +0.189 C 
ATOM     28  O   UNL     1      -0.722   3.660  -1.096  0.00  0.00    -0.375 OA
ATOM     29  C   UNL     1      -0.495   2.277  -1.384  0.00  0.00    +0.188 C 
ATOM     30  C   UNL     1       0.229   1.630  -0.200  0.00  0.00    +0.188 C 
ATOM     31  O   UNL     1      -0.529   1.849   0.993  0.00  0.00    -0.374 OA
ENDBRANCH  25  26
ENDBRANCH  23  25
ENDBRANCH  21  23
ENDBRANCH   1  21
TORSDOF 7
