REMARK  Name = ZINC01312291
REMARK  7 active torsions:
REMARK  status: ('A' for Active; 'I' for Inactive)
REMARK    1  A    between atoms: C_1  and  C_2
REMARK    2  A    between atoms: C_8  and  C_46
REMARK    3  A    between atoms: C_13  and  C_38
REMARK    4  A    between atoms: C_15  and  C_27
REMARK    5  A    between atoms: C_27  and  C_29
REMARK    6  A    between atoms: C_33  and  N_35
REMARK    7  A    between atoms: C_38  and  C_40
REMARK                            x       y       z     vdW  Elec       q    Type
REMARK                         _______ _______ _______ _____ _____    ______ ____
ROOT
ATOM      1  C   UNL     1      -0.018   1.503   0.010  0.00  0.00    +0.044 C 
ATOM      2  C   UNL     1       0.002  -0.004   0.002  0.00  0.00    -0.050 A 
ATOM      3  C   UNL     1       0.006  -0.683  -1.205  0.00  0.00    +0.005 A 
ATOM      4  C   UNL     1       0.016  -2.067  -1.229  0.00  0.00    +0.024 A 
ATOM      5  C   UNL     1       0.028  -2.769  -0.044  0.00  0.00    +0.038 A 
ATOM      6  C   UNL     1       0.039  -2.084   1.189  0.00  0.00    -0.001 A 
ATOM      7  C   UNL     1       0.023  -0.694   1.198  0.00  0.00    +0.013 A 
ATOM      8  C   UNL     1       0.098  -2.872   2.436  0.00  0.00    -0.044 C 
ATOM      9  C   UNL     1      -0.196  -4.169   2.443  0.00  0.00    +0.000 C 
ATOM     10  C   UNL     1      -0.604  -4.868   1.175  0.00  0.00    +0.118 C 
ATOM     11  N   UNL     1       0.018  -4.155   0.036  0.00  0.00    -0.311 N 
ATOM     12  C   UNL     1       0.626  -5.148  -0.854  0.00  0.00    +0.157 C 
ATOM     13  C   UNL     1       1.074  -6.280   0.115  0.00  0.00    +0.110 C 
ATOM     14  C   UNL     1      -0.100  -6.309   1.133  0.00  0.00    +0.108 C 
ATOM     15  C   UNL     1      -1.158  -7.282   0.744  0.00  0.00    -0.008 A 
ATOM     16  C   UNL     1      -1.952  -7.383  -0.378  0.00  0.00    +0.006 A 
ATOM     17  C   UNL     1      -2.858  -8.438  -0.420  0.00  0.00    +0.000 A 
ATOM     18  C   UNL     1      -2.956  -9.343   0.617  0.00  0.00    +0.002 A 
ATOM     19  C   UNL     1      -2.162  -9.250   1.749  0.00  0.00    +0.023 A 
ATOM     20  C   UNL     1      -1.249  -8.196   1.804  0.00  0.00    +0.038 A 
ATOM     21  N   UNL     1      -0.346  -7.868   2.801  0.00  0.00    -0.284 N 
ATOM     22  C   UNL     1       0.374  -6.768   2.490  0.00  0.00    +0.231 C 
ATOM     23  O   UNL     1       1.235  -6.250   3.169  0.00  0.00    -0.274 OA
ATOM     24  C   UNL     1       0.500  -2.197   3.721  0.00  0.00    +0.044 C 
ATOM     25  H   UNL     1      -0.242  -8.369   3.626  0.00  0.00    +0.155 HD
ENDROOT
BRANCH  13  26
ATOM     26  C   UNL     1       1.188  -7.596  -0.611  0.00  0.00    +0.170 C 
ATOM     27  O   UNL     1       0.222  -8.322  -0.704  0.00  0.00    -0.292 OA
BRANCH  26  28
ATOM     28  C   UNL     1       2.472  -8.000  -1.205  0.00  0.00    +0.020 A 
ATOM     29  C   UNL     1       3.591  -7.168  -1.095  0.00  0.00    +0.011 A 
ATOM     30  C   UNL     1       4.790  -7.553  -1.655  0.00  0.00    +0.003 A 
ATOM     31  C   UNL     1       4.889  -8.760  -2.325  0.00  0.00    +0.033 A 
ATOM     32  C   UNL     1       3.787  -9.589  -2.439  0.00  0.00    +0.127 A 
ATOM     33  C   UNL     1       2.582  -9.221  -1.879  0.00  0.00    +0.044 A 
BRANCH  32  34
ATOM     34  N   UNL     1       3.903 -10.878  -3.158  0.00  0.00    +0.056 N 
ATOM     35  O   UNL     1       4.960 -11.205  -3.645  0.00  0.00    -0.126 OA
ATOM     36  O   UNL     1       2.941 -11.603  -3.258  0.00  0.00    -0.126 OA
ENDBRANCH  32  34
ENDBRANCH  26  28
ENDBRANCH  13  26
BRANCH  12  37
ATOM     37  C   UNL     1       1.813  -4.559  -1.572  0.00  0.00    +0.184 C 
ATOM     38  O   UNL     1       2.344  -3.556  -1.145  0.00  0.00    -0.290 OA
BRANCH  37  39
ATOM     39  C   UNL     1       2.328  -5.203  -2.791  0.00  0.00    +0.019 A 
ATOM     40  C   UNL     1       1.716  -6.357  -3.289  0.00  0.00    +0.011 A 
ATOM     41  C   UNL     1       2.204  -6.953  -4.433  0.00  0.00    +0.001 A 
ATOM     42  C   UNL     1       3.297  -6.413  -5.087  0.00  0.00    +0.000 A 
ATOM     43  C   UNL     1       3.910  -5.271  -4.599  0.00  0.00    +0.001 A 
ATOM     44  C   UNL     1       3.429  -4.660  -3.461  0.00  0.00    +0.011 A 
ENDBRANCH  37  39
ENDBRANCH  12  37
TORSDOF 5
