REMARK  Name = ZINC35912932
REMARK  6 active torsions:
REMARK  status: ('A' for Active; 'I' for Inactive)
REMARK    1  A    between atoms: C_1  and  C_2
REMARK    2  A    between atoms: C_5  and  C_8
REMARK    3  A    between atoms: C_8  and  C_9
REMARK    4  A    between atoms: C_13  and  C_23
REMARK    5  A    between atoms: N_15  and  C_16
REMARK    6  A    between atoms: C_24  and  N_26
REMARK                            x       y       z     vdW  Elec       q    Type
REMARK                         _______ _______ _______ _____ _____    ______ ____
ROOT
ATOM      1  C   UNL     1       1.523  -4.781  -0.044  0.00  0.00    +0.138 A 
ATOM      2  N   UNL     1       2.107  -4.969  -1.207  0.00  0.00    -0.212 NA
ATOM      3  C   UNL     1       3.366  -5.397  -1.275  0.00  0.00    +0.169 A 
ATOM      4  C   UNL     1       4.064  -5.647  -0.076  0.00  0.00    +0.082 A 
ATOM      5  C   UNL     1       5.357  -6.085  -0.434  0.00  0.00    +0.073 A 
ATOM      6  N   UNL     1       5.443  -6.101  -1.734  0.00  0.00    -0.169 NA
ATOM      7  N   UNL     1       4.229  -5.682  -2.294  0.00  0.00    -0.214 N 
ATOM      8  C   UNL     1       6.454  -6.468   0.525  0.00  0.00    +0.068 C 
ATOM      9  C   UNL     1       3.394  -5.430   1.143  0.00  0.00    +0.136 A 
ATOM     10  N   UNL     1       2.138  -4.997   1.105  0.00  0.00    -0.216 NA
ENDROOT
BRANCH   9  11
ATOM     11  N   UNL     1       4.028  -5.657   2.349  0.00  0.00    -0.316 N 
ATOM     12  C   UNL     1       4.666  -4.521   3.043  0.00  0.00    +0.104 C 
ATOM     13  C   UNL     1       4.400  -4.578   4.559  0.00  0.00    -0.000 C 
ATOM     14  C   UNL     1       2.974  -5.020   4.803  0.00  0.00    -0.081 C 
ATOM     15  N   UNL     1       2.942  -6.469   4.986  0.00  0.00    +0.380 N 
ATOM     16  C   UNL     1       2.809  -7.217   3.795  0.00  0.00    -0.063 C 
ATOM     17  C   UNL     1       4.038  -7.001   2.889  0.00  0.00    +0.087 C 
ATOM     18  H   UNL     1       3.796  -6.751   5.444  0.00  0.00    -0.086 HD
ATOM     19  H   UNL     1       2.169  -6.697   5.593  0.00  0.00    -0.086 HD
ENDBRANCH   9  11
BRANCH   7  20
ATOM     20  C   UNL     1       3.949  -5.574  -3.662  0.00  0.00    +0.068 A 
ATOM     21  C   UNL     1       2.675  -5.858  -4.136  0.00  0.00    +0.030 A 
ATOM     22  C   UNL     1       2.401  -5.750  -5.485  0.00  0.00    +0.040 A 
ATOM     23  C   UNL     1       3.396  -5.359  -6.366  0.00  0.00    +0.124 A 
ATOM     24  C   UNL     1       4.667  -5.075  -5.896  0.00  0.00    +0.040 A 
ATOM     25  C   UNL     1       4.944  -5.176  -4.546  0.00  0.00    +0.030 A 
ATOM     26  F   UNL     1       3.126  -5.254  -7.685  0.00  0.00    -0.205 F 
ENDBRANCH   7  20
BRANCH   1  27
ATOM     27  C   UNL     1       0.097  -4.295  -0.021  0.00  0.00    +0.111 C 
BRANCH  27  32
ATOM     28  C   UNL     1       0.029   1.483   0.035  0.00  0.00    +0.044 C 
ATOM     29  C   UNL     1       0.046  -0.024   0.021  0.00  0.00    -0.050 A 
ATOM     30  C   UNL     1       0.040  -0.704  -1.183  0.00  0.00    +0.003 A 
ATOM     31  C   UNL     1       0.056  -2.086  -1.196  0.00  0.00    +0.004 A 
ATOM     32  C   UNL     1       0.080  -2.788  -0.006  0.00  0.00    -0.040 A 
ATOM     33  C   UNL     1       0.087  -2.108   1.198  0.00  0.00    +0.004 A 
ATOM     34  C   UNL     1       0.075  -0.726   1.211  0.00  0.00    +0.003 A 
ENDBRANCH  27  32
ENDBRANCH   1  27
TORSDOF 4
