REMARK  Name = ZINC08442027
REMARK  8 active torsions:
REMARK  status: ('A' for Active; 'I' for Inactive)
REMARK    1  A    between atoms: C_1  and  C_2
REMARK    2  A    between atoms: C_2  and  O_3
REMARK    3  A    between atoms: O_3  and  C_4
REMARK    4  A    between atoms: C_13  and  C_25
REMARK    5  A    between atoms: C_15  and  C_21
REMARK    6  A    between atoms: C_15  and  C_23
REMARK    7  A    between atoms: C_16  and  N_20
REMARK    8  A    between atoms: C_17  and  C_18
REMARK                            x       y       z     vdW  Elec       q    Type
REMARK                         _______ _______ _______ _____ _____    ______ ____
ROOT
ATOM      1  C   UNL     1      -2.862   1.422   2.325  0.00  0.00    +0.403 C 
ATOM      2  O   UNL     1      -2.409   2.125   3.207  0.00  0.00    -0.226 OA
ATOM      3  N   UNL     1      -4.136   0.989   2.396  0.00  0.00    -0.263 N 
ATOM      4  C   UNL     1      -4.718   0.136   1.344  0.00  0.00    +0.138 C 
ATOM      5  C   UNL     1      -5.233  -1.111   2.017  0.00  0.00    -0.003 C 
ATOM      6  C   UNL     1      -5.610  -1.102   3.280  0.00  0.00    -0.026 C 
ATOM      7  C   UNL     1      -5.616   0.116   4.154  0.00  0.00    +0.048 C 
ATOM      8  C   UNL     1      -5.002   1.342   3.527  0.00  0.00    +0.120 C 
ATOM      9  C   UNL     1      -4.943  -0.239   5.481  0.00  0.00    +0.074 C 
ATOM     10  C   UNL     1      -5.771  -1.315   6.184  0.00  0.00    +0.189 C 
ATOM     11  C   UNL     1      -6.071  -2.465   5.271  0.00  0.00    +0.054 C 
ATOM     12  C   UNL     1      -6.013  -2.385   3.918  0.00  0.00    +0.074 C 
ENDROOT
BRANCH   9  13
ATOM     13  C   UNL     1      -4.866   0.988   6.353  0.00  0.00    -0.003 A 
ATOM     14  C   UNL     1      -3.773   1.602   6.869  0.00  0.00    +0.027 A 
ATOM     15  C   UNL     1      -3.943   2.732   7.647  0.00  0.00    +0.025 A 
ATOM     16  C   UNL     1      -5.200   3.186   7.880  0.00  0.00    +0.060 A 
ATOM     17  S   UNL     1      -6.192   2.007   6.979  0.00  0.00    -0.100 S 
ATOM     18 BR   UNL     1      -2.448   3.626   8.382  0.00  0.00    -0.050 Br
ENDBRANCH   9  13
BRANCH  11  19
ATOM     19  N   UNL     1      -6.422  -3.661   5.832  0.00  0.00    -0.358 N 
ATOM     20  H   UNL     1      -6.648  -4.524   5.189  0.00  0.00    +0.142 HD
ATOM     21  H   UNL     1      -6.478  -3.759   6.926  0.00  0.00    +0.142 HD
ENDBRANCH  11  19
BRANCH  12  22
ATOM     22  C   UNL     1      -6.337  -3.523   3.111  0.00  0.00    +0.101 C 
ATOM     23  N   UNL     1      -6.594  -4.425   2.471  0.00  0.00    -0.191 NA
ENDBRANCH  12  22
BRANCH  10  24
ATOM     24  C   UNL     1      -5.024  -1.811   7.351  0.00  0.00    +0.091 C 
ATOM     25  N   UNL     1      -4.447  -2.193   8.252  0.00  0.00    -0.194 NA
ENDBRANCH  10  24
BRANCH  10  26
ATOM     26  C   UNL     1      -7.038  -0.723   6.643  0.00  0.00    +0.091 C 
ATOM     27  N   UNL     1      -8.016  -0.266   6.997  0.00  0.00    -0.194 NA
ENDBRANCH  10  26
BRANCH   1  28
ATOM     28  O   UNL     1      -2.091   1.077   1.277  0.00  0.00    -0.451 OA
BRANCH  28  30
ATOM     29  C   UNL     1      -0.013   1.086   0.008  0.00  0.00    +0.048 C 
ATOM     30  C   UNL     1      -0.729   1.579   1.267  0.00  0.00    +0.230 C 
ENDBRANCH  28  30
ENDBRANCH   1  28
TORSDOF 7
