REMARK  Name = ZINC09201549
REMARK  7 active torsions:
REMARK  status: ('A' for Active; 'I' for Inactive)
REMARK    1  A    between atoms: C_1  and  C_2
REMARK    2  A    between atoms: C_7  and  C_8
REMARK    3  A    between atoms: N_10  and  N_11
REMARK    4  A    between atoms: C_12  and  C_13
REMARK    5  A    between atoms: C_15  and  O_21
REMARK    6  A    between atoms: C_18  and  O_19
REMARK    7  A    between atoms: O_21  and  C_22
REMARK                            x       y       z     vdW  Elec       q    Type
REMARK                         _______ _______ _______ _____ _____    ______ ____
ROOT
ATOM      1  N   UNL     1       4.897   1.463  -0.985  0.00  0.00    -0.187 NA
ATOM      2  C   UNL     1       3.773   2.083  -1.177  0.00  0.00    +0.142 C 
ENDROOT
BRANCH   2   3
ATOM      3  C   UNL     1       2.540   1.314  -1.424  0.00  0.00    +0.041 A 
ATOM      4  C   UNL     1       1.328   1.978  -1.630  0.00  0.00    +0.058 A 
ATOM      5  C   UNL     1       0.175   1.250  -1.861  0.00  0.00    +0.122 A 
ATOM      6  C   UNL     1       0.219  -0.137  -1.887  0.00  0.00    +0.064 A 
ATOM      7  C   UNL     1       1.414  -0.802  -1.684  0.00  0.00    +0.063 A 
ATOM      8  C   UNL     1       2.577  -0.086  -1.452  0.00  0.00    +0.140 A 
ATOM      9 BR   UNL     1       1.461  -2.692  -1.722  0.00  0.00    -0.046 Br
BRANCH   8  10
ATOM     10  O   UNL     1       3.752  -0.740  -1.252  0.00  0.00    -0.505 OA
ATOM     11  H   UNL     1       4.251  -0.907  -2.063  0.00  0.00    +0.292 HD
ENDBRANCH   8  10
BRANCH   5  12
ATOM     12  O   UNL     1      -1.004   1.896  -2.068  0.00  0.00    -0.495 OA
ATOM     13  C   UNL     1      -2.155   1.083  -2.306  0.00  0.00    +0.277 C 
ENDBRANCH   5  12
ENDBRANCH   2   3
BRANCH   1  16
ATOM     14  C   UNL     1       7.236   1.550  -0.551  0.00  0.00    +0.264 C 
ATOM     15  O   UNL     1       7.272   0.335  -0.575  0.00  0.00    -0.268 OA
ATOM     16  N   UNL     1       6.069   2.194  -0.750  0.00  0.00    -0.203 N 
ATOM     17  H   UNL     1       6.041   3.163  -0.731  0.00  0.00    +0.178 HD
BRANCH  14  24
ATOM     18  C   UNL     1       9.678   0.156   0.133  0.00  0.00    +0.044 C 
ATOM     19  C   UNL     1       9.657   1.660   0.027  0.00  0.00    -0.038 A 
ATOM     20  C   UNL     1      10.807   2.385   0.256  0.00  0.00    +0.004 A 
ATOM     21  C   UNL     1      10.790   3.765   0.159  0.00  0.00    +0.000 A 
ATOM     22  C   UNL     1       9.619   4.427  -0.168  0.00  0.00    +0.001 A 
ATOM     23  C   UNL     1       8.463   3.713  -0.405  0.00  0.00    +0.013 A 
ATOM     24  C   UNL     1       8.473   2.321  -0.304  0.00  0.00    +0.041 A 
ENDBRANCH  14  24
ENDBRANCH   1  16
TORSDOF 5
