REMARK  Name = ZINC41586438
REMARK  8 active torsions:
REMARK  status: ('A' for Active; 'I' for Inactive)
REMARK    1  A    between atoms: C_1  and  C_2
REMARK    2  A    between atoms: C_2  and  O_3
REMARK    3  A    between atoms: O_3  and  C_4
REMARK    4  A    between atoms: C_4  and  C_6
REMARK    5  A    between atoms: N_11  and  C_13
REMARK    6  A    between atoms: C_13  and  C_14
REMARK    7  A    between atoms: C_15  and  O_32
REMARK    8  A    between atoms: C_22  and  C_23
REMARK                            x       y       z     vdW  Elec       q    Type
REMARK                         _______ _______ _______ _____ _____    ______ ____
ROOT
ATOM      1  C   UNL     1      -5.674  -6.119   0.199  0.00  0.00    +0.020 A 
ATOM      2  C   UNL     1      -6.175  -6.395   1.461  0.00  0.00    +0.122 A 
ATOM      3  C   UNL     1      -7.295  -7.207   1.616  0.00  0.00    +0.046 A 
ATOM      4  C   UNL     1      -7.913  -7.740   0.520  0.00  0.00    +0.019 A 
ATOM      5  C   UNL     1      -7.420  -7.470  -0.756  0.00  0.00    +0.068 A 
ATOM      6  C   UNL     1      -6.294  -6.648  -0.926  0.00  0.00    +0.144 A 
ATOM      7  O   UNL     1      -6.011  -6.528  -2.241  0.00  0.00    -0.451 OA
ATOM      8  C   UNL     1      -6.885  -7.221  -3.010  0.00  0.00    +0.176 C 
ATOM      9  C   UNL     1      -6.872  -7.302  -4.364  0.00  0.00    +0.058 C 
ATOM     10  C   UNL     1      -7.844  -7.878  -2.108  0.00  0.00    +0.231 C 
ATOM     11  O   UNL     1      -8.785  -8.591  -2.412  0.00  0.00    -0.283 OA
ENDROOT
BRANCH   9  12
ATOM     12  C   UNL     1      -5.761  -6.715  -5.124  0.00  0.00    -0.021 A 
ATOM     13  C   UNL     1      -4.634  -6.222  -4.456  0.00  0.00    +0.011 A 
ATOM     14  C   UNL     1      -3.596  -5.673  -5.176  0.00  0.00    +0.039 A 
ATOM     15  C   UNL     1      -3.666  -5.607  -6.559  0.00  0.00    +0.123 A 
ATOM     16  C   UNL     1      -4.780  -6.092  -7.228  0.00  0.00    +0.039 A 
ATOM     17  C   UNL     1      -5.823  -6.650  -6.522  0.00  0.00    +0.011 A 
ATOM     18  F   UNL     1      -2.644  -5.066  -7.259  0.00  0.00    -0.205 F 
ENDBRANCH   9  12
BRANCH   2  19
ATOM     19  O   UNL     1      -5.567  -5.871   2.555  0.00  0.00    -0.506 OA
ATOM     20  H   UNL     1      -5.913  -5.008   2.821  0.00  0.00    +0.292 HD
ENDBRANCH   2  19
BRANCH   1  21
ATOM     21  C   UNL     1      -4.461  -5.238   0.046  0.00  0.00    -0.036 C 
BRANCH  21  26
ATOM     22  C   UNL     1      -4.140  -1.504  -0.145  0.00  0.00    +0.081 C 
ATOM     23  C   UNL     1      -4.971  -1.265  -1.409  0.00  0.00    +0.011 C 
ATOM     24  C   UNL     1      -6.162  -2.228  -1.414  0.00  0.00    -0.018 C 
ATOM     25  C   UNL     1      -5.649  -3.666  -1.320  0.00  0.00    -0.078 C 
ATOM     26  N   UNL     1      -4.885  -3.837  -0.078  0.00  0.00    +0.383 N 
ATOM     27  C   UNL     1      -3.701  -2.969  -0.097  0.00  0.00    -0.064 C 
ATOM     28  H   UNL     1      -5.467  -3.593   0.710  0.00  0.00    -0.081 HD
BRANCH  22  29
ATOM     29  C   UNL     1      -2.923  -0.615  -0.167  0.00  0.00    +0.308 C 
ATOM     30  O   UNL     1      -1.818  -1.103  -0.145  0.00  0.00    -0.251 OA
BRANCH  29  31
ATOM     31  O   UNL     1      -3.067   0.719  -0.212  0.00  0.00    -0.465 OA
BRANCH  31  33
ATOM     32  C   UNL     1      -2.232   2.986  -0.281  0.00  0.00    +0.048 C 
ATOM     33  C   UNL     1      -1.871   1.500  -0.231  0.00  0.00    +0.229 C 
ENDBRANCH  31  33
ENDBRANCH  29  31
ENDBRANCH  22  29
ENDBRANCH  21  26
ENDBRANCH   1  21
TORSDOF 7
