REMARK  Name = ZINC21223876
REMARK  3 active torsions:
REMARK  status: ('A' for Active; 'I' for Inactive)
REMARK    1  A    between atoms: C_8  and  C_26
REMARK    2  A    between atoms: C_14  and  C_19
REMARK    3  A    between atoms: C_31  and  O_32
REMARK                            x       y       z     vdW  Elec       q    Type
REMARK                         _______ _______ _______ _____ _____    ______ ____
ROOT
ATOM      1  C   UNL     1       1.129   2.644   0.204  0.00  0.00    +0.002 A 
ATOM      2  C   UNL     1       1.007   1.268   0.286  0.00  0.00    +0.002 A 
ATOM      3  C   UNL     1      -0.244   0.676   0.297  0.00  0.00    +0.025 A 
ATOM      4  C   UNL     1      -1.373   1.474   0.217  0.00  0.00    +0.052 A 
ATOM      5  C   UNL     1      -1.252   2.855   0.175  0.00  0.00    +0.049 A 
ATOM      6  C   UNL     1       0.001   3.444   0.148  0.00  0.00    +0.025 A 
ATOM      7  N   UNL     1      -2.419   3.619   0.210  0.00  0.00    -0.331 N 
ATOM      8  C   UNL     1      -3.292   3.605   1.352  0.00  0.00    +0.139 C 
ATOM      9  C   UNL     1      -3.949   2.275   1.629  0.00  0.00    +0.037 C 
ATOM     10  C   UNL     1      -3.629   1.102   1.054  0.00  0.00    +0.017 C 
ATOM     11  N   UNL     1      -2.653   0.942   0.126  0.00  0.00    -0.316 N 
ATOM     12  C   UNL     1      -4.385  -0.165   1.415  0.00  0.00    +0.059 C 
ATOM     13  C   UNL     1      -4.831  -0.107   2.876  0.00  0.00    +0.032 C 
ATOM     14  C   UNL     1      -5.737   1.119   3.039  0.00  0.00    +0.088 C 
ATOM     15  C   UNL     1      -4.981   2.335   2.595  0.00  0.00    +0.163 C 
ATOM     16  O   UNL     1      -5.265   3.412   3.083  0.00  0.00    -0.292 OA
ATOM     17  H   UNL     1      -2.665   4.243  -0.663  0.00  0.00    +0.147 HD
ATOM     18  H   UNL     1      -2.937   0.339  -0.750  0.00  0.00    +0.152 HD
ENDROOT
BRANCH  13  19
ATOM     19  C   UNL     1      -5.595  -1.358   3.226  0.00  0.00    -0.043 A 
ATOM     20  C   UNL     1      -6.756  -1.673   2.545  0.00  0.00    +0.005 A 
ATOM     21  C   UNL     1      -7.453  -2.823   2.862  0.00  0.00    +0.020 A 
ATOM     22  C   UNL     1      -6.996  -3.654   3.870  0.00  0.00    +0.041 A 
ATOM     23  C   UNL     1      -5.837  -3.335   4.555  0.00  0.00    +0.020 A 
ATOM     24  C   UNL     1      -5.137  -2.188   4.233  0.00  0.00    +0.005 A 
ATOM     25 CL   UNL     1      -7.875  -5.095   4.274  0.00  0.00    -0.084 Cl
ENDBRANCH  13  19
BRANCH   8  26
ATOM     26  C   UNL     1      -2.486   4.000   2.563  0.00  0.00    +0.020 A 
ATOM     27  C   UNL     1      -2.156   3.052   3.513  0.00  0.00    +0.029 A 
ATOM     28  C   UNL     1      -1.417   3.414   4.625  0.00  0.00    +0.042 A 
ATOM     29  C   UNL     1      -1.007   4.726   4.789  0.00  0.00    +0.023 A 
ATOM     30  C   UNL     1      -1.336   5.676   3.842  0.00  0.00    +0.047 A 
ATOM     31  C   UNL     1      -2.071   5.314   2.723  0.00  0.00    +0.122 A 
ATOM     32 CL   UNL     1      -1.003   2.221   5.816  0.00  0.00    -0.084 Cl
BRANCH  31  33
ATOM     33  O   UNL     1      -2.391   6.246   1.787  0.00  0.00    -0.506 OA
ATOM     34  H   UNL     1      -2.061   7.288   1.914  0.00  0.00    +0.292 HD
ENDBRANCH  31  33
ENDBRANCH   8  26
TORSDOF 3
