REMARK  Name = ZINC28467038
REMARK  6 active torsions:
REMARK  status: ('A' for Active; 'I' for Inactive)
REMARK    1  A    between atoms: C_1  and  C_2
REMARK    2  A    between atoms: N_4  and  C_5
REMARK    3  A    between atoms: C_8  and  C_11
REMARK    4  A    between atoms: C_13  and  C_25
REMARK    5  A    between atoms: C_15  and  C_20
REMARK    6  A    between atoms: C_15  and  O_24
REMARK                            x       y       z     vdW  Elec       q    Type
REMARK                         _______ _______ _______ _____ _____    ______ ____
ROOT
ATOM      1  C   UNL     1       2.358  -2.500   1.098  0.00  0.00    +0.117 C 
ATOM      2  C   UNL     1       1.992  -2.096  -0.334  0.00  0.00    +0.110 C 
ATOM      3  C   UNL     1       3.171  -2.431  -1.252  0.00  0.00    +0.241 C 
ATOM      4  N   UNL     1       4.377  -1.774  -0.745  0.00  0.00    -0.264 N 
ATOM      5  C   UNL     1       4.535  -1.522   0.563  0.00  0.00    +0.302 C 
ATOM      6  O   UNL     1       5.561  -0.983   0.933  0.00  0.00    -0.253 OA
ATOM      7  N   UNL     1       3.608  -1.839   1.478  0.00  0.00    -0.292 N 
ATOM      8  H   UNL     1       5.175  -1.476  -1.440  0.00  0.00    +0.153 HD
ATOM      9  H   UNL     1       3.802  -1.594   2.533  0.00  0.00    +0.151 HD
ENDROOT
BRANCH   1  13
ATOM     10  C   UNL     1       2.858  -6.739   1.304  0.00  0.00    +0.033 A 
ATOM     11  C   UNL     1       3.967  -5.913   1.173  0.00  0.00    +0.023 A 
ATOM     12  C   UNL     1       3.802  -4.544   1.107  0.00  0.00    +0.007 A 
ATOM     13  C   UNL     1       2.534  -3.994   1.170  0.00  0.00    -0.026 A 
ATOM     14  C   UNL     1       1.429  -4.814   1.305  0.00  0.00    +0.007 A 
ATOM     15  C   UNL     1       1.586  -6.185   1.367  0.00  0.00    +0.023 A 
BRANCH  10  19
ATOM     16  C   UNL     1       4.375 -10.134   1.883  0.00  0.00    +0.109 C 
ATOM     17  C   UNL     1       4.127  -8.648   1.941  0.00  0.00    +0.214 C 
ATOM     18  O   UNL     1       4.921  -7.922   2.499  0.00  0.00    -0.276 OA
ATOM     19  N   UNL     1       3.022  -8.127   1.371  0.00  0.00    -0.286 N 
ATOM     20  H   UNL     1       2.249  -8.793   0.960  0.00  0.00    +0.155 HD
ENDBRANCH  10  19
ENDBRANCH   1  13
BRANCH   2  21
ATOM     21  C   UNL     1       1.714  -0.615  -0.387  0.00  0.00    -0.000 A 
ATOM     22  C   UNL     1       0.578   0.027  -0.752  0.00  0.00    +0.012 A 
ATOM     23  C   UNL     1       0.550   1.409  -0.724  0.00  0.00    +0.008 A 
ATOM     24  C   UNL     1       1.661   2.080  -0.332  0.00  0.00    +0.045 A 
ATOM     25  S   UNL     1       2.796   0.747   0.015  0.00  0.00    -0.101 S 
ENDBRANCH   2  21
BRANCH   3  26
ATOM     26  C   UNL     1       2.875  -1.932  -2.668  0.00  0.00    +0.436 C 
ATOM     27  F   UNL     1       2.683  -0.546  -2.644  0.00  0.00    -0.166 F 
ATOM     28  F   UNL     1       3.953  -2.239  -3.506  0.00  0.00    -0.166 F 
ATOM     29  F   UNL     1       1.718  -2.554  -3.150  0.00  0.00    -0.166 F 
ENDBRANCH   3  26
BRANCH   3  30
ATOM     30  O   UNL     1       3.372  -3.846  -1.276  0.00  0.00    -0.364 OA
ATOM     31  H   UNL     1       4.180  -4.277  -1.885  0.00  0.00    +0.212 HD
ENDBRANCH   3  30
TORSDOF 5
