REMARK  Name = ZINC02731790
REMARK  9 active torsions:
REMARK  status: ('A' for Active; 'I' for Inactive)
REMARK    1  A    between atoms: C_1  and  C_2
REMARK    2  A    between atoms: C_2  and  C_3
REMARK    3  A    between atoms: C_3  and  O_4
REMARK    4  A    between atoms: O_4  and  C_5
REMARK    5  A    between atoms: C_5  and  C_7
REMARK    6  A    between atoms: C_8  and  C_34
REMARK    7  A    between atoms: C_12  and  C_14
REMARK    8  A    between atoms: C_18  and  O_20
REMARK    9  A    between atoms: C_24  and  C_27
REMARK                            x       y       z     vdW  Elec       q    Type
REMARK                         _______ _______ _______ _____ _____    ______ ____
ROOT
ATOM      1  C   UNL     1      -2.681  -4.012  -0.139  0.00  0.00    +0.065 C 
ATOM      2  C   UNL     1      -3.854  -4.619   0.111  0.00  0.00    +0.016 C 
ATOM      3  N   UNL     1      -3.913  -5.976   0.262  0.00  0.00    -0.321 N 
ATOM      4  C   UNL     1      -2.786  -6.695   0.559  0.00  0.00    +0.016 C 
ATOM      5  C   UNL     1      -1.562  -6.176   0.325  0.00  0.00    +0.024 C 
ATOM      6  C   UNL     1      -1.410  -4.799  -0.274  0.00  0.00    +0.092 C 
ATOM      7  C   UNL     1      -0.397  -6.905   0.622  0.00  0.00    +0.162 C 
ATOM      8  O   UNL     1       0.690  -6.403   0.414  0.00  0.00    -0.292 OA
ATOM      9  C   UNL     1      -0.471  -8.295   1.193  0.00  0.00    +0.088 C 
ATOM     10  C   UNL     1      -1.773  -8.956   0.727  0.00  0.00    +0.032 C 
ATOM     11  C   UNL     1      -2.946  -8.071   1.155  0.00  0.00    +0.059 C 
ATOM     12  C   UNL     1      -5.112  -3.797   0.225  0.00  0.00    +0.061 C 
ATOM     13  H   UNL     1      -4.762  -6.434   0.157  0.00  0.00    +0.152 HD
ENDROOT
BRANCH  10  14
ATOM     14  C   UNL     1      -1.904 -10.318   1.360  0.00  0.00    -0.043 A 
ATOM     15  C   UNL     1      -1.949 -10.439   2.736  0.00  0.00    +0.005 A 
ATOM     16  C   UNL     1      -2.069 -11.688   3.316  0.00  0.00    +0.020 A 
ATOM     17  C   UNL     1      -2.143 -12.816   2.519  0.00  0.00    +0.041 A 
ATOM     18  C   UNL     1      -2.098 -12.694   1.142  0.00  0.00    +0.020 A 
ATOM     19  C   UNL     1      -1.984 -11.444   0.563  0.00  0.00    +0.005 A 
ATOM     20 CL   UNL     1      -2.293 -14.385   3.248  0.00  0.00    -0.084 Cl
ENDBRANCH  10  14
BRANCH   6  21
ATOM     21  C   UNL     1      -1.059  -4.925  -1.734  0.00  0.00    -0.032 A 
ATOM     22  C   UNL     1      -1.939  -5.540  -2.606  0.00  0.00    +0.005 A 
ATOM     23  C   UNL     1      -1.619  -5.657  -3.946  0.00  0.00    +0.004 A 
ATOM     24  C   UNL     1      -0.420  -5.160  -4.417  0.00  0.00    +0.045 A 
ATOM     25  C   UNL     1       0.464  -4.542  -3.545  0.00  0.00    +0.117 A 
ATOM     26  C   UNL     1       0.139  -4.420  -2.202  0.00  0.00    +0.050 A 
BRANCH  25  27
ATOM     27  O   UNL     1       1.645  -4.051  -4.006  0.00  0.00    -0.507 OA
ATOM     28  H   UNL     1       1.600  -3.131  -4.300  0.00  0.00    +0.292 HD
ENDBRANCH  25  27
ENDBRANCH   6  21
BRANCH   1  29
ATOM     29  C   UNL     1      -2.644  -2.606  -0.283  0.00  0.00    +0.338 C 
ATOM     30  O   UNL     1      -2.185  -1.915   0.608  0.00  0.00    -0.245 OA
BRANCH  29  31
ATOM     31  O   UNL     1      -3.118  -2.030  -1.408  0.00  0.00    -0.461 OA
BRANCH  31  32
ATOM     32  C   UNL     1      -3.049  -0.604  -1.485  0.00  0.00    +0.232 C 
BRANCH  32  34
ATOM     33  C   UNL     1      -3.555   1.388  -2.905  0.00  0.00    +0.007 C 
ATOM     34  C   UNL     1      -3.628  -0.138  -2.822  0.00  0.00    +0.038 C 
ENDBRANCH  32  34
ENDBRANCH  31  32
ENDBRANCH  29  31
ENDBRANCH   1  29
TORSDOF 7
