REMARK  Name = ZINC23601760
REMARK  7 active torsions:
REMARK  status: ('A' for Active; 'I' for Inactive)
REMARK    1  A    between atoms: C_5  and  O_7
REMARK    2  A    between atoms: O_7  and  C_8
REMARK    3  A    between atoms: C_8  and  C_9
REMARK    4  A    between atoms: C_12  and  S_15
REMARK    5  A    between atoms: N_13  and  N_14
REMARK    6  A    between atoms: S_15  and  C_16
REMARK    7  A    between atoms: C_16  and  C_17
REMARK                            x       y       z     vdW  Elec       q    Type
REMARK                         _______ _______ _______ _____ _____    ______ ____
ROOT
ATOM      1  C   UNL     1       1.295   1.749  -0.001  0.00  0.00    +0.189 A 
ATOM      2  N   UNL     1       2.020   0.667  -0.014  0.00  0.00    -0.128 NA
ATOM      3  N   UNL     1       1.262  -0.371  -0.012  0.00  0.00    -0.121 NA
ATOM      4  C   UNL     1       0.002  -0.004   0.002  0.00  0.00    +0.209 A 
ATOM      5  N   UNL     1      -0.016   1.361   0.009  0.00  0.00    -0.225 N 
ENDROOT
BRANCH   5   6
ATOM      6  N   UNL     1      -1.116   2.171   0.019  0.00  0.00    -0.295 N 
ATOM      7  H   UNL     1      -2.124   1.730   0.027  0.00  0.00    +0.163 HD
ATOM      8  H   UNL     1      -0.995   3.264   0.019  0.00  0.00    +0.163 HD
ENDBRANCH   5   6
BRANCH   1   9
ATOM      9  C   UNL     1       1.806   3.167   0.001  0.00  0.00    +0.306 C 
BRANCH   9  10
ATOM     10  O   UNL     1       1.981   3.608   1.349  0.00  0.00    -0.481 OA
BRANCH  10  15
ATOM     11  C   UNL     1       3.185   6.963   0.616  0.00  0.00    +0.004 A 
ATOM     12  C   UNL     1       3.376   7.454   1.895  0.00  0.00    +0.003 A 
ATOM     13  C   UNL     1       3.101   6.659   2.992  0.00  0.00    +0.042 A 
ATOM     14  C   UNL     1       2.633   5.370   2.812  0.00  0.00    +0.165 A 
ATOM     15  C   UNL     1       2.440   4.875   1.529  0.00  0.00    +0.156 A 
ATOM     16  C   UNL     1       2.722   5.674   0.431  0.00  0.00    +0.048 A 
ATOM     17  F   UNL     1       2.364   4.593   3.884  0.00  0.00    -0.202 F 
ENDBRANCH  10  15
ENDBRANCH   9  10
ENDBRANCH   1   9
BRANCH   4  18
ATOM     18  S   UNL     1      -1.400  -1.071   0.009  0.00  0.00    -0.080 S 
BRANCH  18  19
ATOM     19  C   UNL     1      -0.571  -2.680  -0.007  0.00  0.00    +0.117 C 
BRANCH  19  20
ATOM     20  C   UNL     1      -1.604  -3.777  -0.004  0.00  0.00    +0.016 A 
ATOM     21  C   UNL     1      -2.090  -4.275  -1.201  0.00  0.00    +0.129 A 
ATOM     22  C   UNL     1      -3.039  -5.283  -1.196  0.00  0.00    +0.039 A 
ATOM     23  C   UNL     1      -3.501  -5.792   0.003  0.00  0.00    +0.004 A 
ATOM     24  C   UNL     1      -3.015  -5.295   1.198  0.00  0.00    +0.020 A 
ATOM     25  C   UNL     1      -2.063  -4.291   1.195  0.00  0.00    +0.048 A 
ATOM     26 CL   UNL     1      -1.449  -3.673   2.697  0.00  0.00    -0.083 Cl
ATOM     27  F   UNL     1      -1.638  -3.777  -2.373  0.00  0.00    -0.205 F 
ENDBRANCH  19  20
ENDBRANCH  18  19
ENDBRANCH   4  18
TORSDOF 7
