REMARK  Name = ZINC37284241
REMARK  5 active torsions:
REMARK  status: ('A' for Active; 'I' for Inactive)
REMARK    1  A    between atoms: C_1  and  C_2
REMARK    2  A    between atoms: C_3  and  C_7
REMARK    3  A    between atoms: C_7  and  C_9
REMARK    4  A    between atoms: C_7  and  N_10
REMARK    5  A    between atoms: N_10  and  C_11
REMARK                            x       y       z     vdW  Elec       q    Type
REMARK                         _______ _______ _______ _____ _____    ______ ____
ROOT
ATOM      1  C   UNL     1      -1.561  -0.439  -4.504  0.00  0.00    +0.046 A 
ATOM      2  C   UNL     1      -2.489  -1.167  -5.245  0.00  0.00    +0.028 A 
ATOM      3  C   UNL     1      -3.041  -0.580  -6.370  0.00  0.00    +0.050 A 
ATOM      4  C   UNL     1      -2.654   0.707  -6.721  0.00  0.00    +0.156 A 
ATOM      5  N   UNL     1      -1.770   1.371  -5.994  0.00  0.00    -0.234 NA
ATOM      6  C   UNL     1      -1.227   0.845  -4.913  0.00  0.00    +0.136 A 
ATOM      7  N   UNL     1      -3.205   1.310  -7.857  0.00  0.00    -0.202 N 
ATOM      8  C   UNL     1      -2.933   2.542  -8.332  0.00  0.00    +0.226 A 
ATOM      9  N   UNL     1      -3.652   2.729  -9.409  0.00  0.00    -0.222 NA
ATOM     10  C   UNL     1      -4.392   1.647  -9.652  0.00  0.00    +0.245 A 
ATOM     11  N   UNL     1      -4.149   0.749  -8.734  0.00  0.00    -0.152 NA
ENDROOT
BRANCH   1  12
ATOM     12  N   UNL     1      -0.978  -0.991  -3.359  0.00  0.00    -0.336 N 
ATOM     13  H   UNL     1      -1.216  -1.889  -3.079  0.00  0.00    +0.147 HD
BRANCH  12  14
ATOM     14  C   UNL     1      -0.008  -0.215  -2.583  0.00  0.00    +0.106 C 
ATOM     15  C   UNL     1       1.384  -0.381  -3.194  0.00  0.00    +0.033 C 
BRANCH  14  18
ATOM     16  C   UNL     1      -0.018   1.503   0.010  0.00  0.00    +0.066 C 
ATOM     17  C   UNL     1       0.002  -0.004   0.002  0.00  0.00    +0.050 A 
ATOM     18  C   UNL     1       0.006  -0.708  -1.159  0.00  0.00    +0.032 A 
ATOM     19  S   UNL     1       0.032  -2.379  -0.531  0.00  0.00    -0.078 S 
ATOM     20  C   UNL     1       0.036  -2.009   1.111  0.00  0.00    +0.156 A 
ATOM     21  N   UNL     1       0.023  -0.699   1.122  0.00  0.00    -0.252 NA
ENDBRANCH  14  18
ENDBRANCH  12  14
ENDBRANCH   1  12
TORSDOF 3
