REMARK  Name = ZINC12420961
REMARK  3 active torsions:
REMARK  status: ('A' for Active; 'I' for Inactive)
REMARK    1  A    between atoms: C_1  and  C_2
REMARK    2  A    between atoms: C_5  and  C_21
REMARK    3  A    between atoms: N_13  and  C_16
REMARK                            x       y       z     vdW  Elec       q    Type
REMARK                         _______ _______ _______ _____ _____    ______ ____
ROOT
ATOM      1  C   UNL     1      -0.019   1.526   0.010  0.00  0.00    +0.047 C 
ATOM      2  C   UNL     1       0.002  -0.004   0.002  0.00  0.00    +0.098 C 
ATOM      3  C   UNL     1      -1.357  -0.752   0.143  0.00  0.00    +0.007 C 
ATOM      4  C   UNL     1      -1.022  -1.996   0.451  0.00  0.00    +0.007 C 
ATOM      5  C   UNL     1       0.479  -2.079   0.641  0.00  0.00    +0.098 C 
ATOM      6  O   UNL     1       0.701  -0.686   1.122  0.00  0.00    -0.358 OA
ATOM      7  C   UNL     1       1.269  -1.967  -0.656  0.00  0.00    +0.126 C 
ATOM      8  C   UNL     1       0.548  -0.670  -1.208  0.00  0.00    +0.126 C 
ATOM      9  C   UNL     1       1.020  -0.582  -2.551  0.00  0.00    +0.229 C 
ATOM     10  O   UNL     1       1.255   0.416  -3.198  0.00  0.00    -0.275 OA
ATOM     11  N   UNL     1       1.148  -1.900  -2.942  0.00  0.00    -0.238 N 
ATOM     12  C   UNL     1       1.002  -2.817  -1.858  0.00  0.00    +0.229 C 
ATOM     13  O   UNL     1       0.751  -4.003  -1.880  0.00  0.00    -0.275 OA
ATOM     14  C   UNL     1       0.940  -3.190   1.586  0.00  0.00    +0.047 C 
ENDROOT
BRANCH  11  15
ATOM     15  C   UNL     1       1.394  -2.319  -4.324  0.00  0.00    +0.084 C 
ATOM     16  C   UNL     1       0.282  -3.280  -4.792  0.00  0.00    +0.023 C 
ATOM     17  C   UNL     1       1.020  -4.314  -5.677  0.00  0.00    +0.002 C 
ATOM     18  C   UNL     1       2.361  -4.511  -4.927  0.00  0.00    +0.002 C 
ATOM     19  C   UNL     1       2.716  -3.102  -4.410  0.00  0.00    +0.023 C 
ENDBRANCH  11  15
TORSDOF 1
