REMARK  Name = ZINC09019034
REMARK  7 active torsions:
REMARK  status: ('A' for Active; 'I' for Inactive)
REMARK    1  A    between atoms: C_1  and  C_2
REMARK    2  A    between atoms: C_2  and  C_3
REMARK    3  A    between atoms: C_3  and  N_4
REMARK    4  A    between atoms: N_12  and  N_13
REMARK    5  A    between atoms: C_14  and  C_16
REMARK    6  A    between atoms: C_16  and  O_17
REMARK    7  A    between atoms: O_17  and  C_18
REMARK                            x       y       z     vdW  Elec       q    Type
REMARK                         _______ _______ _______ _____ _____    ______ ____
ROOT
ATOM      1  N   UNL     1       0.701  -1.968  -1.182  0.00  0.00    -0.266 N 
ATOM      2  C   UNL     1       1.829  -2.723  -0.879  0.00  0.00    +0.046 A 
ATOM      3  C   UNL     1       3.080  -2.359  -0.392  0.00  0.00    +0.025 A 
ATOM      4  C   UNL     1       4.046  -3.321  -0.173  0.00  0.00    +0.017 A 
ATOM      5  C   UNL     1       3.783  -4.656  -0.433  0.00  0.00    +0.019 A 
ATOM      6  C   UNL     1       2.546  -5.036  -0.917  0.00  0.00    +0.027 A 
ATOM      7  C   UNL     1       1.568  -4.074  -1.141  0.00  0.00    +0.029 A 
ATOM      8  C   UNL     1       0.175  -4.141  -1.641  0.00  0.00    +0.153 C 
ATOM      9  N   UNL     1      -0.490  -5.208  -2.009  0.00  0.00    -0.174 NA
ATOM     10  C   UNL     1      -0.303  -2.743  -1.628  0.00  0.00    +0.271 C 
ATOM     11  O   UNL     1      -1.408  -2.361  -1.963  0.00  0.00    -0.268 OA
ATOM     12 BR   UNL     1       5.119  -5.959  -0.126  0.00  0.00    -0.050 Br
ENDROOT
BRANCH   9  13
ATOM     13  N   UNL     1       0.070  -6.480  -1.828  0.00  0.00    -0.203 N 
ATOM     14  C   UNL     1      -0.557  -7.568  -2.317  0.00  0.00    +0.270 C 
ATOM     15  O   UNL     1      -1.606  -7.447  -2.914  0.00  0.00    -0.270 OA
ATOM     16  H   UNL     1       0.908  -6.577  -1.351  0.00  0.00    +0.177 HD
BRANCH  14  17
ATOM     17  C   UNL     1       0.045  -8.936  -2.123  0.00  0.00    +0.326 C 
BRANCH  17  18
ATOM     18  O   UNL     1      -0.799  -9.918  -2.727  0.00  0.00    -0.483 OA
BRANCH  18  19
ATOM     19  C   UNL     1      -0.397 -11.214  -2.640  0.00  0.00    +0.123 A 
ATOM     20  C   UNL     1       0.782 -11.533  -1.983  0.00  0.00    +0.046 A 
ATOM     21  C   UNL     1       1.189 -12.850  -1.896  0.00  0.00    +0.005 A 
ATOM     22  C   UNL     1       0.422 -13.851  -2.463  0.00  0.00    +0.020 A 
ATOM     23  C   UNL     1      -0.755 -13.536  -3.120  0.00  0.00    +0.044 A 
ATOM     24  C   UNL     1      -1.169 -12.219  -3.204  0.00  0.00    +0.065 A 
ATOM     25 CL   UNL     1      -1.716 -14.794  -3.831  0.00  0.00    -0.083 Cl
ENDBRANCH  18  19
ENDBRANCH  17  18
ENDBRANCH  14  17
ENDBRANCH   9  13
BRANCH   1  26
ATOM     26  C   UNL     1       0.615  -0.514  -1.030  0.00  0.00    +0.114 C 
BRANCH  26  28
ATOM     27  C   UNL     1       0.026   1.342   0.535  0.00  0.00    +0.005 C 
ATOM     28  C   UNL     1       0.115  -0.177   0.376  0.00  0.00    +0.016 C 
ENDBRANCH  26  28
ENDBRANCH   1  26
TORSDOF 6
