REMARK  Name = ZINC20596999
REMARK  7 active torsions:
REMARK  status: ('A' for Active; 'I' for Inactive)
REMARK    1  A    between atoms: C_3  and  O_20
REMARK    2  A    between atoms: C_6  and  C_7
REMARK    3  A    between atoms: C_7  and  C_9
REMARK    4  A    between atoms: C_7  and  N_16
REMARK    5  A    between atoms: N_16  and  C_17
REMARK    6  A    between atoms: C_17  and  C_18
REMARK    7  A    between atoms: C_18  and  O_19
REMARK                            x       y       z     vdW  Elec       q    Type
REMARK                         _______ _______ _______ _____ _____    ______ ____
ROOT
ATOM      1  C   UNL     1       0.005  -0.005  -0.009  0.00  0.00    -0.010 C 
ENDROOT
BRANCH   1   2
ATOM      2  C   UNL     1       0.789  -0.349   1.232  0.00  0.00    -0.057 A 
ATOM      3  C   UNL     1       1.805   0.484   1.660  0.00  0.00    +0.004 A 
ATOM      4  C   UNL     1       2.521   0.172   2.800  0.00  0.00    +0.020 A 
ATOM      5  C   UNL     1       2.227  -0.981   3.507  0.00  0.00    +0.041 A 
ATOM      6  C   UNL     1       1.213  -1.817   3.075  0.00  0.00    +0.020 A 
ATOM      7  C   UNL     1       0.495  -1.501   1.937  0.00  0.00    +0.004 A 
ATOM      8 CL   UNL     1       3.130  -1.377   4.936  0.00  0.00    -0.084 Cl
ENDBRANCH   1   2
BRANCH   1  14
ATOM      9  C   UNL     1       1.829   0.500  -1.646  0.00  0.00    +0.006 A 
ATOM     10  C   UNL     1       2.580   0.185  -2.761  0.00  0.00    +0.045 A 
ATOM     11  C   UNL     1       2.314  -0.977  -3.470  0.00  0.00    +0.117 A 
ATOM     12  C   UNL     1       1.297  -1.824  -3.053  0.00  0.00    +0.045 A 
ATOM     13  C   UNL     1       0.552  -1.507  -1.934  0.00  0.00    +0.006 A 
ATOM     14  C   UNL     1       0.819  -0.348  -1.229  0.00  0.00    -0.057 A 
BRANCH  11  15
ATOM     15  O   UNL     1       3.048  -1.286  -4.571  0.00  0.00    -0.507 OA
ATOM     16  H   UNL     1       2.836  -2.208  -5.133  0.00  0.00    +0.292 HD
ENDBRANCH  11  15
ENDBRANCH   1  14
BRANCH   1  17
ATOM     17  N   UNL     1      -0.301   1.432  -0.012  0.00  0.00    +0.388 N 
ATOM     18  H   UNL     1      -0.476   1.772   1.020  0.00  0.00    -0.084 HD
ATOM     19  H   UNL     1       0.547   1.986  -0.441  0.00  0.00    -0.084 HD
BRANCH  17  20
ATOM     20  C   UNL     1      -1.500   1.714  -0.811  0.00  0.00    -0.053 C 
BRANCH  20  21
ATOM     21  C   UNL     1      -1.709   3.227  -0.902  0.00  0.00    +0.137 C 
BRANCH  21  22
ATOM     22  O   UNL     1      -0.626   3.814  -1.627  0.00  0.00    -0.397 OA
ATOM     23  H   UNL     1      -0.602   4.901  -1.795  0.00  0.00    +0.209 HD
ENDBRANCH  21  22
ENDBRANCH  20  21
ENDBRANCH  17  20
ENDBRANCH   1  17
TORSDOF 7
