REMARK  Name = ZINC40601435
REMARK  8 active torsions:
REMARK  status: ('A' for Active; 'I' for Inactive)
REMARK    1  A    between atoms: C_1  and  C_2
REMARK    2  A    between atoms: C_2  and  N_3
REMARK    3  A    between atoms: C_7  and  C_9
REMARK    4  A    between atoms: C_9  and  C_11
REMARK    5  A    between atoms: C_9  and  N_12
REMARK    6  A    between atoms: C_16  and  C_19
REMARK    7  A    between atoms: C_19  and  N_20
REMARK    8  A    between atoms: N_20  and  C_21
REMARK                            x       y       z     vdW  Elec       q    Type
REMARK                         _______ _______ _______ _____ _____    ______ ____
ROOT
ATOM      1  C   UNL     1      -4.507  -4.156   0.023  0.00  0.00    +0.017 C 
ATOM      2  C   UNL     1      -5.224  -3.546  -1.183  0.00  0.00    -0.004 C 
ENDROOT
BRANCH   1   7
ATOM      3  N   UNL     1      -1.285  -0.867   1.405  0.00  0.00    -0.299 N 
ATOM      4  C   UNL     1      -1.556  -2.023   0.768  0.00  0.00    +0.306 C 
ATOM      5  O   UNL     1      -0.659  -2.650   0.239  0.00  0.00    -0.252 OA
ATOM      6  N   UNL     1      -2.821  -2.484   0.717  0.00  0.00    -0.242 N 
ATOM      7  C   UNL     1      -3.092  -3.640   0.080  0.00  0.00    +0.207 C 
ATOM      8  O   UNL     1      -2.197  -4.265  -0.448  0.00  0.00    -0.277 OA
ATOM      9  H   UNL     1      -2.001  -0.366   1.827  0.00  0.00    +0.150 HD
ATOM     10  H   UNL     1      -3.537  -1.984   1.139  0.00  0.00    +0.159 HD
BRANCH   3  12
ATOM     11  C   UNL     1       0.121   0.953   2.236  0.00  0.00    +0.024 C 
ATOM     12  C   UNL     1       0.090  -0.365   1.461  0.00  0.00    +0.102 C 
ENDBRANCH   3  12
ENDBRANCH   1   7
BRANCH   1  13
ATOM     13  N   UNL     1      -4.490  -5.619  -0.106  0.00  0.00    +0.387 N 
ATOM     14  C   UNL     1      -5.867  -6.114  -0.225  0.00  0.00    -0.078 C 
ATOM     15  C   UNL     1      -5.851  -7.629  -0.440  0.00  0.00    -0.018 C 
ATOM     16  C   UNL     1      -5.166  -8.302   0.753  0.00  0.00    -0.002 C 
ATOM     17  C   UNL     1      -3.757  -7.724   0.912  0.00  0.00    -0.045 C 
ATOM     18  C   UNL     1      -3.850  -6.205   1.078  0.00  0.00    -0.076 C 
ATOM     19  H   UNL     1      -3.970  -5.877  -0.931  0.00  0.00    -0.081 HD
BRANCH  17  20
ATOM     20  C   UNL     1      -3.091  -8.334   2.148  0.00  0.00    -0.081 C 
BRANCH  20  21
ATOM     21  N   UNL     1      -2.898  -9.775   1.939  0.00  0.00    +0.377 N 
ATOM     22  C   UNL     1      -2.260 -10.360   3.125  0.00  0.00    -0.100 C 
ATOM     23  H   UNL     1      -3.793 -10.215   1.787  0.00  0.00    -0.086 HD
ATOM     24  H   UNL     1      -2.310  -9.922   1.133  0.00  0.00    -0.086 HD
ENDBRANCH  20  21
ENDBRANCH  17  20
ENDBRANCH   1  13
TORSDOF 5
