REMARK  Name = ZINC32611954
REMARK  9 active torsions:
REMARK  status: ('A' for Active; 'I' for Inactive)
REMARK    1  A    between atoms: C_1  and  O_2
REMARK    2  A    between atoms: O_2  and  C_3
REMARK    3  A    between atoms: C_6  and  N_10
REMARK    4  A    between atoms: N_10  and  S_11
REMARK    5  A    between atoms: S_11  and  C_14
REMARK    6  A    between atoms: C_21  and  O_28
REMARK    7  A    between atoms: C_22  and  O_26
REMARK    8  A    between atoms: O_26  and  C_27
REMARK    9  A    between atoms: O_28  and  C_29
REMARK                            x       y       z     vdW  Elec       q    Type
REMARK                         _______ _______ _______ _____ _____    ______ ____
ROOT
ATOM      1  C   UNL     1      -0.347   4.620   0.535  0.00  0.00    +0.202 A 
ATOM      2  C   UNL     1      -0.596   5.595  -0.359  0.00  0.00    +0.132 A 
ATOM      3  N   UNL     1       0.503   6.355  -0.466  0.00  0.00    -0.347 N 
ATOM      4  C   UNL     1       1.427   5.889   0.330  0.00  0.00    +0.097 A 
ATOM      5  N   UNL     1       0.941   4.806   0.982  0.00  0.00    -0.281 N 
ATOM      6  C   UNL     1       1.891   4.263   1.861  0.00  0.00    +0.057 A 
ATOM      7  C   UNL     1       1.811   3.162   2.711  0.00  0.00    +0.076 A 
ATOM      8  C   UNL     1       2.893   2.811   3.496  0.00  0.00    +0.163 A 
ATOM      9  C   UNL     1       4.069   3.555   3.442  0.00  0.00    +0.162 A 
ATOM     10  C   UNL     1       4.149   4.650   2.596  0.00  0.00    +0.055 A 
ATOM     11  C   UNL     1       3.067   4.997   1.815  0.00  0.00    -0.013 A 
ATOM     12  C   UNL     1       2.846   6.103   0.808  0.00  0.00    +0.110 C 
ATOM     13  H   UNL     1       0.512   7.216  -1.150  0.00  0.00    +0.167 HD
ENDROOT
BRANCH   1  14
ATOM     14  S   UNL     1      -1.460   3.351   1.041  0.00  0.00    +0.109 S 
ATOM     15  O   UNL     1      -2.772   3.841   0.798  0.00  0.00    -0.147 OA
ATOM     16  O   UNL     1      -1.032   2.925   2.328  0.00  0.00    -0.147 OA
BRANCH  14  17
ATOM     17  N   UNL     1      -1.238   2.068   0.019  0.00  0.00    -0.096 NA
BRANCH  17  21
ATOM     18  C   UNL     1       2.401   0.033  -0.021  0.00  0.00    +0.138 A 
ATOM     19  C   UNL     1       2.382   1.419  -0.013  0.00  0.00    +0.049 A 
ATOM     20  C   UNL     1       1.177   2.094   0.002  0.00  0.00    +0.030 A 
ATOM     21  C   UNL     1      -0.017   1.384   0.010  0.00  0.00    +0.076 A 
ATOM     22  C   UNL     1       0.002  -0.004   0.002  0.00  0.00    +0.050 A 
ATOM     23  C   UNL     1       1.209  -0.678  -0.013  0.00  0.00    +0.084 A 
ATOM     24 CL   UNL     1       1.233  -2.414  -0.022  0.00  0.00    -0.080 Cl
BRANCH  18  26
ATOM     25  C   UNL     1       4.775   0.164  -0.042  0.00  0.00    +0.277 C 
ATOM     26  O   UNL     1       3.588  -0.631  -0.035  0.00  0.00    -0.494 OA
ENDBRANCH  18  26
ENDBRANCH  17  21
ENDBRANCH  14  17
ENDBRANCH   1  14
BRANCH   9  27
ATOM     27  O   UNL     1       5.133   3.208   4.214  0.00  0.00    -0.491 OA
ATOM     28  C   UNL     1       6.306   4.019   4.105  0.00  0.00    +0.277 C 
ENDBRANCH   9  27
BRANCH   8  29
ATOM     29  O   UNL     1       2.810   1.735   4.324  0.00  0.00    -0.491 OA
ATOM     30  C   UNL     1       1.575   1.016   4.330  0.00  0.00    +0.277 C 
ENDBRANCH   8  29
TORSDOF 6
