REMARK  Name = ZINC40801047
REMARK  6 active torsions:
REMARK  status: ('A' for Active; 'I' for Inactive)
REMARK    1  A    between atoms: C_1  and  N_2
REMARK    2  A    between atoms: C_10  and  C_11
REMARK    3  A    between atoms: N_13  and  C_14
REMARK    4  A    between atoms: C_15  and  C_23
REMARK    5  A    between atoms: N_25  and  C_26
REMARK    6  A    between atoms: C_26  and  C_27
REMARK                            x       y       z     vdW  Elec       q    Type
REMARK                         _______ _______ _______ _____ _____    ______ ____
ROOT
ATOM      1  C   UNL     1      -0.395   1.405   4.076  0.00  0.00    +0.085 A 
ATOM      2  C   UNL     1      -0.593   2.701   4.529  0.00  0.00    +0.069 A 
ATOM      3  C   UNL     1      -0.548   2.917   5.964  0.00  0.00    -0.023 A 
ATOM      4  C   UNL     1      -0.314   1.799   6.684  0.00  0.00    -0.004 A 
ATOM      5  S   UNL     1      -0.168   0.512   5.480  0.00  0.00    -0.077 S 
ATOM      6  C   UNL     1      -0.209   1.694   8.174  0.00  0.00    +0.043 C 
ATOM      7  C   UNL     1      -0.032   3.109   8.746  0.00  0.00    +0.005 C 
ATOM      8  C   UNL     1      -1.077   4.032   8.115  0.00  0.00    +0.005 C 
ATOM      9  C   UNL     1      -0.743   4.266   6.640  0.00  0.00    +0.037 C 
ENDROOT
BRANCH   1  12
ATOM     10  C   UNL     1      -0.187  -0.355   2.508  0.00  0.00    +0.265 C 
ATOM     11  O   UNL     1      -0.099  -1.151   3.425  0.00  0.00    -0.268 OA
ATOM     12  N   UNL     1      -0.392   0.952   2.768  0.00  0.00    -0.274 N 
ATOM     13  H   UNL     1      -0.536   1.574   2.038  0.00  0.00    +0.156 HD
BRANCH  10  23
ATOM     14  C   UNL     1       0.072  -3.299   1.614  0.00  0.00    +0.149 C 
ATOM     15  N   UNL     1       0.046  -2.138   0.721  0.00  0.00    -0.339 N 
ATOM     16  C   UNL     1       0.126  -2.180  -0.651  0.00  0.00    +0.052 A 
ATOM     17  C   UNL     1       0.246  -3.222  -1.565  0.00  0.00    +0.064 A 
ATOM     18  C   UNL     1       0.304  -2.946  -2.915  0.00  0.00    +0.125 A 
ATOM     19  C   UNL     1       0.244  -1.634  -3.373  0.00  0.00    +0.039 A 
ATOM     20  C   UNL     1       0.127  -0.597  -2.495  0.00  0.00    +0.013 A 
ATOM     21  C   UNL     1       0.065  -0.852  -1.118  0.00  0.00    +0.001 A 
ATOM     22  C   UNL     1      -0.054  -0.019   0.020  0.00  0.00    +0.041 A 
ATOM     23  C   UNL     1      -0.070  -0.819   1.119  0.00  0.00    +0.105 A 
ATOM     24  F   UNL     1       0.421  -3.960  -3.801  0.00  0.00    -0.205 F 
ENDBRANCH  10  23
ENDBRANCH   1  12
BRANCH   2  25
ATOM     25  C   UNL     1      -0.836   3.807   3.597  0.00  0.00    +0.247 C 
ATOM     26  O   UNL     1      -1.974   4.087   3.269  0.00  0.00    -0.270 OA
ATOM     27  N   UNL     1       0.200   4.512   3.103  0.00  0.00    -0.308 N 
ATOM     28  H   UNL     1       1.107   4.289   3.364  0.00  0.00    +0.149 HD
BRANCH  27  29
ATOM     29  C   UNL     1      -0.043   5.617   2.172  0.00  0.00    +0.131 C 
BRANCH  29  30
ATOM     30  C   UNL     1       1.272   6.237   1.773  0.00  0.00    -0.016 C 
ATOM     31  C   UNL     1       1.588   6.342   0.506  0.00  0.00    +0.005 C 
ENDBRANCH  29  30
ENDBRANCH  27  29
ENDBRANCH   2  25
TORSDOF 5
