REMARK  Name = ZINC09317287
REMARK  5 active torsions:
REMARK  status: ('A' for Active; 'I' for Inactive)
REMARK    1  A    between atoms: C_1  and  C_2
REMARK    2  A    between atoms: C_5  and  C_8
REMARK    3  A    between atoms: N_13  and  C_16
REMARK    4  A    between atoms: C_16  and  C_17
REMARK    5  A    between atoms: C_17  and  C_18
REMARK                            x       y       z     vdW  Elec       q    Type
REMARK                         _______ _______ _______ _____ _____    ______ ____
ROOT
ATOM      1  C   UNL     1      -1.158   2.403   0.032  0.00  0.00    +0.142 C 
ATOM      2  C   UNL     1      -0.017   1.406   0.010  0.00  0.00    +0.058 C 
ATOM      3  C   UNL     1       1.241   1.892   0.000  0.00  0.00    +0.039 C 
ATOM      4  C   UNL     1       2.161   0.692  -0.015  0.00  0.00    +0.159 C 
ATOM      5  N   UNL     1       1.263  -0.473  -0.013  0.00  0.00    -0.292 N 
ATOM      6  C   UNL     1       0.002  -0.004   0.002  0.00  0.00    +0.247 C 
ATOM      7  O   UNL     1      -0.993  -0.706   0.007  0.00  0.00    -0.270 OA
ATOM      8  N   UNL     1       1.480   3.236   0.006  0.00  0.00    -0.271 N 
ATOM      9  C   UNL     1       0.511   4.161   0.020  0.00  0.00    +0.304 C 
ATOM     10  O   UNL     1       0.820   5.337   0.023  0.00  0.00    -0.252 OA
ATOM     11  N   UNL     1      -0.795   3.830   0.030  0.00  0.00    -0.288 N 
ATOM     12  H   UNL     1       2.402   3.538  -0.002  0.00  0.00    +0.156 HD
ATOM     13  H   UNL     1      -1.481   4.517   0.040  0.00  0.00    +0.151 HD
ENDROOT
BRANCH   1  18
ATOM     14  C   UNL     1      -4.477   1.418  -4.595  0.00  0.00    +0.044 C 
ATOM     15  C   UNL     1      -3.611   1.675  -3.388  0.00  0.00    -0.050 A 
ATOM     16  C   UNL     1      -3.990   1.190  -2.150  0.00  0.00    +0.004 A 
ATOM     17  C   UNL     1      -3.196   1.426  -1.043  0.00  0.00    +0.006 A 
ATOM     18  C   UNL     1      -2.023   2.146  -1.175  0.00  0.00    -0.023 A 
ATOM     19  C   UNL     1      -1.647   2.635  -2.412  0.00  0.00    +0.006 A 
ATOM     20  C   UNL     1      -2.439   2.394  -3.520  0.00  0.00    +0.004 A 
ENDBRANCH   1  18
BRANCH   5  21
ATOM     21  C   UNL     1       1.666  -1.881  -0.024  0.00  0.00    +0.113 C 
BRANCH  21  22
ATOM     22  C   UNL     1       1.792  -2.364  -1.470  0.00  0.00    +0.054 C 
BRANCH  22  23
ATOM     23  C   UNL     1       2.208  -3.813  -1.482  0.00  0.00    -0.046 A 
ATOM     24  C   UNL     1       3.549  -4.147  -1.503  0.00  0.00    +0.004 A 
ATOM     25  C   UNL     1       3.929  -5.476  -1.509  0.00  0.00    +0.000 A 
ATOM     26  C   UNL     1       2.969  -6.470  -1.504  0.00  0.00    +0.000 A 
ATOM     27  C   UNL     1       1.628  -6.136  -1.488  0.00  0.00    +0.000 A 
ATOM     28  C   UNL     1       1.247  -4.807  -1.478  0.00  0.00    +0.004 A 
ENDBRANCH  22  23
ENDBRANCH  21  22
ENDBRANCH   5  21
TORSDOF 4
