REMARK  Name = ZINC00909575
REMARK  9 active torsions:
REMARK  status: ('A' for Active; 'I' for Inactive)
REMARK    1  A    between atoms: C_1  and  C_2
REMARK    2  A    between atoms: C_2  and  C_3
REMARK    3  A    between atoms: C_3  and  C_4
REMARK    4  A    between atoms: C_3  and  C_5
REMARK    5  A    between atoms: C_3  and  N_6
REMARK    6  A    between atoms: C_7  and  C_11
REMARK    7  A    between atoms: C_11  and  C_13
REMARK    8  A    between atoms: C_11  and  N_57
REMARK    9  A    between atoms: C_19  and  C_25
REMARK                            x       y       z     vdW  Elec       q    Type
REMARK                         _______ _______ _______ _____ _____    ______ ____
ROOT
ATOM      1  C   UNL     1       0.241  -2.808   4.572  0.00  0.00    +0.039 C 
ENDROOT
BRANCH   1   2
ATOM      2  C   UNL     1       0.420  -2.091   3.259  0.00  0.00    +0.011 A 
ATOM      3  C   UNL     1       0.564  -2.804   2.114  0.00  0.00    +0.017 A 
ATOM      4  C   UNL     1       0.735  -2.078   0.855  0.00  0.00    -0.001 A 
ATOM      5  C   UNL     1       0.888  -2.758  -0.358  0.00  0.00    +0.010 A 
ATOM      6  C   UNL     1       1.046  -2.051  -1.516  0.00  0.00    +0.001 A 
ATOM      7  C   UNL     1       1.049  -0.663  -1.501  0.00  0.00    +0.005 A 
ATOM      8  C   UNL     1       0.906   0.028  -0.318  0.00  0.00    -0.026 A 
ATOM      9  C   UNL     1       0.745  -0.670   0.874  0.00  0.00    +0.052 A 
ATOM     10  N   UNL     1       0.594  -0.005   2.072  0.00  0.00    -0.322 N 
ATOM     11  H   UNL     1       0.601   0.995   2.084  0.00  0.00    +0.169 HD
ATOM     12  C   UNL     1       0.437  -0.680   3.224  0.00  0.00    +0.251 A 
ATOM     13  O   UNL     1       0.306  -0.059   4.264  0.00  0.00    -0.268 OA
ATOM     14  C   UNL     1       0.919   1.535  -0.315  0.00  0.00    +0.046 C 
ENDBRANCH   1   2
BRANCH   1  20
ATOM     15  C   UNL     1      -1.146  -2.947   6.553  0.00  0.00    -0.049 C 
ATOM     16  C   UNL     1      -2.401  -2.380   7.223  0.00  0.00    +0.141 C 
ATOM     17  O   UNL     1      -3.531  -2.609   6.378  0.00  0.00    -0.383 OA
ATOM     18  C   UNL     1      -3.408  -2.024   5.079  0.00  0.00    +0.141 C 
ATOM     19  C   UNL     1      -2.164  -2.587   4.387  0.00  0.00    -0.049 C 
ATOM     20  N   UNL     1      -0.984  -2.305   5.231  0.00  0.00    +0.392 N 
ATOM     21  H   UNL     1      -0.900  -1.290   5.360  0.00  0.00    -0.080 HD
ENDBRANCH   1  20
BRANCH   1  23
ATOM     22  N   UNL     1       2.378  -3.408   5.830  0.00  0.00    -0.225 N 
ATOM     23  C   UNL     1       1.426  -2.530   5.461  0.00  0.00    +0.143 A 
ATOM     24  N   UNL     1       1.733  -1.385   6.020  0.00  0.00    -0.115 NA
ATOM     25  N   UNL     1       2.813  -1.553   6.704  0.00  0.00    -0.023 NA
ATOM     26  N   UNL     1       3.206  -2.773   6.588  0.00  0.00    -0.043 NA
BRANCH  22  27
ATOM     27  C   UNL     1       2.458  -4.818   5.442  0.00  0.00    +0.061 C 
ATOM     28  C   UNL     1       1.236  -5.565   5.982  0.00  0.00    +0.036 C 
ATOM     29  C   UNL     1       2.489  -4.927   3.917  0.00  0.00    +0.036 C 
BRANCH  27  31
ATOM     30  C   UNL     1       3.814  -6.909   5.620  0.00  0.00    +0.006 C 
ATOM     31  C   UNL     1       3.731  -5.436   6.025  0.00  0.00    +0.026 C 
ENDBRANCH  27  31
ENDBRANCH  22  27
ENDBRANCH   1  23
TORSDOF 5
