REMARK  Name = ZINC19716421
REMARK  10 active torsions:
REMARK  status: ('A' for Active; 'I' for Inactive)
REMARK    1  A    between atoms: C_1  and  C_2
REMARK    2  A    between atoms: C_4  and  C_30
REMARK    3  A    between atoms: N_5  and  C_7
REMARK    4  A    between atoms: C_7  and  C_8
REMARK    5  A    between atoms: C_10  and  C_18
REMARK    6  A    between atoms: N_20  and  C_21
REMARK    7  A    between atoms: C_21  and  C_22
REMARK    8  A    between atoms: C_22  and  N_27
REMARK    9  A    between atoms: N_27  and  C_28
REMARK   10  A    between atoms: N_27  and  C_29
REMARK                            x       y       z     vdW  Elec       q    Type
REMARK                         _______ _______ _______ _____ _____    ______ ____
ROOT
ATOM      1  C   UNL     1      -3.845   4.260   3.117  0.00  0.00    +0.064 A 
ATOM      2  C   UNL     1      -5.002   4.640   2.440  0.00  0.00    +0.039 A 
ATOM      3  C   UNL     1      -5.293   5.988   2.283  0.00  0.00    +0.048 A 
ATOM      4  C   UNL     1      -4.383   6.929   2.829  0.00  0.00    +0.013 A 
ATOM      5  C   UNL     1      -4.603   8.308   2.715  0.00  0.00    +0.011 A 
ATOM      6  C   UNL     1      -3.705   9.180   3.254  0.00  0.00    +0.001 A 
ATOM      7  C   UNL     1      -2.571   8.719   3.918  0.00  0.00    +0.002 A 
ATOM      8  C   UNL     1      -2.326   7.386   4.046  0.00  0.00    +0.028 A 
ATOM      9  C   UNL     1      -3.230   6.455   3.503  0.00  0.00    +0.072 A 
ATOM     10  N   UNL     1      -3.017   5.142   3.620  0.00  0.00    -0.250 NA
ENDROOT
BRANCH   3  11
ATOM     11  C   UNL     1      -6.512   6.429   1.571  0.00  0.00    +0.245 C 
ATOM     12  O   UNL     1      -6.802   7.609   1.535  0.00  0.00    -0.270 OA
ATOM     13  N   UNL     1      -7.301   5.522   0.961  0.00  0.00    -0.313 N 
ATOM     14  H   UNL     1      -7.038   4.455   0.993  0.00  0.00    +0.149 HD
BRANCH  13  15
ATOM     15  C   UNL     1      -8.508   5.959   0.255  0.00  0.00    +0.092 C 
BRANCH  15  16
ATOM     16  C   UNL     1      -9.281   4.734  -0.239  0.00  0.00    -0.050 C 
ATOM     17  C   UNL     1      -9.714   3.865   0.960  0.00  0.00    -0.010 C 
ATOM     18  C   UNL     1      -9.566   2.410   0.446  0.00  0.00    -0.001 C 
ATOM     19  C   UNL     1      -8.284   2.481  -0.419  0.00  0.00    -0.001 C 
ATOM     20  C   UNL     1      -8.372   3.855  -1.115  0.00  0.00    -0.010 C 
BRANCH  16  21
ATOM     21  N   UNL     1     -10.460   5.159  -1.004  0.00  0.00    +0.381 N 
ATOM     22  C   UNL     1     -11.347   5.997  -0.185  0.00  0.00    -0.096 C 
ATOM     23  C   UNL     1     -10.066   5.858  -2.235  0.00  0.00    -0.096 C 
ATOM     24  H   UNL     1     -11.020   4.257  -1.293  0.00  0.00    -0.082 HD
ENDBRANCH  16  21
ENDBRANCH  15  16
ENDBRANCH  13  15
ENDBRANCH   3  11
BRANCH   1  25
ATOM     25  C   UNL     1      -3.540   2.793   3.281  0.00  0.00    +0.199 C 
BRANCH  25  30
ATOM     26  C   UNL     1       0.151   1.579   0.103  0.00  0.00    +0.067 C 
ATOM     27  C   UNL     1      -0.605   1.977   1.345  0.00  0.00    +0.060 A 
ATOM     28  C   UNL     1      -0.044   2.230   2.601  0.00  0.00    +0.047 A 
ATOM     29  C   UNL     1      -1.048   2.556   3.447  0.00  0.00    +0.037 A 
ATOM     30  N   UNL     1      -2.203   2.510   2.752  0.00  0.00    -0.263 N 
ATOM     31  N   UNL     1      -1.899   2.150   1.433  0.00  0.00    -0.176 NA
ATOM     32  C   UNL     1      -0.902   2.908   4.905  0.00  0.00    +0.065 C 
ENDBRANCH  25  30
ENDBRANCH   1  25
TORSDOF 6
