REMARK  Name = ZINC14475862
REMARK  8 active torsions:
REMARK  status: ('A' for Active; 'I' for Inactive)
REMARK    1  A    between atoms: C_1  and  C_2
REMARK    2  A    between atoms: C_5  and  N_9
REMARK    3  A    between atoms: C_6  and  C_8
REMARK    4  A    between atoms: N_9  and  S_10
REMARK    5  A    between atoms: S_10  and  C_13
REMARK    6  A    between atoms: C_26  and  C_29
REMARK    7  A    between atoms: C_31  and  N_36
REMARK    8  A    between atoms: C_34  and  O_35
REMARK                            x       y       z     vdW  Elec       q    Type
REMARK                         _______ _______ _______ _____ _____    ______ ____
ROOT
ATOM      1  C   UNL     1       2.517  -4.719  -1.127  0.00  0.00    +0.109 A 
ATOM      2  C   UNL     1       3.108  -3.636  -1.753  0.00  0.00    +0.030 A 
ATOM      3  C   UNL     1       4.466  -3.426  -1.637  0.00  0.00    +0.025 A 
ATOM      4  C   UNL     1       5.251  -4.301  -0.895  0.00  0.00    +0.031 A 
ATOM      5  C   UNL     1       4.648  -5.400  -0.275  0.00  0.00    -0.018 A 
ATOM      6  C   UNL     1       3.288  -5.594  -0.385  0.00  0.00    +0.034 A 
ATOM      7  C   UNL     1       5.525  -6.329   0.472  0.00  0.00    +0.049 C 
ATOM      8  C   UNL     1       5.020  -7.142   1.608  0.00  0.00    -0.023 C 
ATOM      9  C   UNL     1       6.011  -7.324   2.472  0.00  0.00    -0.030 C 
ATOM     10  C   UNL     1       7.269  -6.603   1.984  0.00  0.00    +0.033 C 
ATOM     11  C   UNL     1       6.655  -5.487   1.136  0.00  0.00    +0.029 C 
ATOM     12  C   UNL     1       7.502  -4.969  -0.012  0.00  0.00    +0.108 C 
ATOM     13  N   UNL     1       6.624  -4.055  -0.775  0.00  0.00    -0.336 N 
ATOM     14  H   UNL     1       7.007  -3.271  -1.200  0.00  0.00    +0.147 HD
ENDROOT
BRANCH  12  15
ATOM     15  C   UNL     1       8.699  -4.222   0.520  0.00  0.00    +0.017 A 
ATOM     16  C   UNL     1       8.649  -2.849   0.664  0.00  0.00    +0.041 A 
ATOM     17  C   UNL     1       9.746  -2.164   1.152  0.00  0.00    +0.127 A 
ATOM     18  C   UNL     1      10.896  -2.851   1.496  0.00  0.00    +0.036 A 
ATOM     19  C   UNL     1      10.951  -4.224   1.353  0.00  0.00    +0.048 A 
ATOM     20  C   UNL     1       9.849  -4.914   0.869  0.00  0.00    +0.122 A 
BRANCH  17  21
ATOM     21  N   UNL     1       9.690  -0.693   1.305  0.00  0.00    +0.056 N 
ATOM     22  O   UNL     1       8.686  -0.092   1.005  0.00  0.00    -0.126 OA
ATOM     23  O   UNL     1      10.649  -0.093   1.732  0.00  0.00    -0.126 OA
ENDBRANCH  17  21
BRANCH  20  24
ATOM     24  O   UNL     1       9.899  -6.265   0.733  0.00  0.00    -0.506 OA
ATOM     25  H   UNL     1      10.220  -6.562  -0.130  0.00  0.00    +0.292 HD
ENDBRANCH  20  24
ENDBRANCH  12  15
BRANCH   1  26
ATOM     26  S   UNL     1       0.780  -4.979  -1.271  0.00  0.00    +0.072 S 
ATOM     27  O   UNL     1       0.556  -6.363  -1.040  0.00  0.00    -0.150 OA
ATOM     28  O   UNL     1       0.369  -4.331  -2.467  0.00  0.00    -0.150 OA
BRANCH  26  29
ATOM     29  N   UNL     1       0.058  -4.167  -0.021  0.00  0.00    -0.216 N 
ATOM     30  H   UNL     1      -0.470  -4.653   0.632  0.00  0.00    +0.174 HD
BRANCH  29  35
ATOM     31  C   UNL     1       0.671   1.451   0.442  0.00  0.00    +0.044 C 
ATOM     32  C   UNL     1       0.508  -0.042   0.319  0.00  0.00    -0.050 A 
ATOM     33  C   UNL     1       0.416  -0.625  -0.932  0.00  0.00    +0.005 A 
ATOM     34  C   UNL     1       0.267  -1.993  -1.048  0.00  0.00    +0.025 A 
ATOM     35  C   UNL     1       0.209  -2.784   0.093  0.00  0.00    +0.051 A 
ATOM     36  C   UNL     1       0.302  -2.195   1.347  0.00  0.00    -0.028 A 
ATOM     37  C   UNL     1       0.457  -0.826   1.456  0.00  0.00    +0.008 A 
ATOM     38  C   UNL     1       0.239  -3.048   2.588  0.00  0.00    +0.046 C 
ENDBRANCH  29  35
ENDBRANCH  26  29
ENDBRANCH   1  26
TORSDOF 6
