REMARK  Name = ZINC63450021
REMARK  2 active torsions:
REMARK  status: ('A' for Active; 'I' for Inactive)
REMARK    1  A    between atoms: C_4  and  C_7
REMARK    2  A    between atoms: C_14  and  C_15
REMARK                            x       y       z     vdW  Elec       q    Type
REMARK                         _______ _______ _______ _____ _____    ______ ____
ROOT
ATOM      1  C   UNL     1       2.788  -0.485   2.504  0.00  0.00    +0.219 C 
ATOM      2  O   UNL     1       3.328   0.310   3.243  0.00  0.00    -0.275 OA
ATOM      3  N   UNL     1       2.897  -1.808   2.742  0.00  0.00    -0.290 N 
ATOM      4  C   UNL     1       2.345  -2.786   1.795  0.00  0.00    +0.108 C 
ATOM      5  C   UNL     1       1.414  -3.737   2.555  0.00  0.00    +0.019 C 
ATOM      6  C   UNL     1       2.174  -4.358   3.729  0.00  0.00    +0.004 C 
ATOM      7  C   UNL     1       2.625  -3.253   4.689  0.00  0.00    +0.032 C 
ATOM      8  C   UNL     1       3.574  -2.297   3.950  0.00  0.00    +0.162 C 
ENDROOT
BRANCH   8   9
ATOM      9  C   UNL     1       3.918  -1.134   4.844  0.00  0.00    +0.236 C 
ATOM     10  O   UNL     1       3.035  -0.439   5.301  0.00  0.00    -0.274 OA
ATOM     11  N   UNL     1       5.206  -0.865   5.134  0.00  0.00    -0.300 N 
ATOM     12  C   UNL     1       6.363  -1.677   4.730  0.00  0.00    +0.108 C 
ATOM     13  C   UNL     1       7.623  -0.998   5.308  0.00  0.00    +0.020 C 
ATOM     14  C   UNL     1       7.057  -0.155   6.480  0.00  0.00    +0.020 C 
ATOM     15  C   UNL     1       5.689   0.296   5.904  0.00  0.00    +0.108 C 
ENDBRANCH   8   9
BRANCH   1  19
ATOM     16  C   UNL     1      -0.171   1.622   0.192  0.00  0.00    +0.000 C 
ATOM     17  C   UNL     1       1.296   2.026   0.028  0.00  0.00    +0.001 C 
ATOM     18  C   UNL     1       2.099   1.528   1.231  0.00  0.00    +0.013 C 
ATOM     19  C   UNL     1       1.997   0.004   1.318  0.00  0.00    +0.075 C 
ATOM     20  C   UNL     1       0.530  -0.400   1.482  0.00  0.00    +0.013 C 
ATOM     21  C   UNL     1      -0.273   0.098   0.279  0.00  0.00    +0.001 C 
ENDBRANCH   1  19
TORSDOF 2
