REMARK  Name = ZINC36266751
REMARK  5 active torsions:
REMARK  status: ('A' for Active; 'I' for Inactive)
REMARK    1  A    between atoms: C_4  and  S_8
REMARK    2  A    between atoms: S_8  and  N_11
REMARK    3  A    between atoms: N_11  and  C_12
REMARK    4  A    between atoms: C_12  and  C_13
REMARK    5  A    between atoms: C_13  and  N_20
REMARK                            x       y       z     vdW  Elec       q    Type
REMARK                         _______ _______ _______ _____ _____    ______ ____
ROOT
ATOM      1  N   UNL     1       5.919   1.221  -0.461  0.00  0.00    -0.191 NA
ATOM      2  H   UNL     1       6.872   1.092  -0.331  0.00  0.00    +0.148 HD
ENDROOT
BRANCH   1   3
ATOM      3  S   UNL     1       4.987   1.807   0.776  0.00  0.00    +0.059 S 
ATOM      4  O   UNL     1       4.240   2.892   0.243  0.00  0.00    -0.153 OA
ATOM      5  O   UNL     1       5.845   1.952   1.899  0.00  0.00    -0.153 OA
BRANCH   3   9
ATOM      6  C   UNL     1       1.995  -1.420   1.844  0.00  0.00    +0.016 A 
ATOM      7  C   UNL     1       3.347  -1.640   2.035  0.00  0.00    +0.018 A 
ATOM      8  C   UNL     1       4.261  -0.655   1.709  0.00  0.00    +0.044 A 
ATOM      9  C   UNL     1       3.822   0.551   1.191  0.00  0.00    +0.120 A 
ATOM     10  C   UNL     1       2.471   0.771   1.000  0.00  0.00    +0.045 A 
ATOM     11  C   UNL     1       1.557  -0.215   1.327  0.00  0.00    +0.020 A 
ATOM     12 BR   UNL     1      -0.291   0.086   1.065  0.00  0.00    -0.050 Br
ATOM     13 BR   UNL     1       6.109  -0.955   1.971  0.00  0.00    -0.048 Br
ENDBRANCH   3   9
ENDBRANCH   1   3
BRANCH   1  14
ATOM     14  C   UNL     1       5.305   0.898  -1.751  0.00  0.00    +0.093 C 
BRANCH  14  15
ATOM     15  C   UNL     1       6.398   0.740  -2.810  0.00  0.00    -0.057 C 
ATOM     16  C   UNL     1       5.780   0.114  -4.075  0.00  0.00    -0.012 C 
ATOM     17  C   UNL     1       5.010   1.135  -4.932  0.00  0.00    -0.001 C 
ATOM     18  C   UNL     1       4.182   2.077  -4.101  0.00  0.00    -0.000 C 
ATOM     19  C   UNL     1       5.008   3.352  -3.836  0.00  0.00    -0.000 C 
ATOM     20  C   UNL     1       5.971   3.176  -2.759  0.00  0.00    -0.001 C 
ATOM     21  C   UNL     1       7.015   2.086  -3.077  0.00  0.00    -0.012 C 
BRANCH  15  22
ATOM     22  N   UNL     1       7.434  -0.164  -2.292  0.00  0.00    +0.383 N 
ATOM     23  H   UNL     1       7.025  -1.063  -2.088  0.00  0.00    -0.089 HD
ATOM     24  H   UNL     1       8.160  -0.274  -2.984  0.00  0.00    -0.089 HD
ATOM     25  H   UNL     1       7.829   0.226  -1.449  0.00  0.00    -0.089 HD
ENDBRANCH  15  22
ENDBRANCH  14  15
ENDBRANCH   1  14
TORSDOF 5
