REMARK  Name = ZINC02793501
REMARK  8 active torsions:
REMARK  status: ('A' for Active; 'I' for Inactive)
REMARK    1  A    between atoms: C_1  and  C_2
REMARK    2  A    between atoms: C_2  and  N_3
REMARK    3  A    between atoms: C_4  and  C_18
REMARK    4  A    between atoms: C_7  and  S_8
REMARK    5  A    between atoms: S_8  and  C_9
REMARK    6  A    between atoms: C_9  and  C_10
REMARK    7  A    between atoms: C_20  and  C_24
REMARK    8  A    between atoms: N_22  and  C_23
REMARK                            x       y       z     vdW  Elec       q    Type
REMARK                         _______ _______ _______ _____ _____    ______ ____
ROOT
ATOM      1  N   UNL     1      -0.027   1.359   0.007  0.00  0.00    -0.301 N 
ATOM      2  C   UNL     1       0.120  -0.011   0.027  0.00  0.00    +0.183 A 
ATOM      3  N   UNL     1       1.410  -0.260   0.024  0.00  0.00    -0.127 NA
ATOM      4  N   UNL     1       2.069   0.844   0.003  0.00  0.00    -0.122 NA
ATOM      5  C   UNL     1       1.242   1.865  -0.008  0.00  0.00    +0.192 A 
ENDROOT
BRANCH   2   6
ATOM      6  C   UNL     1      -0.965  -1.008   0.049  0.00  0.00    +0.106 A 
ATOM      7  C   UNL     1      -2.317  -0.750  -0.033  0.00  0.00    +0.065 A 
ATOM      8  C   UNL     1      -2.985  -1.972   0.021  0.00  0.00    +0.166 A 
ATOM      9  N   UNL     1      -2.100  -2.929   0.140  0.00  0.00    -0.167 NA
ATOM     10  N   UNL     1      -0.821  -2.361   0.161  0.00  0.00    -0.263 N 
ATOM     11  C   UNL     1       0.445  -3.087   0.281  0.00  0.00    +0.173 C 
BRANCH   8  12
ATOM     12  C   UNL     1      -4.479  -2.160  -0.040  0.00  0.00    +0.436 C 
ATOM     13  F   UNL     1      -4.788  -3.509   0.163  0.00  0.00    -0.164 F 
ATOM     14  F   UNL     1      -5.088  -1.387   0.954  0.00  0.00    -0.164 F 
ATOM     15  F   UNL     1      -4.949  -1.758  -1.296  0.00  0.00    -0.164 F 
ENDBRANCH   8  12
ENDBRANCH   2   6
BRANCH   1  17
ATOM     16  C   UNL     1      -1.795   2.270   1.429  0.00  0.00    +0.027 C 
ATOM     17  C   UNL     1      -1.282   2.115  -0.004  0.00  0.00    +0.122 C 
ENDBRANCH   1  17
BRANCH   5  18
ATOM     18  S   UNL     1       1.686   3.569  -0.038  0.00  0.00    -0.076 S 
BRANCH  18  19
ATOM     19  C   UNL     1       3.490   3.424  -0.045  0.00  0.00    +0.178 C 
BRANCH  19  20
ATOM     20  C   UNL     1       4.105   4.799  -0.070  0.00  0.00    +0.258 C 
ATOM     21  O   UNL     1       3.397   5.778  -0.083  0.00  0.00    -0.270 OA
ATOM     22  N   UNL     1       5.446   4.938  -0.080  0.00  0.00    -0.206 N 
ATOM     23  C   UNL     1       6.132   6.117  -0.102  0.00  0.00    +0.132 A 
ATOM     24  C   UNL     1       7.450   5.820  -0.104  0.00  0.00    +0.056 A 
ATOM     25  C   UNL     1       7.580   4.423  -0.083  0.00  0.00    +0.150 A 
ATOM     26  N   UNL     1       6.384   3.898  -0.062  0.00  0.00    -0.171 NA
ATOM     27 BR   UNL     1       8.870   7.069  -0.133  0.00  0.00    -0.047 Br
ENDBRANCH  19  20
ENDBRANCH  18  19
ENDBRANCH   5  18
TORSDOF 6
