REMARK  Name = ZINC64003378
REMARK  8 active torsions:
REMARK  status: ('A' for Active; 'I' for Inactive)
REMARK    1  A    between atoms: C_1  and  C_2
REMARK    2  A    between atoms: C_4  and  C_11
REMARK    3  A    between atoms: C_5  and  C_10
REMARK    4  A    between atoms: C_11  and  O_13
REMARK    5  A    between atoms: O_13  and  C_14
REMARK    6  A    between atoms: C_14  and  C_15
REMARK    7  A    between atoms: C_15  and  C_17
REMARK    8  A    between atoms: C_25  and  C_27
REMARK                            x       y       z     vdW  Elec       q    Type
REMARK                         _______ _______ _______ _____ _____    ______ ____
ROOT
ATOM      1  C   UNL     1      -2.188   4.081  -4.418  0.00  0.00    +0.034 C 
ATOM      2  C   UNL     1      -2.029   3.846  -5.772  0.00  0.00    +0.007 A 
ATOM      3  C   UNL     1      -1.377   2.823  -6.501  0.00  0.00    +0.010 A 
ATOM      4  C   UNL     1      -1.378   2.843  -7.852  0.00  0.00    +0.001 A 
ATOM      5  C   UNL     1      -2.012   3.855  -8.591  0.00  0.00    +0.002 A 
ATOM      6  C   UNL     1      -2.661   4.877  -7.992  0.00  0.00    +0.026 A 
ATOM      7  C   UNL     1      -2.708   4.931  -6.521  0.00  0.00    +0.044 A 
ATOM      8  N   UNL     1      -3.252   5.782  -5.699  0.00  0.00    -0.373 N 
ATOM      9  C   UNL     1      -2.999   5.354  -4.320  0.00  0.00    +0.144 C 
ATOM     10  H   UNL     1      -3.749   6.574  -5.959  0.00  0.00    +0.161 HD
ENDROOT
BRANCH   9  11
ATOM     11  C   UNL     1      -4.301   5.085  -3.610  0.00  0.00    -0.021 A 
ATOM     12  C   UNL     1      -5.356   4.511  -4.295  0.00  0.00    +0.006 A 
ATOM     13  C   UNL     1      -6.550   4.264  -3.645  0.00  0.00    +0.000 A 
ATOM     14  C   UNL     1      -6.690   4.592  -2.309  0.00  0.00    +0.000 A 
ATOM     15  C   UNL     1      -5.636   5.166  -1.624  0.00  0.00    +0.000 A 
ATOM     16  C   UNL     1      -4.440   5.409  -2.273  0.00  0.00    +0.006 A 
ENDBRANCH   9  11
BRANCH   1  17
ATOM     17  C   UNL     1      -1.700   3.295  -3.352  0.00  0.00    +0.199 C 
ATOM     18  O   UNL     1      -1.923   3.623  -2.204  0.00  0.00    -0.289 OA
BRANCH  17  19
ATOM     19  C   UNL     1      -0.903   2.049  -3.638  0.00  0.00    +0.311 C 
BRANCH  19  20
ATOM     20  O   UNL     1      -0.525   1.432  -2.406  0.00  0.00    -0.453 OA
BRANCH  20  21
ATOM     21  C   UNL     1       0.198   0.297  -2.486  0.00  0.00    +0.339 C 
ATOM     22  O   UNL     1       0.499  -0.156  -3.573  0.00  0.00    -0.245 OA
BRANCH  21  25
ATOM     23  C   UNL     1      -1.648  -1.322  -0.954  0.00  0.00    +0.057 C 
ATOM     24  C   UNL     1      -0.150  -1.603  -0.822  0.00  0.00    +0.210 C 
ATOM     25  C   UNL     1       0.622  -0.392  -1.260  0.00  0.00    +0.076 C 
ATOM     26  C   UNL     1       1.662   0.086  -0.601  0.00  0.00    -0.049 C 
ATOM     27  C   UNL     1       2.159  -0.540   0.676  0.00  0.00    +0.151 C 
ATOM     28  C   UNL     1       1.466  -1.873   0.858  0.00  0.00    +0.312 C 
ATOM     29  O   UNL     1       2.057  -2.844   1.268  0.00  0.00    -0.250 OA
ATOM     30  O   UNL     1       0.153  -1.920   0.539  0.00  0.00    -0.456 OA
ATOM     31  C   UNL     1       2.376   1.297  -1.145  0.00  0.00    +0.040 C 
ENDBRANCH  21  25
ENDBRANCH  20  21
ENDBRANCH  19  20
ENDBRANCH  17  19
ENDBRANCH   1  17
TORSDOF 6
