REMARK  Name = ZINC04918643
REMARK  7 active torsions:
REMARK  status: ('A' for Active; 'I' for Inactive)
REMARK    1  A    between atoms: C_1  and  C_2
REMARK    2  A    between atoms: C_2  and  O_3
REMARK    3  A    between atoms: O_3  and  C_4
REMARK    4  A    between atoms: C_9  and  N_10
REMARK    5  A    between atoms: N_10  and  C_11
REMARK    6  A    between atoms: N_21  and  C_22
REMARK    7  A    between atoms: C_27  and  C_28
REMARK                            x       y       z     vdW  Elec       q    Type
REMARK                         _______ _______ _______ _____ _____    ______ ____
ROOT
ATOM      1  C   UNL     1       3.533  -0.938  -0.034  0.00  0.00    +0.198 C 
ATOM      2  C   UNL     1       2.330  -0.030  -0.104  0.00  0.00    +0.003 A 
ATOM      3  C   UNL     1       2.184   1.335  -0.200  0.00  0.00    +0.008 A 
ATOM      4  C   UNL     1       0.917   1.893  -0.246  0.00  0.00    +0.000 A 
ATOM      5  C   UNL     1      -0.203   1.081  -0.195  0.00  0.00    +0.001 A 
ATOM      6  C   UNL     1      -0.067  -0.288  -0.098  0.00  0.00    +0.013 A 
ATOM      7  C   UNL     1       1.207  -0.858  -0.051  0.00  0.00    +0.044 A 
ATOM      8  C   UNL     1       1.667  -2.256   0.050  0.00  0.00    +0.253 C 
ATOM      9  O   UNL     1       0.935  -3.225   0.115  0.00  0.00    -0.270 OA
ATOM     10  N   UNL     1       3.010  -2.305   0.060  0.00  0.00    -0.244 N 
ENDROOT
BRANCH  10  11
ATOM     11  C   UNL     1       3.782  -3.469   0.145  0.00  0.00    +0.042 A 
ATOM     12  C   UNL     1       4.171  -4.132  -1.012  0.00  0.00    +0.024 A 
ATOM     13  C   UNL     1       4.933  -5.280  -0.925  0.00  0.00    +0.002 A 
ATOM     14  C   UNL     1       5.309  -5.770   0.313  0.00  0.00    +0.000 A 
ATOM     15  C   UNL     1       4.923  -5.112   1.466  0.00  0.00    +0.005 A 
ATOM     16  C   UNL     1       4.165  -3.960   1.386  0.00  0.00    -0.029 A 
ATOM     17  C   UNL     1       3.751  -3.240   2.643  0.00  0.00    +0.045 C 
ENDBRANCH  10  11
BRANCH   1  18
ATOM     18  N   UNL     1       4.346  -0.792  -1.244  0.00  0.00    -0.319 N 
ATOM     19  H   UNL     1       3.917  -0.713  -2.110  0.00  0.00    +0.148 HD
BRANCH  18  25
ATOM     20  C   UNL     1       6.515  -0.508  -2.280  0.00  0.00    +0.141 A 
ATOM     21  C   UNL     1       7.896  -0.478  -2.180  0.00  0.00    +0.047 A 
ATOM     22  C   UNL     1       8.506  -0.715  -0.962  0.00  0.00    +0.004 A 
ATOM     23  C   UNL     1       7.741  -0.976   0.160  0.00  0.00    +0.002 A 
ATOM     24  C   UNL     1       6.362  -1.002   0.069  0.00  0.00    +0.026 A 
ATOM     25  C   UNL     1       5.743  -0.766  -1.149  0.00  0.00    +0.071 A 
BRANCH  20  26
ATOM     26  O   UNL     1       5.913  -0.281  -3.479  0.00  0.00    -0.490 OA
BRANCH  26  28
ATOM     27  C   UNL     1       5.917   0.206  -5.846  0.00  0.00    +0.048 C 
ATOM     28  C   UNL     1       6.768  -0.024  -4.595  0.00  0.00    +0.226 C 
ENDBRANCH  26  28
ENDBRANCH  20  26
ENDBRANCH  18  25
ENDBRANCH   1  18
TORSDOF 5
