REMARK  Name = ZINC43408831
REMARK  5 active torsions:
REMARK  status: ('A' for Active; 'I' for Inactive)
REMARK    1  A    between atoms: C_1  and  C_2
REMARK    2  A    between atoms: C_2  and  C_4
REMARK    3  A    between atoms: C_2  and  N_10
REMARK    4  A    between atoms: C_12  and  C_20
REMARK    5  A    between atoms: C_20  and  N_22
REMARK                            x       y       z     vdW  Elec       q    Type
REMARK                         _______ _______ _______ _____ _____    ______ ____
ROOT
ATOM      1  N   UNL     1       0.709  -0.507   1.184  0.00  0.00    -0.321 N 
ATOM      2  C   UNL     1       2.088  -0.612   1.171  0.00  0.00    +0.129 A 
ATOM      3  C   UNL     1       2.774  -0.973   2.344  0.00  0.00    +0.043 A 
ATOM      4  C   UNL     1       4.168  -1.071   2.302  0.00  0.00    +0.019 A 
ATOM      5  C   UNL     1       4.815  -0.807   1.105  0.00  0.00    -0.025 A 
ATOM      6  C   UNL     1       4.074  -0.457  -0.010  0.00  0.00    +0.047 A 
ATOM      7  N   UNL     1       2.755  -0.376   0.054  0.00  0.00    -0.236 NA
ATOM      8  C   UNL     1       5.006  -0.223  -1.183  0.00  0.00    +0.056 C 
ATOM      9  C   UNL     1       6.405  -0.038  -0.559  0.00  0.00    +0.011 C 
ATOM     10  C   UNL     1       6.287  -0.831   0.760  0.00  0.00    +0.037 C 
ATOM     11  H   UNL     1       0.212  -0.755   1.979  0.00  0.00    +0.148 HD
ENDROOT
BRANCH   1  13
ATOM     12  C   UNL     1      -0.030   1.509   0.013  0.00  0.00    +0.033 C 
ATOM     13  C   UNL     1       0.000  -0.021  -0.002  0.00  0.00    +0.106 C 
BRANCH  13  14
ATOM     14  C   UNL     1      -1.411  -0.551   0.004  0.00  0.00    +0.011 A 
ATOM     15  C   UNL     1      -2.151  -1.018  -1.031  0.00  0.00    +0.014 A 
ATOM     16  C   UNL     1      -3.438  -1.460  -0.790  0.00  0.00    +0.028 A 
ATOM     17  C   UNL     1      -3.922  -1.412   0.477  0.00  0.00    +0.078 A 
ATOM     18  S   UNL     1      -2.537  -0.736   1.376  0.00  0.00    -0.080 S 
ATOM     19 CL   UNL     1      -5.482  -1.892   1.070  0.00  0.00    -0.076 Cl
ENDBRANCH  13  14
ENDBRANCH   1  13
BRANCH   3  20
ATOM     20  C   UNL     1       2.039  -1.243   3.592  0.00  0.00    +0.080 C 
ATOM     21  S   UNL     1       1.621   0.049   4.635  0.00  0.00    -0.035 S 
BRANCH  20  22
ATOM     22  N   UNL     1       1.694  -2.506   3.912  0.00  0.00    -0.352 N 
ATOM     23  H   UNL     1       1.931  -3.237   3.320  0.00  0.00    +0.143 HD
ATOM     24  H   UNL     1       1.210  -2.683   4.733  0.00  0.00    +0.143 HD
ENDBRANCH  20  22
ENDBRANCH   3  20
TORSDOF 4
