REMARK  Name = ZINC63537901
REMARK  5 active torsions:
REMARK  status: ('A' for Active; 'I' for Inactive)
REMARK    1  A    between atoms: C_3  and  C_6
REMARK    2  A    between atoms: C_9  and  C_34
REMARK    3  A    between atoms: C_15  and  C_19
REMARK    4  A    between atoms: N_21  and  C_22
REMARK    5  A    between atoms: C_22  and  C_23
REMARK                            x       y       z     vdW  Elec       q    Type
REMARK                         _______ _______ _______ _____ _____    ______ ____
ROOT
ATOM      1  C   UNL     1       3.599   0.625  -0.029  0.00  0.00    +0.123 C 
ATOM      2  C   UNL     1       4.082   0.387  -1.460  0.00  0.00    +0.056 C 
ATOM      3  C   UNL     1       5.603   0.164  -1.486  0.00  0.00    +0.180 C 
ATOM      4  N   UNL     1       5.899  -0.926  -0.567  0.00  0.00    -0.213 NA
ATOM      5  C   UNL     1       5.526  -0.510   0.813  0.00  0.00    +0.153 C 
ATOM      6  N   UNL     1       4.068  -0.448   0.869  0.00  0.00    -0.290 NA
ATOM      7  C   UNL     1       6.147  -1.617   1.674  0.00  0.00    +0.123 C 
ATOM      8  C   UNL     1       7.338  -2.119   0.819  0.00  0.00    +0.114 C 
ATOM      9  N   UNL     1       7.290  -1.326  -0.441  0.00  0.00    -0.251 NA
ATOM     10  H   UNL     1       3.749  -0.294   1.814  0.00  0.00    +0.124 HD
ATOM     11  H   UNL     1       7.894  -0.520  -0.384  0.00  0.00    +0.141 HD
ENDROOT
BRANCH   1  14
ATOM     12  C   UNL     1      -0.016   1.341   0.009  0.00  0.00    +0.041 A 
ATOM     13  C   UNL     1       1.331   1.769  -0.001  0.00  0.00    +0.046 A 
ATOM     14  C   UNL     1       2.092   0.660  -0.014  0.00  0.00    +0.122 A 
ATOM     15  O   UNL     1       1.282  -0.411  -0.012  0.00  0.00    -0.466 OA
ATOM     16  C   UNL     1       0.002  -0.004   0.002  0.00  0.00    +0.195 A 
ENDBRANCH   1  14
BRANCH   7  17
ATOM     17  C   UNL     1       6.632  -1.058   2.987  0.00  0.00    +0.220 C 
ATOM     18  O   UNL     1       6.499   0.123   3.229  0.00  0.00    -0.275 OA
ATOM     19  N   UNL     1       7.213  -1.870   3.892  0.00  0.00    -0.313 N 
ATOM     20  H   UNL     1       7.319  -2.814   3.698  0.00  0.00    +0.149 HD
BRANCH  19  21
ATOM     21  C   UNL     1       7.684  -1.327   5.168  0.00  0.00    +0.133 C 
BRANCH  21  22
ATOM     22  C   UNL     1       8.298  -2.450   6.005  0.00  0.00    +0.120 C 
ATOM     23  C   UNL     1       8.952  -1.880   7.244  0.00  0.00    +0.009 C 
ATOM     24  C   UNL     1      10.261  -2.209   7.162  0.00  0.00    -0.003 A 
ATOM     25  C   UNL     1      11.408  -1.952   8.042  0.00  0.00    +0.029 A 
ATOM     26  C   UNL     1      12.627  -2.419   7.685  0.00  0.00    +0.042 A 
ATOM     27  C   UNL     1      12.820  -3.142   6.498  0.00  0.00    +0.022 A 
ATOM     28  C   UNL     1      11.816  -3.418   5.641  0.00  0.00    +0.027 A 
ATOM     29  C   UNL     1      10.493  -2.974   5.916  0.00  0.00    +0.043 A 
ATOM     30  N   UNL     1       9.369  -3.114   5.253  0.00  0.00    -0.376 N 
ATOM     31 CL   UNL     1      13.985  -2.116   8.722  0.00  0.00    -0.084 Cl
ATOM     32  H   UNL     1       9.263  -3.578   4.407  0.00  0.00    +0.160 HD
ENDBRANCH  21  22
ENDBRANCH  19  21
ENDBRANCH   7  17
BRANCH   3  33
ATOM     33  C   UNL     1       6.049  -0.210  -2.901  0.00  0.00    +0.406 C 
ATOM     34  F   UNL     1       5.718   0.823  -3.784  0.00  0.00    -0.169 F 
ATOM     35  F   UNL     1       7.434  -0.411  -2.916  0.00  0.00    -0.169 F 
ATOM     36  F   UNL     1       5.403  -1.387  -3.298  0.00  0.00    -0.169 F 
ENDBRANCH   3  33
TORSDOF 5
