REMARK  Name = ZINC08806033
REMARK  9 active torsions:
REMARK  status: ('A' for Active; 'I' for Inactive)
REMARK    1  A    between atoms: C_1  and  C_2
REMARK    2  A    between atoms: C_2  and  N_3
REMARK    3  A    between atoms: C_12  and  C_14
REMARK    4  A    between atoms: C_14  and  O_16
REMARK    5  A    between atoms: O_16  and  C_17
REMARK    6  A    between atoms: C_17  and  C_18
REMARK    7  A    between atoms: N_20  and  C_21
REMARK    8  A    between atoms: C_21  and  C_23
REMARK    9  A    between atoms: C_21  and  C_24
REMARK                            x       y       z     vdW  Elec       q    Type
REMARK                         _______ _______ _______ _____ _____    ______ ____
ROOT
ATOM      1  O   UNL     1       4.640   7.857   2.834  0.00  0.00    -0.451 OA
ENDROOT
BRANCH   1   2
ATOM      2  C   UNL     1       4.712   8.910   3.672  0.00  0.00    +0.360 C 
ATOM      3  O   UNL     1       3.698   9.489   4.009  0.00  0.00    -0.243 OA
BRANCH   2  13
ATOM      4  N   UNL     1       8.292   9.068   4.218  0.00  0.00    -0.229 N 
ATOM      5  C   UNL     1       8.536  10.096   5.056  0.00  0.00    +0.275 A 
ATOM      6  O   UNL     1       9.672  10.363   5.401  0.00  0.00    -0.266 OA
ATOM      7  C   UNL     1       7.397  10.886   5.545  0.00  0.00    +0.050 A 
ATOM      8  C   UNL     1       7.542  11.965   6.411  0.00  0.00    +0.014 A 
ATOM      9  C   UNL     1       6.421  12.655   6.823  0.00  0.00    +0.001 A 
ATOM     10  C   UNL     1       5.158  12.285   6.383  0.00  0.00    +0.001 A 
ATOM     11  C   UNL     1       4.993  11.219   5.524  0.00  0.00    +0.011 A 
ATOM     12  C   UNL     1       6.110  10.513   5.091  0.00  0.00    +0.021 A 
ATOM     13  C   UNL     1       6.021   9.360   4.181  0.00  0.00    +0.176 A 
ATOM     14  N   UNL     1       7.120   8.741   3.822  0.00  0.00    -0.161 NA
BRANCH   4  16
ATOM     15  C   UNL     1       9.695   7.121   4.694  0.00  0.00    +0.029 C 
ATOM     16  C   UNL     1       9.431   8.283   3.734  0.00  0.00    +0.144 C 
ENDBRANCH   4  16
ENDBRANCH   2  13
ENDBRANCH   1   2
BRANCH   1  17
ATOM     17  C   UNL     1       3.319   7.470   2.374  0.00  0.00    +0.328 C 
BRANCH  17  18
ATOM     18  C   UNL     1       3.435   6.283   1.452  0.00  0.00    +0.251 C 
ATOM     19  O   UNL     1       4.525   5.810   1.208  0.00  0.00    -0.272 OA
ATOM     20  N   UNL     1       2.329   5.747   0.900  0.00  0.00    -0.306 N 
ATOM     21  H   UNL     1       1.457   6.125   1.095  0.00  0.00    +0.149 HD
BRANCH  20  22
ATOM     22  C   UNL     1       2.442   4.593   0.004  0.00  0.00    +0.100 C 
ATOM     23  C   UNL     1       2.739   5.077  -1.416  0.00  0.00    +0.033 C 
BRANCH  22  24
ATOM     24  C   UNL     1       1.148   3.822   0.012  0.00  0.00    -0.026 A 
ATOM     25  C   UNL     1      -0.059   4.497   0.027  0.00  0.00    +0.007 A 
ATOM     26  C   UNL     1      -1.247   3.791   0.034  0.00  0.00    +0.022 A 
ATOM     27  C   UNL     1      -1.230   2.408   0.021  0.00  0.00    +0.059 A 
ATOM     28  C   UNL     1      -0.021   1.732   0.012  0.00  0.00    +0.060 A 
ATOM     29  C   UNL     1       1.167   2.440   0.004  0.00  0.00    +0.027 A 
ATOM     30 CL   UNL     1       0.002  -0.004   0.002  0.00  0.00    -0.082 Cl
ATOM     31 CL   UNL     1      -2.722   1.521   0.023  0.00  0.00    -0.082 Cl
ENDBRANCH  22  24
ENDBRANCH  20  22
ENDBRANCH  17  18
ENDBRANCH   1  17
TORSDOF 7
