REMARK  Name = ZINC29581354
REMARK  5 active torsions:
REMARK  status: ('A' for Active; 'I' for Inactive)
REMARK    1  A    between atoms: C_1  and  N_2
REMARK    2  A    between atoms: C_3  and  C_5
REMARK    3  A    between atoms: C_16  and  C_18
REMARK    4  A    between atoms: C_18  and  S_19
REMARK    5  A    between atoms: S_19  and  C_20
REMARK                            x       y       z     vdW  Elec       q    Type
REMARK                         _______ _______ _______ _____ _____    ______ ____
ROOT
ATOM      1  C   UNL     1      -0.039   0.969   1.224  0.00  0.00    +0.276 C 
ATOM      2  C   UNL     1      -0.065   0.028   0.012  0.00  0.00    +0.168 C 
ATOM      3  N   UNL     1       1.226  -0.680  -0.029  0.00  0.00    -0.264 N 
ATOM      4  C   UNL     1       2.388   0.066   0.234  0.00  0.00    +0.078 A 
ATOM      5  C   UNL     1       3.635  -0.461  -0.063  0.00  0.00    +0.027 A 
ATOM      6  C   UNL     1       4.775   0.275   0.200  0.00  0.00    +0.002 A 
ATOM      7  C   UNL     1       4.671   1.536   0.760  0.00  0.00    +0.004 A 
ATOM      8  C   UNL     1       3.430   2.068   1.054  0.00  0.00    +0.047 A 
ATOM      9  C   UNL     1       2.281   1.335   0.796  0.00  0.00    +0.143 A 
ATOM     10  O   UNL     1       1.065   1.867   1.087  0.00  0.00    -0.476 OA
ATOM     11  C   UNL     1       1.292  -1.997  -0.309  0.00  0.00    +0.230 C 
ATOM     12  O   UNL     1       2.370  -2.542  -0.413  0.00  0.00    -0.274 OA
ENDROOT
BRANCH   1  15
ATOM     13  C   UNL     1      -3.742   1.882   1.553  0.00  0.00    +0.128 C 
ATOM     14  N   UNL     1      -2.493   1.119   1.498  0.00  0.00    -0.315 N 
ATOM     15  C   UNL     1      -1.324   1.754   1.282  0.00  0.00    +0.255 C 
ATOM     16  O   UNL     1      -1.306   2.958   1.133  0.00  0.00    -0.272 OA
ATOM     17  H   UNL     1      -2.509   0.028   1.632  0.00  0.00    +0.148 HD
ENDBRANCH   1  15
BRANCH  11  18
ATOM     18  C   UNL     1       0.025  -2.791  -0.494  0.00  0.00    +0.173 C 
BRANCH  18  19
ATOM     19  S   UNL     1       0.436  -4.541  -0.711  0.00  0.00    -0.083 S 
BRANCH  19  20
ATOM     20  C   UNL     1      -1.181  -5.214  -0.899  0.00  0.00    +0.128 C 
ATOM     21  N   UNL     1      -2.223  -4.431  -0.853  0.00  0.00    -0.382 N 
ATOM     22  N   UNL     1      -1.345  -6.566  -1.095  0.00  0.00    -0.312 N 
ATOM     23  C   UNL     1      -0.192  -7.474  -1.046  0.00  0.00    +0.107 C 
ATOM     24  C   UNL     1      -0.494  -8.594  -0.038  0.00  0.00    +0.019 C 
ATOM     25  C   UNL     1      -1.812  -9.272  -0.419  0.00  0.00    +0.003 C 
ATOM     26  C   UNL     1      -2.950  -8.250  -0.359  0.00  0.00    +0.019 C 
ATOM     27  C   UNL     1      -2.676  -7.128  -1.365  0.00  0.00    +0.107 C 
ATOM     28  H   UNL     1      -3.233  -4.851  -0.970  0.00  0.00    +0.158 HD
ATOM     29  H   UNL     1      -2.092  -3.350  -0.696  0.00  0.00    +0.158 HD
ENDBRANCH  19  20
ENDBRANCH  18  19
ENDBRANCH  11  18
TORSDOF 4
