REMARK  Name = ZINC39664119
REMARK  9 active torsions:
REMARK  status: ('A' for Active; 'I' for Inactive)
REMARK    1  A    between atoms: C_1  and  N_2
REMARK    2  A    between atoms: C_6  and  C_7
REMARK    3  A    between atoms: C_11  and  C_20
REMARK    4  A    between atoms: N_22  and  C_23
REMARK    5  A    between atoms: C_23  and  C_24
REMARK    6  A    between atoms: C_24  and  C_26
REMARK    7  A    between atoms: C_24  and  N_34
REMARK    8  A    between atoms: C_29  and  O_32
REMARK    9  A    between atoms: O_32  and  C_33
REMARK                            x       y       z     vdW  Elec       q    Type
REMARK                         _______ _______ _______ _____ _____    ______ ____
ROOT
ATOM      1  C   UNL     1      -0.169  -0.325   2.880  0.00  0.00    +0.263 C 
ATOM      2  O   UNL     1      -0.074  -1.074   3.834  0.00  0.00    -0.268 OA
ATOM      3  N   UNL     1      -0.361   0.995   3.076  0.00  0.00    -0.295 N 
ATOM      4  C   UNL     1      -0.642   2.034   2.057  0.00  0.00    +0.121 C 
ATOM      5  C   UNL     1      -1.683   2.961   2.722  0.00  0.00    +0.100 C 
ATOM      6  C   UNL     1      -1.478   2.763   4.233  0.00  0.00    -0.004 C 
ATOM      7  C   UNL     1      -0.345   1.734   4.361  0.00  0.00    +0.115 C 
ATOM      8  C   UNL     1      -2.752   2.218   4.872  0.00  0.00    -0.010 C 
ATOM      9  C   UNL     1      -2.541   2.082   6.383  0.00  0.00    -0.082 C 
ATOM     10  N   UNL     1      -2.207   3.394   6.951  0.00  0.00    +0.379 N 
ATOM     11  C   UNL     1      -0.932   3.869   6.400  0.00  0.00    -0.082 C 
ATOM     12  C   UNL     1      -1.075   4.079   4.890  0.00  0.00    -0.010 C 
ATOM     13  H   UNL     1      -2.937   4.053   6.725  0.00  0.00    -0.086 HD
ATOM     14  H   UNL     1      -2.129   3.314   7.954  0.00  0.00    -0.086 HD
ENDROOT
BRANCH   1  20
ATOM     15  C   UNL     1      -0.077  -3.319   2.093  0.00  0.00    +0.149 C 
ATOM     16  N   UNL     1      -0.034  -2.187   1.164  0.00  0.00    -0.346 N 
ATOM     17  C   UNL     1       0.046  -2.275  -0.186  0.00  0.00    +0.086 A 
ATOM     18  C   UNL     1       0.063  -1.024  -0.706  0.00  0.00    +0.020 A 
ATOM     19  C   UNL     1      -0.010  -0.117   0.355  0.00  0.00    +0.032 A 
ATOM     20  C   UNL     1      -0.076  -0.857   1.517  0.00  0.00    +0.104 A 
ENDBRANCH   1  20
BRANCH   5  21
ATOM     21  C   UNL     1      -1.427   4.396   2.340  0.00  0.00    +0.218 C 
ATOM     22  O   UNL     1      -0.290   4.788   2.179  0.00  0.00    -0.275 OA
ATOM     23  N   UNL     1      -2.461   5.245   2.176  0.00  0.00    -0.316 N 
ATOM     24  H   UNL     1      -3.370   4.932   2.304  0.00  0.00    +0.149 HD
BRANCH  23  25
ATOM     25  C   UNL     1      -2.212   6.640   1.804  0.00  0.00    +0.093 C 
BRANCH  25  26
ATOM     26  C   UNL     1      -3.534   7.412   1.806  0.00  0.00    -0.020 C 
BRANCH  26  27
ATOM     27  C   UNL     1      -4.077   7.473   3.210  0.00  0.00    -0.059 A 
ATOM     28  C   UNL     1      -3.578   8.403   4.103  0.00  0.00    +0.005 A 
ATOM     29  C   UNL     1      -4.074   8.462   5.391  0.00  0.00    +0.046 A 
ATOM     30  C   UNL     1      -5.075   7.586   5.788  0.00  0.00    +0.120 A 
ATOM     31  C   UNL     1      -5.574   6.654   4.890  0.00  0.00    +0.046 A 
ATOM     32  C   UNL     1      -5.078   6.604   3.601  0.00  0.00    +0.005 A 
BRANCH  30  33
ATOM     33  O   UNL     1      -5.565   7.641   7.054  0.00  0.00    -0.495 OA
ATOM     34  C   UNL     1      -6.594   6.710   7.393  0.00  0.00    +0.277 C 
ENDBRANCH  30  33
ENDBRANCH  26  27
BRANCH  26  35
ATOM     35  N   UNL     1      -3.305   8.775   1.309  0.00  0.00    +0.385 N 
ATOM     36  C   UNL     1      -2.953   8.742  -0.134  0.00  0.00    -0.078 C 
ATOM     37  C   UNL     1      -3.299  10.173  -0.616  0.00  0.00    -0.020 C 
ATOM     38  C   UNL     1      -4.581  10.507   0.182  0.00  0.00    -0.020 C 
ATOM     39  C   UNL     1      -4.550   9.568   1.403  0.00  0.00    -0.078 C 
ATOM     40  H   UNL     1      -2.569   9.220   1.837  0.00  0.00    -0.081 HD
ENDBRANCH  26  35
ENDBRANCH  25  26
ENDBRANCH  23  25
ENDBRANCH   5  21
TORSDOF 7
