REMARK  Name = ZINC57738288
REMARK  6 active torsions:
REMARK  status: ('A' for Active; 'I' for Inactive)
REMARK    1  A    between atoms: C_3  and  C_19
REMARK    2  A    between atoms: C_6  and  C_7
REMARK    3  A    between atoms: C_7  and  C_8
REMARK    4  A    between atoms: C_8  and  C_10
REMARK    5  A    between atoms: C_8  and  C_12
REMARK    6  A    between atoms: C_10  and  N_11
REMARK                            x       y       z     vdW  Elec       q    Type
REMARK                         _______ _______ _______ _____ _____    ______ ____
ROOT
ATOM      1  C   UNL     1      -1.629  -1.003  -1.469  0.00  0.00    +0.006 C 
ENDROOT
BRANCH   1   2
ATOM      2  C   UNL     1      -2.926  -1.770  -1.480  0.00  0.00    -0.046 A 
ATOM      3  C   UNL     1      -4.046  -1.241  -0.867  0.00  0.00    +0.005 A 
ATOM      4  C   UNL     1      -5.236  -1.944  -0.877  0.00  0.00    +0.015 A 
ATOM      5  C   UNL     1      -5.306  -3.177  -1.500  0.00  0.00    +0.018 A 
ATOM      6  C   UNL     1      -4.184  -3.706  -2.113  0.00  0.00    +0.015 A 
ATOM      7  C   UNL     1      -2.996  -3.000  -2.107  0.00  0.00    +0.005 A 
ATOM      8 BR   UNL     1      -6.934  -4.140  -1.513  0.00  0.00    -0.050 Br
ENDBRANCH   1   2
BRANCH   1   9
ATOM      9  C   UNL     1      -1.181  -0.778  -0.024  0.00  0.00    +0.041 C 
BRANCH   9  15
ATOM     10  C   UNL     1       0.401  -2.660   0.443  0.00  0.00    +0.004 A 
ATOM     11  C   UNL     1       0.706  -3.873   1.024  0.00  0.00    +0.015 A 
ATOM     12  C   UNL     1      -0.255  -4.540   1.787  0.00  0.00    +0.063 A 
ATOM     13  C   UNL     1      -1.521  -3.973   1.955  0.00  0.00    +0.015 A 
ATOM     14  C   UNL     1      -1.813  -2.759   1.368  0.00  0.00    +0.004 A 
ATOM     15  C   UNL     1      -0.855  -2.104   0.614  0.00  0.00    -0.047 A 
BRANCH  12  16
ATOM     16  C   UNL     1       0.064  -5.838   2.411  0.00  0.00    +0.387 C 
ATOM     17  O   UNL     1       1.173  -6.332   2.261  0.00  0.00    -0.241 OA
ATOM     18  O   UNL     1      -0.780  -6.420   3.078  0.00  0.00    -0.241 OA
ENDBRANCH  12  16
ENDBRANCH   9  15
ENDBRANCH   1   9
BRANCH   1  19
ATOM     19  C   UNL     1      -1.829   0.348  -2.158  0.00  0.00    -0.078 C 
BRANCH  19  20
ATOM     20  N   UNL     1      -0.538   1.040  -2.264  0.00  0.00    +0.379 N 
ATOM     21  H   UNL     1      -0.655   1.891  -2.794  0.00  0.00    -0.090 HD
ATOM     22  H   UNL     1      -0.198   1.262  -1.341  0.00  0.00    -0.090 HD
ATOM     23  H   UNL     1       0.126   0.442  -2.732  0.00  0.00    -0.090 HD
ENDBRANCH  19  20
ENDBRANCH   1  19
TORSDOF 6
