REMARK  Name = ZINC67421099
REMARK  10 active torsions:
REMARK  status: ('A' for Active; 'I' for Inactive)
REMARK    1  A    between atoms: C_1  and  C_2
REMARK    2  A    between atoms: C_2  and  N_3
REMARK    3  A    between atoms: C_4  and  C_27
REMARK    4  A    between atoms: C_5  and  C_9
REMARK    5  A    between atoms: C_6  and  C_8
REMARK    6  A    between atoms: C_9  and  N_10
REMARK    7  A    between atoms: N_13  and  C_14
REMARK    8  A    between atoms: C_14  and  C_15
REMARK    9  A    between atoms: C_15  and  C_16
REMARK   10  A    between atoms: C_17  and  C_26
REMARK                            x       y       z     vdW  Elec       q    Type
REMARK                         _______ _______ _______ _____ _____    ______ ____
ROOT
ATOM      1  N   UNL     1      -5.307  -0.498   1.874  0.00  0.00    -0.295 N 
ATOM      2  C   UNL     1      -6.396  -0.641   2.655  0.00  0.00    +0.300 C 
ATOM      3  O   UNL     1      -6.674  -1.731   3.117  0.00  0.00    -0.253 OA
ATOM      4  N   UNL     1      -7.176   0.424   2.925  0.00  0.00    -0.299 N 
ATOM      5  H   UNL     1      -5.085   0.371   1.506  0.00  0.00    +0.151 HD
ATOM      6  H   UNL     1      -6.954   1.294   2.557  0.00  0.00    +0.150 HD
ENDROOT
BRANCH   1   7
ATOM      7  C   UNL     1      -4.459  -1.656   1.581  0.00  0.00    +0.144 C 
BRANCH   7  10
ATOM      8  N   UNL     1      -1.372  -0.511   0.012  0.00  0.00    -0.268 N 
ATOM      9  C   UNL     1      -2.109  -0.787   1.109  0.00  0.00    +0.041 A 
ATOM     10  C   UNL     1      -3.317  -1.231   0.694  0.00  0.00    +0.013 A 
ATOM     11  C   UNL     1      -3.320  -1.227  -0.705  0.00  0.00    +0.065 A 
ATOM     12  N   UNL     1      -2.156  -0.790  -1.114  0.00  0.00    -0.176 NA
ATOM     13  C   UNL     1      -4.467  -1.647  -1.588  0.00  0.00    +0.068 C 
ATOM     14  C   UNL     1      -1.664  -0.628   2.541  0.00  0.00    +0.065 C 
BRANCH   8  16
ATOM     15  C   UNL     1      -0.019   1.526   0.010  0.00  0.00    +0.029 C 
ATOM     16  C   UNL     1       0.002  -0.004   0.002  0.00  0.00    +0.140 C 
ENDBRANCH   8  16
ENDBRANCH   7  10
ENDBRANCH   1   7
BRANCH   4  17
ATOM     17  C   UNL     1      -8.360   0.269   3.774  0.00  0.00    +0.110 C 
BRANCH  17  18
ATOM     18  C   UNL     1      -9.063   1.620   3.920  0.00  0.00    +0.056 C 
BRANCH  18  19
ATOM     19  C   UNL     1     -10.281   1.460   4.794  0.00  0.00    -0.018 A 
ATOM     20  C   UNL     1     -11.522   1.153   4.385  0.00  0.00    +0.017 A 
ATOM     21  N   UNL     1     -12.366   1.095   5.460  0.00  0.00    -0.358 N 
ATOM     22  H   UNL     1     -13.313   0.890   5.415  0.00  0.00    +0.166 HD
ATOM     23  C   UNL     1     -11.671   1.370   6.617  0.00  0.00    +0.047 A 
ATOM     24  C   UNL     1     -10.333   1.605   6.251  0.00  0.00    +0.003 A 
ATOM     25  C   UNL     1      -9.385   1.906   7.230  0.00  0.00    +0.010 A 
ATOM     26  C   UNL     1      -9.762   1.968   8.543  0.00  0.00    +0.001 A 
ATOM     27  C   UNL     1     -11.080   1.733   8.909  0.00  0.00    +0.002 A 
ATOM     28  C   UNL     1     -12.034   1.443   7.958  0.00  0.00    +0.026 A 
ATOM     29  C   UNL     1     -11.926   0.909   2.954  0.00  0.00    +0.063 C 
ENDBRANCH  18  19
ENDBRANCH  17  18
ENDBRANCH   4  17
TORSDOF 6
