REMARK  Name = ZINC15935217
REMARK  9 active torsions:
REMARK  status: ('A' for Active; 'I' for Inactive)
REMARK    1  A    between atoms: C_1  and  C_2
REMARK    2  A    between atoms: C_7  and  S_15
REMARK    3  A    between atoms: C_12  and  C_14
REMARK    4  A    between atoms: S_15  and  N_18
REMARK    5  A    between atoms: N_18  and  C_19
REMARK    6  A    between atoms: C_19  and  C_20
REMARK    7  A    between atoms: C_20  and  C_21
REMARK    8  A    between atoms: N_23  and  C_24
REMARK    9  A    between atoms: N_23  and  C_25
REMARK                            x       y       z     vdW  Elec       q    Type
REMARK                         _______ _______ _______ _____ _____    ______ ____
ROOT
ATOM      1  S   UNL     1      -3.299  -3.446   4.365  0.00  0.00    +0.058 S 
ATOM      2  O   UNL     1      -2.767  -3.723   5.653  0.00  0.00    -0.153 OA
ATOM      3  O   UNL     1      -4.517  -2.738   4.180  0.00  0.00    -0.153 OA
ENDROOT
BRANCH   1   9
ATOM      4  C   UNL     1       0.050   1.874   0.481  0.00  0.00    +0.029 C 
ATOM      5  C   UNL     1      -0.099   0.362   0.301  0.00  0.00    +0.083 C 
ATOM      6  C   UNL     1      -1.548  -0.069   0.583  0.00  0.00    +0.059 C 
ATOM      7  C   UNL     1      -1.441  -1.023   1.751  0.00  0.00    -0.022 A 
ATOM      8  C   UNL     1      -2.412  -1.726   2.438  0.00  0.00    +0.034 A 
ATOM      9  C   UNL     1      -2.059  -2.550   3.490  0.00  0.00    +0.106 A 
ATOM     10  C   UNL     1      -0.730  -2.671   3.853  0.00  0.00    +0.030 A 
ATOM     11  C   UNL     1       0.242  -1.972   3.170  0.00  0.00    +0.026 A 
ATOM     12  C   UNL     1      -0.107  -1.137   2.107  0.00  0.00    +0.040 A 
ATOM     13  N   UNL     1       0.715  -0.350   1.290  0.00  0.00    -0.268 N 
ATOM     14  C   UNL     1       2.055  -0.260   1.397  0.00  0.00    +0.217 C 
ATOM     15  O   UNL     1       2.646  -0.940   2.210  0.00  0.00    -0.276 OA
ATOM     16  C   UNL     1       2.820   0.686   0.508  0.00  0.00    +0.109 C 
ENDBRANCH   1   9
BRANCH   1  17
ATOM     17  N   UNL     1      -3.478  -4.905   3.603  0.00  0.00    -0.189 NA
ATOM     18  H   UNL     1      -4.316  -5.124   3.165  0.00  0.00    +0.148 HD
BRANCH  17  19
ATOM     19  C   UNL     1      -2.373  -5.866   3.591  0.00  0.00    +0.115 C 
BRANCH  19  20
ATOM     20  C   UNL     1      -2.897  -7.241   3.171  0.00  0.00    +0.113 C 
BRANCH  20  21
ATOM     21  C   UNL     1      -1.759  -8.229   3.159  0.00  0.00    +0.217 C 
ATOM     22  O   UNL     1      -0.640  -7.870   3.457  0.00  0.00    -0.276 OA
ATOM     23  N   UNL     1      -1.986  -9.513   2.817  0.00  0.00    -0.301 N 
ATOM     24  C   UNL     1      -3.338  -9.948   2.457  0.00  0.00    +0.132 C 
BRANCH  23  25
ATOM     25  C   UNL     1      -0.880 -10.474   2.805  0.00  0.00    +0.076 C 
ATOM     26  C   UNL     1      -0.721 -11.050   1.396  0.00  0.00    +0.022 C 
ATOM     27  C   UNL     1       0.434 -12.054   1.384  0.00  0.00    +0.002 C 
ATOM     28  C   UNL     1       0.136 -13.187   2.368  0.00  0.00    +0.000 C 
ATOM     29  C   UNL     1      -0.024 -12.611   3.776  0.00  0.00    +0.002 C 
ATOM     30  C   UNL     1      -1.178 -11.607   3.789  0.00  0.00    +0.022 C 
ENDBRANCH  23  25
ENDBRANCH  20  21
ENDBRANCH  19  20
ENDBRANCH  17  19
ENDBRANCH   1  17
TORSDOF 6
