REMARK  Name = ZINC36852339
REMARK  13 active torsions:
REMARK  status: ('A' for Active; 'I' for Inactive)
REMARK    1  A    between atoms: C_1  and  C_2
REMARK    2  A    between atoms: C_5  and  N_9
REMARK    3  A    between atoms: C_6  and  C_8
REMARK    4  A    between atoms: C_22  and  S_23
REMARK    5  A    between atoms: S_23  and  C_24
REMARK    6  A    between atoms: C_24  and  C_26
REMARK    7  A    between atoms: C_24  and  C_27
REMARK    8  A    between atoms: N_29  and  C_30
REMARK    9  A    between atoms: C_30  and  C_31
REMARK   10  A    between atoms: C_30  and  C_32
REMARK   11  A    between atoms: C_30  and  C_34
REMARK   12  A    between atoms: C_34  and  C_35
REMARK   13  A    between atoms: C_34  and  C_36
REMARK                            x       y       z     vdW  Elec       q    Type
REMARK                         _______ _______ _______ _____ _____    ______ ____
ROOT
ATOM      1  N   UNL     1       0.059  -4.170  -0.021  0.00  0.00    -0.245 N 
ATOM      2  C   UNL     1      -1.105  -4.851  -0.024  0.00  0.00    +0.268 A 
ATOM      3  O   UNL     1      -2.167  -4.258  -0.021  0.00  0.00    -0.267 OA
ATOM      4  C   UNL     1      -1.071  -6.325  -0.033  0.00  0.00    +0.064 A 
ATOM      5  C   UNL     1      -2.245  -7.076  -0.037  0.00  0.00    +0.015 A 
ATOM      6  C   UNL     1      -2.173  -8.453  -0.046  0.00  0.00    +0.001 A 
ATOM      7  C   UNL     1      -0.942  -9.090  -0.050  0.00  0.00    +0.002 A 
ATOM      8  C   UNL     1       0.228  -8.357  -0.046  0.00  0.00    +0.027 A 
ATOM      9  C   UNL     1       0.176  -6.972  -0.037  0.00  0.00    +0.064 A 
ATOM     10  N   UNL     1       1.335  -6.207  -0.034  0.00  0.00    -0.255 N 
ATOM     11  C   UNL     1       1.275  -4.837  -0.031  0.00  0.00    +0.245 A 
ATOM     12  N   UNL     1       2.512  -4.402  -0.034  0.00  0.00    -0.109 NA
ATOM     13  N   UNL     1       3.330  -5.394  -0.044  0.00  0.00    -0.120 NA
ATOM     14  C   UNL     1       2.666  -6.525  -0.036  0.00  0.00    +0.198 A 
ENDROOT
BRANCH   1  19
ATOM     15  C   UNL     1      -0.018   1.503   0.010  0.00  0.00    +0.044 C 
ATOM     16  C   UNL     1       0.002  -0.004   0.002  0.00  0.00    -0.050 A 
ATOM     17  C   UNL     1       0.006  -0.688  -1.200  0.00  0.00    +0.005 A 
ATOM     18  C   UNL     1       0.025  -2.068  -1.212  0.00  0.00    +0.027 A 
ATOM     19  C   UNL     1       0.041  -2.771  -0.013  0.00  0.00    +0.056 A 
ATOM     20  C   UNL     1       0.037  -2.082   1.192  0.00  0.00    -0.026 A 
ATOM     21  C   UNL     1       0.023  -0.700   1.196  0.00  0.00    +0.008 A 
ATOM     22  C   UNL     1       0.053  -2.840   2.495  0.00  0.00    +0.046 C 
ENDBRANCH   1  19
BRANCH  14  23
ATOM     23  S   UNL     1       3.357  -8.146  -0.046  0.00  0.00    -0.073 S 
BRANCH  23  24
ATOM     24  C   UNL     1       5.148  -7.860  -0.046  0.00  0.00    +0.137 C 
ATOM     25  C   UNL     1       5.556  -7.186   1.265  0.00  0.00    +0.029 C 
BRANCH  24  26
ATOM     26  C   UNL     1       5.867  -9.178  -0.178  0.00  0.00    +0.227 C 
ATOM     27  O   UNL     1       5.294 -10.211   0.095  0.00  0.00    -0.275 OA
ATOM     28  N   UNL     1       7.146  -9.208  -0.601  0.00  0.00    -0.296 N 
ATOM     29  H   UNL     1       7.604  -8.382  -0.820  0.00  0.00    +0.150 HD
BRANCH  28  30
ATOM     30  C   UNL     1       7.845 -10.489  -0.729  0.00  0.00    +0.121 C 
ATOM     31  C   UNL     1       7.889 -11.185   0.632  0.00  0.00    +0.048 C 
BRANCH  30  32
ATOM     32  C   UNL     1       9.273 -10.244  -1.223  0.00  0.00    +0.020 C 
ATOM     33  C   UNL     1      10.041 -11.567  -1.239  0.00  0.00    +0.010 C 
ATOM     34  C   UNL     1       9.230  -9.663  -2.638  0.00  0.00    +0.010 C 
ENDBRANCH  30  32
BRANCH  30  35
ATOM     35  C   UNL     1       7.132 -11.343  -1.694  0.00  0.00    +0.088 C 
ATOM     36  N   UNL     1       6.582 -12.002  -2.438  0.00  0.00    -0.194 NA
ENDBRANCH  30  35
ENDBRANCH  28  30
ENDBRANCH  24  26
ENDBRANCH  23  24
ENDBRANCH  14  23
TORSDOF 7
