REMARK  Name = ZINC12891593
REMARK  9 active torsions:
REMARK  status: ('A' for Active; 'I' for Inactive)
REMARK    1  A    between atoms: C_1  and  C_2
REMARK    2  A    between atoms: C_5  and  N_29
REMARK    3  A    between atoms: C_7  and  S_8
REMARK    4  A    between atoms: S_8  and  N_11
REMARK    5  A    between atoms: N_11  and  N_12
REMARK    6  A    between atoms: C_13  and  C_15
REMARK    7  A    between atoms: C_15  and  C_17
REMARK    8  A    between atoms: C_15  and  O_18
REMARK    9  A    between atoms: O_18  and  C_19
REMARK                            x       y       z     vdW  Elec       q    Type
REMARK                         _______ _______ _______ _____ _____    ______ ____
ROOT
ATOM      1  N   UNL     1       0.593   2.291   0.007  0.00  0.00    -0.229 N 
ATOM      2  C   UNL     1       0.798   3.428  -0.686  0.00  0.00    +0.268 C 
ATOM      3  O   UNL     1      -0.128   3.968  -1.253  0.00  0.00    -0.270 OA
ATOM      4  H   UNL     1       1.333   1.858   0.461  0.00  0.00    +0.171 HD
ENDROOT
BRANCH   1   5
ATOM      5  N   UNL     1      -0.691   1.733   0.074  0.00  0.00    -0.108 NA
ATOM      6  H   UNL     1      -1.433   2.263   0.405  0.00  0.00    +0.172 HD
BRANCH   5   7
ATOM      7  S   UNL     1      -0.942   0.172  -0.419  0.00  0.00    +0.074 S 
ATOM      8  O   UNL     1      -2.253  -0.181   0.002  0.00  0.00    -0.152 OA
ATOM      9  O   UNL     1      -0.535   0.105  -1.779  0.00  0.00    -0.152 OA
BRANCH   7  16
ATOM     10  C   UNL     1      -1.046  -0.202   2.580  0.00  0.00    +0.046 C 
ATOM     11  C   UNL     1       0.044  -0.956   1.862  0.00  0.00    -0.024 A 
ATOM     12  C   UNL     1       0.917  -1.755   2.576  0.00  0.00    +0.007 A 
ATOM     13  C   UNL     1       1.916  -2.447   1.917  0.00  0.00    +0.033 A 
ATOM     14  C   UNL     1       2.042  -2.340   0.545  0.00  0.00    +0.128 A 
ATOM     15  C   UNL     1       1.167  -1.543  -0.169  0.00  0.00    +0.061 A 
ATOM     16  C   UNL     1       0.170  -0.847   0.490  0.00  0.00    +0.112 A 
BRANCH  14  17
ATOM     17  N   UNL     1       3.111  -3.081  -0.161  0.00  0.00    +0.056 N 
ATOM     18  O   UNL     1       3.880  -3.786   0.468  0.00  0.00    -0.126 OA
ATOM     19  O   UNL     1       3.222  -2.986  -1.370  0.00  0.00    -0.126 OA
ENDBRANCH  14  17
ENDBRANCH   7  16
ENDBRANCH   5   7
ENDBRANCH   1   5
BRANCH   2  20
ATOM     20  C   UNL     1       2.179   4.027  -0.758  0.00  0.00    +0.257 C 
ATOM     21  C   UNL     1       2.663   4.363   0.654  0.00  0.00    +0.062 C 
BRANCH  20  22
ATOM     22  O   UNL     1       2.140   5.220  -1.544  0.00  0.00    -0.480 OA
BRANCH  22  23
ATOM     23  C   UNL     1       3.299   5.602  -2.143  0.00  0.00    +0.122 A 
ATOM     24  C   UNL     1       4.478   4.899  -1.877  0.00  0.00    +0.046 A 
ATOM     25  C   UNL     1       5.652   5.257  -2.461  0.00  0.00    +0.012 A 
ATOM     26  C   UNL     1       5.686   6.349  -3.346  0.00  0.00    -0.018 A 
ATOM     27  C   UNL     1       6.883   6.745  -3.967  0.00  0.00    +0.008 A 
ATOM     28  C   UNL     1       6.880   7.807  -4.820  0.00  0.00    +0.001 A 
ATOM     29  C   UNL     1       5.706   8.509  -5.087  0.00  0.00    +0.001 A 
ATOM     30  C   UNL     1       4.529   8.153  -4.504  0.00  0.00    +0.008 A 
ATOM     31  C   UNL     1       4.492   7.062  -3.618  0.00  0.00    -0.014 A 
ATOM     32  C   UNL     1       3.295   6.663  -3.003  0.00  0.00    +0.054 A 
ENDBRANCH  22  23
ENDBRANCH  20  22
ENDBRANCH   2  20
TORSDOF 7
