REMARK  Name = ZINC31040667
REMARK  12 active torsions:
REMARK  status: ('A' for Active; 'I' for Inactive)
REMARK    1  A    between atoms: C_1  and  C_2
REMARK    2  A    between atoms: C_2  and  C_4
REMARK    3  A    between atoms: C_2  and  N_19
REMARK    4  A    between atoms: N_6  and  C_7
REMARK    5  A    between atoms: C_15  and  C_16
REMARK    6  A    between atoms: C_16  and  C_18
REMARK    7  A    between atoms: N_19  and  C_20
REMARK    8  A    between atoms: N_19  and  C_21
REMARK    9  A    between atoms: C_21  and  C_22
REMARK   10  A    between atoms: N_24  and  C_25
REMARK   11  A    between atoms: C_30  and  S_31
REMARK   12  A    between atoms: S_31  and  C_32
REMARK                            x       y       z     vdW  Elec       q    Type
REMARK                         _______ _______ _______ _____ _____    ______ ____
ROOT
ATOM      1  C   UNL     1       1.292   0.053   0.192  0.00  0.00    -0.004 C 
ATOM      2  C   UNL     1       0.083  -0.744   0.687  0.00  0.00    +0.017 C 
ENDROOT
BRANCH   2   3
ATOM      3  C   UNL     1       0.196  -0.954   2.175  0.00  0.00    +0.204 C 
ATOM      4  O   UNL     1       0.772  -1.929   2.609  0.00  0.00    -0.277 OA
ATOM      5  N   UNL     1      -0.344  -0.058   3.025  0.00  0.00    -0.283 N 
ATOM      6  H   UNL     1      -0.850   0.694   2.679  0.00  0.00    +0.155 HD
BRANCH   5   7
ATOM      7  C   UNL     1      -0.177  -0.211   4.393  0.00  0.00    +0.090 A 
ATOM      8  C   UNL     1       0.925  -0.894   5.080  0.00  0.00    +0.042 A 
ATOM      9  C   UNL     1       2.072  -1.561   4.646  0.00  0.00    +0.013 A 
ATOM     10  C   UNL     1       2.928  -2.105   5.562  0.00  0.00    +0.001 A 
ATOM     11  C   UNL     1       2.662  -2.000   6.920  0.00  0.00    +0.004 A 
ATOM     12  C   UNL     1       1.535  -1.346   7.368  0.00  0.00    +0.047 A 
ATOM     13  C   UNL     1       0.650  -0.782   6.454  0.00  0.00    +0.138 A 
ATOM     14  O   UNL     1      -0.503  -0.100   6.597  0.00  0.00    -0.450 OA
ATOM     15  C   UNL     1      -1.011   0.254   5.394  0.00  0.00    +0.192 A 
BRANCH  15  16
ATOM     16  C   UNL     1      -2.200   0.978   5.194  0.00  0.00    +0.197 C 
ATOM     17  O   UNL     1      -2.619   1.158   4.067  0.00  0.00    -0.289 OA
ATOM     18  C   UNL     1      -2.955   1.530   6.375  0.00  0.00    +0.095 C 
ENDBRANCH  15  16
ENDBRANCH   5   7
ENDBRANCH   2   3
BRANCH   2  19
ATOM     19  N   UNL     1       0.045  -2.047   0.011  0.00  0.00    +0.391 N 
ATOM     20  C   UNL     1      -0.041  -1.843  -1.441  0.00  0.00    -0.094 C 
ATOM     21  H   UNL     1       0.884  -2.564   0.229  0.00  0.00    -0.080 HD
BRANCH  19  22
ATOM     22  C   UNL     1      -1.128  -2.803   0.469  0.00  0.00    +0.020 C 
BRANCH  22  23
ATOM     23  C   UNL     1      -1.097  -4.188  -0.124  0.00  0.00    +0.201 C 
ATOM     24  O   UNL     1      -0.187  -4.514  -0.857  0.00  0.00    -0.278 OA
ATOM     25  N   UNL     1      -2.081  -5.065   0.160  0.00  0.00    -0.286 N 
ATOM     26  H   UNL     1      -2.853  -4.778   0.672  0.00  0.00    +0.155 HD
BRANCH  25  27
ATOM     27  C   UNL     1      -1.987  -6.391  -0.285  0.00  0.00    +0.047 A 
ATOM     28  C   UNL     1      -0.758  -6.916  -0.651  0.00  0.00    +0.024 A 
ATOM     29  C   UNL     1      -0.668  -8.224  -1.089  0.00  0.00    +0.002 A 
ATOM     30  C   UNL     1      -1.802  -9.012  -1.165  0.00  0.00    +0.001 A 
ATOM     31  C   UNL     1      -3.032  -8.497  -0.802  0.00  0.00    +0.016 A 
ATOM     32  C   UNL     1      -3.131  -7.187  -0.355  0.00  0.00    +0.029 A 
BRANCH  32  33
ATOM     33  S   UNL     1      -4.696  -6.529   0.114  0.00  0.00    -0.127 S 
ATOM     34  C   UNL     1      -5.847  -7.908  -0.144  0.00  0.00    +0.090 C 
ENDBRANCH  32  33
ENDBRANCH  25  27
ENDBRANCH  22  23
ENDBRANCH  19  22
ENDBRANCH   2  19
TORSDOF 8
