REMARK  Name = ZINC06276456
REMARK  2 active torsions:
REMARK  status: ('A' for Active; 'I' for Inactive)
REMARK    1  A    between atoms: C_7  and  N_18
REMARK    2  A    between atoms: C_8  and  C_10
REMARK                            x       y       z     vdW  Elec       q    Type
REMARK                         _______ _______ _______ _____ _____    ______ ____
ROOT
ATOM      1  C   UNL     1      -3.038  -0.098   1.224  0.00  0.00    +0.017 A 
ATOM      2  C   UNL     1      -4.238  -0.671   0.885  0.00  0.00    -0.025 A 
ATOM      3  C   UNL     1      -5.046  -0.084  -0.084  0.00  0.00    +0.046 A 
ATOM      4  N   UNL     1      -4.681   1.025  -0.684  0.00  0.00    -0.244 NA
ATOM      5  C   UNL     1      -3.539   1.612  -0.393  0.00  0.00    +0.111 A 
ATOM      6  C   UNL     1      -2.643   1.097   0.572  0.00  0.00    +0.029 A 
ATOM      7  C   UNL     1      -1.429   1.875   0.765  0.00  0.00    +0.053 A 
ATOM      8  C   UNL     1      -1.260   3.019   0.017  0.00  0.00    +0.097 A 
ATOM      9  S   UNL     1      -2.733   3.080  -0.984  0.00  0.00    -0.062 S 
ATOM     10  C   UNL     1      -6.343  -0.779  -0.410  0.00  0.00    +0.056 C 
ATOM     11  C   UNL     1      -7.431  -0.432   0.555  0.00  0.00    +0.006 C 
ATOM     12  C   UNL     1      -7.448  -1.129   1.899  0.00  0.00    +0.000 C 
ATOM     13  C   UNL     1      -6.363  -0.544   2.823  0.00  0.00    +0.000 C 
ATOM     14  C   UNL     1      -5.230  -1.599   2.946  0.00  0.00    +0.005 C 
ATOM     15  C   UNL     1      -4.717  -1.936   1.548  0.00  0.00    +0.037 C 
ENDROOT
BRANCH   8  16
ATOM     16  C   UNL     1      -0.173   3.929   0.037  0.00  0.00    +0.255 C 
ATOM     17  O   UNL     1       0.967   3.514   0.134  0.00  0.00    -0.269 OA
ATOM     18  N   UNL     1      -0.403   5.255  -0.052  0.00  0.00    -0.297 N 
ATOM     19  C   UNL     1      -1.775   5.778  -0.051  0.00  0.00    +0.108 C 
ATOM     20  C   UNL     1      -1.893   6.841   1.052  0.00  0.00    +0.019 C 
ATOM     21  C   UNL     1      -0.814   7.906   0.844  0.00  0.00    +0.003 C 
ATOM     22  C   UNL     1       0.570   7.259   0.943  0.00  0.00    +0.019 C 
ATOM     23  C   UNL     1       0.715   6.202  -0.156  0.00  0.00    +0.108 C 
ENDBRANCH   8  16
BRANCH   7  24
ATOM     24  N   UNL     1      -0.467   1.477   1.683  0.00  0.00    -0.356 N 
ATOM     25  H   UNL     1      -0.601   0.671   2.206  0.00  0.00    +0.142 HD
ATOM     26  H   UNL     1       0.340   2.003   1.799  0.00  0.00    +0.142 HD
ENDBRANCH   7  24
TORSDOF 2
