REMARK  Name = ZINC34829763
REMARK  7 active torsions:
REMARK  status: ('A' for Active; 'I' for Inactive)
REMARK    1  A    between atoms: C_1  and  C_2
REMARK    2  A    between atoms: C_5  and  C_8
REMARK    3  A    between atoms: N_17  and  C_18
REMARK    4  A    between atoms: C_18  and  C_19
REMARK    5  A    between atoms: C_25  and  C_28
REMARK    6  A    between atoms: C_29  and  C_31
REMARK    7  A    between atoms: C_31  and  C_32
REMARK                            x       y       z     vdW  Elec       q    Type
REMARK                         _______ _______ _______ _____ _____    ______ ____
ROOT
ATOM      1  C   UNL     1      -3.081  -4.809   1.912  0.00  0.00    +0.199 C 
ATOM      2  O   UNL     1      -2.601  -5.371   2.873  0.00  0.00    -0.278 OA
ATOM      3  N   UNL     1      -4.404  -4.553   1.873  0.00  0.00    -0.300 N 
ATOM      4  C   UNL     1      -5.001  -3.878   0.712  0.00  0.00    +0.126 C 
ATOM      5  C   UNL     1      -5.757  -2.637   1.202  0.00  0.00    +0.127 C 
ATOM      6  N   UNL     1      -6.628  -3.028   2.319  0.00  0.00    -0.295 N 
ATOM      7  C   UNL     1      -6.031  -3.704   3.480  0.00  0.00    +0.090 C 
ATOM      8  C   UNL     1      -5.276  -4.950   2.987  0.00  0.00    +0.130 C 
ATOM      9  C   UNL     1      -5.062  -2.752   4.185  0.00  0.00    +0.029 C 
ATOM     10  C   UNL     1      -7.951  -2.772   2.280  0.00  0.00    +0.220 C 
ATOM     11  O   UNL     1      -8.660  -3.100   3.208  0.00  0.00    -0.275 OA
ENDROOT
BRANCH   1  12
ATOM     12  C   UNL     1      -2.200  -4.396   0.761  0.00  0.00    +0.020 C 
BRANCH  12  21
ATOM     13  C   UNL     1       0.059  -4.275  -0.021  0.00  0.00    -0.005 C 
ATOM     14  C   UNL     1       1.481  -4.770   0.225  0.00  0.00    -0.047 A 
ATOM     15  C   UNL     1       2.616  -4.189  -0.335  0.00  0.00    +0.010 A 
ATOM     16  C   UNL     1       3.842  -4.694  -0.058  0.00  0.00    +0.045 A 
ATOM     17  S   UNL     1       3.443  -6.051   1.035  0.00  0.00    -0.101 S 
ATOM     18  C   UNL     1       1.686  -5.844   1.039  0.00  0.00    -0.010 A 
ATOM     19  C   UNL     1       0.633  -6.634   1.746  0.00  0.00    +0.024 C 
ATOM     20  C   UNL     1      -0.725  -6.249   1.134  0.00  0.00    -0.072 C 
ATOM     21  N   UNL     1      -0.811  -4.785   1.044  0.00  0.00    +0.393 N 
ATOM     22  H   UNL     1      -0.528  -4.382   1.925  0.00  0.00    -0.080 HD
BRANCH  13  27
ATOM     23  C   UNL     1      -0.018   1.503   0.010  0.00  0.00    +0.044 C 
ATOM     24  C   UNL     1       0.002  -0.004   0.002  0.00  0.00    -0.050 A 
ATOM     25  C   UNL     1       0.006  -0.689  -1.199  0.00  0.00    +0.003 A 
ATOM     26  C   UNL     1       0.025  -2.071  -1.206  0.00  0.00    +0.002 A 
ATOM     27  C   UNL     1       0.040  -2.768  -0.013  0.00  0.00    -0.057 A 
ATOM     28  C   UNL     1       0.037  -2.084   1.188  0.00  0.00    +0.002 A 
ATOM     29  C   UNL     1       0.023  -0.702   1.195  0.00  0.00    +0.003 A 
ENDBRANCH  13  27
ENDBRANCH  12  21
ENDBRANCH   1  12
BRANCH  10  30
ATOM     30  C   UNL     1      -8.549  -2.079   1.083  0.00  0.00    +0.131 C 
BRANCH  30  31
ATOM     31  C   UNL     1     -10.033  -1.914   1.288  0.00  0.00    -0.038 A 
ATOM     32  C   UNL     1     -10.902  -2.902   0.866  0.00  0.00    +0.007 A 
ATOM     33  C   UNL     1     -12.263  -2.752   1.054  0.00  0.00    +0.038 A 
ATOM     34  C   UNL     1     -12.756  -1.611   1.664  0.00  0.00    +0.123 A 
ATOM     35  C   UNL     1     -11.884  -0.622   2.086  0.00  0.00    +0.038 A 
ATOM     36  C   UNL     1     -10.523  -0.776   1.902  0.00  0.00    +0.007 A 
ATOM     37  F   UNL     1     -14.086  -1.463   1.848  0.00  0.00    -0.205 F 
ENDBRANCH  30  31
ENDBRANCH  10  30
TORSDOF 5
