REMARK  Name = ZINC09233298
REMARK  11 active torsions:
REMARK  status: ('A' for Active; 'I' for Inactive)
REMARK    1  A    between atoms: C_1  and  C_2
REMARK    2  A    between atoms: C_2  and  O_3
REMARK    3  A    between atoms: O_3  and  C_4
REMARK    4  A    between atoms: C_6  and  C_19
REMARK    5  A    between atoms: C_9  and  O_10
REMARK    6  A    between atoms: O_10  and  C_11
REMARK    7  A    between atoms: C_11  and  C_12
REMARK    8  A    between atoms: C_20  and  C_21
REMARK    9  A    between atoms: C_22  and  C_36
REMARK   10  A    between atoms: C_22  and  C_37
REMARK   11  A    between atoms: C_25  and  C_35
REMARK                            x       y       z     vdW  Elec       q    Type
REMARK                         _______ _______ _______ _____ _____    ______ ____
ROOT
ATOM      1  C   UNL     1       0.623  -4.951  -0.019  0.00  0.00    +0.007 C 
ATOM      2  C   UNL     1       0.462  -6.267  -0.025  0.00  0.00    +0.020 C 
ENDROOT
BRANCH   2   3
ATOM      3  C   UNL     1       1.666  -7.173  -0.035  0.00  0.00    +0.130 C 
ATOM      4  C   UNL     1       1.695  -8.011  -1.321  0.00  0.00    +0.034 C 
ATOM      5  C   UNL     1       2.853  -7.454  -2.099  0.00  0.00    -0.016 A 
ATOM      6  C   UNL     1       3.289  -7.771  -3.372  0.00  0.00    +0.009 A 
ATOM      7  C   UNL     1       4.393  -7.081  -3.855  0.00  0.00    -0.050 A 
ATOM      8  C   UNL     1       5.028  -6.120  -3.096  0.00  0.00    +0.005 A 
ATOM      9  C   UNL     1       4.604  -5.799  -1.818  0.00  0.00    +0.024 A 
ATOM     10  C   UNL     1       3.496  -6.489  -1.315  0.00  0.00    +0.035 A 
ATOM     11  N   UNL     1       2.910  -6.379  -0.073  0.00  0.00    -0.304 N 
ATOM     12  C   UNL     1       3.405  -5.672   1.119  0.00  0.00    +0.117 C 
ATOM     13  C   UNL     1       3.617  -6.735   2.204  0.00  0.00    +0.115 C 
ATOM     14  C   UNL     1       2.526  -7.759   2.183  0.00  0.00    +0.216 C 
ATOM     15  O   UNL     1       2.373  -8.423   3.186  0.00  0.00    -0.276 OA
ATOM     16  N   UNL     1       1.696  -7.993   1.170  0.00  0.00    -0.290 N 
ATOM     17  C   UNL     1       4.909  -7.390  -5.237  0.00  0.00    +0.044 C 
ATOM     18  C   UNL     1       1.931  -9.487  -0.992  0.00  0.00    +0.020 C 
ATOM     19  C   UNL     1       0.391  -7.838  -2.103  0.00  0.00    +0.020 C 
ATOM     20  H   UNL     1       1.103  -8.759   1.228  0.00  0.00    +0.151 HD
ENDBRANCH   2   3
BRANCH   1  23
ATOM     21  C   UNL     1      -1.498  -1.849   0.006  0.00  0.00    +0.162 A 
ATOM     22  C   UNL     1      -0.391  -2.677  -0.003  0.00  0.00    +0.057 A 
ATOM     23  C   UNL     1      -0.558  -4.062  -0.009  0.00  0.00    -0.022 A 
ATOM     24  C   UNL     1      -1.843  -4.607  -0.005  0.00  0.00    +0.012 A 
ATOM     25  C   UNL     1      -2.944  -3.776   0.004  0.00  0.00    +0.050 A 
ATOM     26  C   UNL     1      -2.778  -2.399   0.016  0.00  0.00    +0.162 A 
BRANCH  21  27
ATOM     27  O   UNL     1      -1.339  -0.499   0.012  0.00  0.00    -0.489 OA
BRANCH  27  29
ATOM     28  C   UNL     1      -0.019   1.526   0.010  0.00  0.00    +0.048 C 
ATOM     29  C   UNL     1       0.002  -0.004   0.002  0.00  0.00    +0.226 C 
ENDBRANCH  27  29
ENDBRANCH  21  27
BRANCH  26  30
ATOM     30  O   UNL     1      -3.866  -1.584   0.030  0.00  0.00    -0.484 OA
BRANCH  30  31
ATOM     31  C   UNL     1      -5.149  -2.215   0.039  0.00  0.00    +0.266 C 
BRANCH  31  32
ATOM     32  C   UNL     1      -6.226  -1.162   0.055  0.00  0.00    +0.008 A 
ATOM     33  C   UNL     1      -5.884   0.178   0.054  0.00  0.00    +0.008 A 
ATOM     34  C   UNL     1      -6.872   1.144   0.068  0.00  0.00    +0.000 A 
ATOM     35  C   UNL     1      -8.204   0.771   0.085  0.00  0.00    +0.001 A 
ATOM     36  C   UNL     1      -8.547  -0.567   0.086  0.00  0.00    +0.020 A 
ATOM     37  C   UNL     1      -7.558  -1.535   0.066  0.00  0.00    +0.047 A 
ATOM     38 CL   UNL     1      -7.989  -3.217   0.062  0.00  0.00    -0.083 Cl
ENDBRANCH  31  32
ENDBRANCH  30  31
ENDBRANCH  26  30
ENDBRANCH   1  23
TORSDOF 7
