REMARK  Name = ZINC16021981
REMARK  7 active torsions:
REMARK  status: ('A' for Active; 'I' for Inactive)
REMARK    1  A    between atoms: C_1  and  C_2
REMARK    2  A    between atoms: C_2  and  C_3
REMARK    3  A    between atoms: C_2  and  C_4
REMARK    4  A    between atoms: C_4  and  C_5
REMARK    5  A    between atoms: N_13  and  C_16
REMARK    6  A    between atoms: C_16  and  C_17
REMARK    7  A    between atoms: C_17  and  C_18
REMARK                            x       y       z     vdW  Elec       q    Type
REMARK                         _______ _______ _______ _____ _____    ______ ____
ROOT
ATOM      1  C   UNL     1      -1.405  -2.076   0.004  0.00  0.00    -0.057 C 
ATOM      2  C   UNL     1      -2.826  -2.643  -0.201  0.00  0.00    +0.073 C 
ATOM      3  C   UNL     1      -2.888  -3.902   0.709  0.00  0.00    +0.088 C 
ATOM      4  C   UNL     1      -3.931  -3.534   1.740  0.00  0.00    +0.225 C 
ATOM      5  O   UNL     1      -4.298  -4.246   2.650  0.00  0.00    -0.275 OA
ATOM      6  N   UNL     1      -4.386  -2.300   1.493  0.00  0.00    -0.241 N 
ATOM      7  C   UNL     1      -3.834  -1.699   0.414  0.00  0.00    +0.224 C 
ATOM      8  O   UNL     1      -4.095  -0.589   0.002  0.00  0.00    -0.275 OA
ATOM      9  C   UNL     1      -1.501  -3.974   1.361  0.00  0.00    +0.050 C 
ATOM     10  N   UNL     1      -0.973  -2.590   1.331  0.00  0.00    +0.394 N 
ATOM     11  C   UNL     1      -0.606  -4.943   0.643  0.00  0.00    -0.026 A 
ATOM     12  C   UNL     1      -0.142  -5.025  -0.651  0.00  0.00    +0.024 A 
ATOM     13  C   UNL     1       0.692  -6.065  -1.024  0.00  0.00    +0.041 A 
ATOM     14  C   UNL     1       1.059  -7.020  -0.092  0.00  0.00    +0.022 A 
ATOM     15  C   UNL     1       0.598  -6.941   1.206  0.00  0.00    +0.025 A 
ATOM     16  C   UNL     1      -0.241  -5.897   1.589  0.00  0.00    +0.036 A 
ATOM     17  N   UNL     1      -0.827  -5.602   2.822  0.00  0.00    -0.286 N 
ATOM     18  C   UNL     1      -1.583  -4.488   2.773  0.00  0.00    +0.211 C 
ATOM     19  O   UNL     1      -2.207  -3.994   3.688  0.00  0.00    -0.277 OA
ATOM     20 CL   UNL     1       1.276  -6.171  -2.655  0.00  0.00    -0.084 Cl
ATOM     21  H   UNL     1       0.034  -2.598   1.395  0.00  0.00    -0.083 HD
ATOM     22  H   UNL     1      -0.705  -6.138   3.622  0.00  0.00    +0.155 HD
ATOM     23  H   UNL     1      -1.372  -2.033   2.072  0.00  0.00    -0.083 HD
ENDROOT
BRANCH   1  24
ATOM     24  C   UNL     1      -1.439  -0.546   0.011  0.00  0.00    -0.012 C 
BRANCH  24  26
ATOM     25  C   UNL     1       0.820  -0.371  -1.042  0.00  0.00    +0.007 C 
ATOM     26  C   UNL     1      -0.018  -0.005   0.184  0.00  0.00    -0.019 C 
ATOM     27  C   UNL     1      -0.067   1.516   0.334  0.00  0.00    +0.007 C 
ENDBRANCH  24  26
ENDBRANCH   1  24
BRANCH   6  28
ATOM     28  C   UNL     1      -5.406  -1.651   2.320  0.00  0.00    +0.121 C 
BRANCH  28  29
ATOM     29  C   UNL     1      -4.728  -0.875   3.451  0.00  0.00    +0.054 C 
BRANCH  29  30
ATOM     30  C   UNL     1      -5.777  -0.207   4.301  0.00  0.00    -0.046 A 
ATOM     31  C   UNL     1      -6.211   1.068   3.990  0.00  0.00    +0.004 A 
ATOM     32  C   UNL     1      -7.173   1.680   4.770  0.00  0.00    +0.000 A 
ATOM     33  C   UNL     1      -7.703   1.017   5.862  0.00  0.00    +0.000 A 
ATOM     34  C   UNL     1      -7.271  -0.258   6.172  0.00  0.00    +0.000 A 
ATOM     35  C   UNL     1      -6.311  -0.873   5.389  0.00  0.00    +0.004 A 
ENDBRANCH  29  30
ENDBRANCH  28  29
ENDBRANCH   6  28
TORSDOF 5
