REMARK  Name = ZINC35919914
REMARK  7 active torsions:
REMARK  status: ('A' for Active; 'I' for Inactive)
REMARK    1  A    between atoms: C_1  and  C_2
REMARK    2  A    between atoms: C_6  and  S_8
REMARK    3  A    between atoms: S_8  and  N_11
REMARK    4  A    between atoms: C_16  and  N_33
REMARK    5  A    between atoms: N_23  and  C_26
REMARK    6  A    between atoms: N_33  and  C_34
REMARK    7  A    between atoms: N_33  and  C_35
REMARK                            x       y       z     vdW  Elec       q    Type
REMARK                         _______ _______ _______ _____ _____    ______ ____
ROOT
ATOM      1  N   UNL     1       1.642  -3.164   3.217  0.00  0.00    -0.172 NA
ATOM      2  C   UNL     1       2.377  -4.370   2.802  0.00  0.00    +0.116 C 
ATOM      3  C   UNL     1       3.502  -3.938   1.862  0.00  0.00    +0.071 C 
ATOM      4  C   UNL     1       4.256  -2.769   2.434  0.00  0.00    +0.028 A 
ATOM      5  C   UNL     1       3.736  -1.949   3.406  0.00  0.00    +0.027 A 
ATOM      6  C   UNL     1       4.509  -0.876   3.865  0.00  0.00    +0.130 A 
ATOM      7  N   UNL     1       5.721  -0.686   3.356  0.00  0.00    -0.201 NA
ATOM      8  C   UNL     1       6.193  -1.503   2.426  0.00  0.00    +0.198 A 
ATOM      9  N   UNL     1       5.480  -2.521   1.973  0.00  0.00    -0.331 N 
ATOM     10  N   UNL     1       7.461  -1.286   1.917  0.00  0.00    -0.298 N 
ATOM     11  C   UNL     1       7.964  -2.091   0.795  0.00  0.00    +0.127 C 
ATOM     12  C   UNL     1       8.401  -1.145  -0.330  0.00  0.00    +0.124 C 
ATOM     13  N   UNL     1       9.268  -0.106   0.241  0.00  0.00    -0.327 N 
ATOM     14  C   UNL     1       8.765   0.700   1.363  0.00  0.00    +0.124 C 
ATOM     15  C   UNL     1       8.327  -0.243   2.484  0.00  0.00    +0.127 C 
ATOM     16  C   UNL     1       2.376  -2.164   4.003  0.00  0.00    +0.149 C 
ATOM     17  H   UNL     1       5.857  -3.099   1.290  0.00  0.00    +0.168 HD
ENDROOT
BRANCH  13  18
ATOM     18  C   UNL     1      10.550   0.113  -0.274  0.00  0.00    +0.030 A 
ATOM     19  C   UNL     1      11.407   1.008   0.353  0.00  0.00    +0.026 A 
ATOM     20  C   UNL     1      12.673   1.223  -0.157  0.00  0.00    +0.040 A 
ATOM     21  C   UNL     1      13.087   0.546  -1.292  0.00  0.00    +0.124 A 
ATOM     22  C   UNL     1      12.234  -0.347  -1.918  0.00  0.00    +0.040 A 
ATOM     23  C   UNL     1      10.969  -0.568  -1.409  0.00  0.00    +0.026 A 
ATOM     24  F   UNL     1      14.325   0.758  -1.789  0.00  0.00    -0.205 F 
ENDBRANCH  13  18
BRANCH   1  25
ATOM     25  S   UNL     1       0.053  -2.941   2.809  0.00  0.00    +0.061 S 
ATOM     26  O   UNL     1      -0.490  -2.043   3.767  0.00  0.00    -0.153 OA
ATOM     27  O   UNL     1      -0.493  -4.233   2.580  0.00  0.00    -0.153 OA
BRANCH  25  33
ATOM     28  C   UNL     1      -0.018   1.446  -0.033  0.00  0.00    +0.044 C 
ATOM     29  C   UNL     1      -0.007  -0.061   0.008  0.00  0.00    -0.049 A 
ATOM     30  C   UNL     1      -0.018  -0.784  -1.170  0.00  0.00    +0.003 A 
ATOM     31  C   UNL     1      -0.008  -2.166  -1.133  0.00  0.00    +0.002 A 
ATOM     32  C   UNL     1       0.014  -2.825   0.082  0.00  0.00    +0.028 A 
ATOM     33  C   UNL     1       0.026  -2.101   1.260  0.00  0.00    +0.106 A 
ATOM     34  C   UNL     1       0.020  -0.719   1.223  0.00  0.00    +0.032 A 
ENDBRANCH  25  33
ENDBRANCH   1  25
BRANCH   6  35
ATOM     35  N   UNL     1       4.016  -0.022   4.837  0.00  0.00    -0.321 N 
ATOM     36  C   UNL     1       4.154  -0.366   6.254  0.00  0.00    +0.130 C 
ATOM     37  C   UNL     1       3.355   1.227   4.449  0.00  0.00    +0.130 C 
ENDBRANCH   6  35
TORSDOF 4
