REMARK  Name = ZINC09113473
REMARK  10 active torsions:
REMARK  status: ('A' for Active; 'I' for Inactive)
REMARK    1  A    between atoms: C_1  and  C_2
REMARK    2  A    between atoms: C_2  and  O_3
REMARK    3  A    between atoms: O_3  and  C_4
REMARK    4  A    between atoms: C_7  and  C_12
REMARK    5  A    between atoms: C_9  and  O_10
REMARK    6  A    between atoms: O_10  and  C_11
REMARK    7  A    between atoms: C_25  and  C_31
REMARK    8  A    between atoms: C_26  and  C_27
REMARK    9  A    between atoms: C_27  and  O_29
REMARK   10  A    between atoms: O_29  and  C_30
REMARK                            x       y       z     vdW  Elec       q    Type
REMARK                         _______ _______ _______ _____ _____    ______ ____
ROOT
ATOM      1  C   UNL     1       2.533  -2.773  -0.175  0.00  0.00    +0.094 C 
ATOM      2  C   UNL     1       3.255  -2.486   1.117  0.00  0.00    +0.034 C 
ATOM      3  C   UNL     1       4.380  -1.702   1.175  0.00  0.00    +0.047 C 
ATOM      4  C   UNL     1       4.830  -1.617   2.568  0.00  0.00    +0.007 A 
ATOM      5  C   UNL     1       5.898  -0.959   3.158  0.00  0.00    +0.010 A 
ATOM      6  C   UNL     1       6.040  -1.093   4.541  0.00  0.00    +0.001 A 
ATOM      7  C   UNL     1       5.166  -1.842   5.293  0.00  0.00    +0.001 A 
ATOM      8  C   UNL     1       4.084  -2.513   4.714  0.00  0.00    +0.012 A 
ATOM      9  C   UNL     1       3.931  -2.388   3.347  0.00  0.00    +0.031 A 
ATOM     10  C   UNL     1       2.926  -2.942   2.413  0.00  0.00    +0.193 C 
ATOM     11  O   UNL     1       1.988  -3.658   2.707  0.00  0.00    -0.287 OA
ATOM     12  N   UNL     1       4.923  -1.130   0.045  0.00  0.00    -0.317 N 
ATOM     13  C   UNL     1       4.489  -1.575  -1.177  0.00  0.00    +0.016 C 
ATOM     14  C   UNL     1       3.397  -2.337  -1.328  0.00  0.00    +0.065 C 
ATOM     15  C   UNL     1       5.274  -1.189  -2.404  0.00  0.00    +0.061 C 
ATOM     16  H   UNL     1       5.682  -0.340   0.139  0.00  0.00    +0.152 HD
ENDROOT
BRANCH   1  20
ATOM     17  C   UNL     1      -1.162  -0.621  -0.261  0.00  0.00    +0.163 A 
ATOM     18  C   UNL     1      -1.161  -2.004  -0.350  0.00  0.00    +0.065 A 
ATOM     19  C   UNL     1       0.035  -2.697  -0.322  0.00  0.00    +0.026 A 
ATOM     20  C   UNL     1       1.232  -2.013  -0.205  0.00  0.00    -0.018 A 
ATOM     21  C   UNL     1       1.237  -0.633  -0.121  0.00  0.00    +0.055 A 
ATOM     22  C   UNL     1       0.041   0.067  -0.143  0.00  0.00    +0.162 A 
ATOM     23 BR   UNL     1       0.035  -4.584  -0.444  0.00  0.00    -0.050 Br
BRANCH  22  24
ATOM     24  O   UNL     1       0.045   1.424  -0.056  0.00  0.00    -0.491 OA
ATOM     25  C   UNL     1       1.317   2.063   0.064  0.00  0.00    +0.277 C 
ENDBRANCH  22  24
BRANCH  17  26
ATOM     26  O   UNL     1      -2.338   0.062  -0.288  0.00  0.00    -0.489 OA
BRANCH  26  28
ATOM     27  C   UNL     1      -4.745   0.226  -0.424  0.00  0.00    +0.048 C 
ATOM     28  C   UNL     1      -3.534  -0.709  -0.411  0.00  0.00    +0.226 C 
ENDBRANCH  26  28
ENDBRANCH  17  26
ENDBRANCH   1  20
BRANCH  14  29
ATOM     29  C   UNL     1       3.041  -2.752  -2.633  0.00  0.00    +0.337 C 
ATOM     30  O   UNL     1       3.653  -2.327  -3.595  0.00  0.00    -0.245 OA
BRANCH  29  31
ATOM     31  O   UNL     1       2.022  -3.619  -2.811  0.00  0.00    -0.465 OA
ATOM     32  C   UNL     1       1.717  -3.995  -4.155  0.00  0.00    +0.280 C 
ENDBRANCH  29  31
ENDBRANCH  14  29
TORSDOF 6
