REMARK  Name = ZINC20905979
REMARK  11 active torsions:
REMARK  status: ('A' for Active; 'I' for Inactive)
REMARK    1  A    between atoms: C_1  and  C_2
REMARK    2  A    between atoms: C_2  and  C_4
REMARK    3  A    between atoms: C_2  and  N_32
REMARK    4  A    between atoms: C_9  and  C_12
REMARK    5  A    between atoms: C_12  and  C_14
REMARK    6  A    between atoms: C_12  and  N_23
REMARK    7  A    between atoms: C_14  and  C_15
REMARK    8  A    between atoms: C_19  and  O_21
REMARK    9  A    between atoms: O_21  and  C_22
REMARK   10  A    between atoms: N_23  and  C_24
REMARK   11  A    between atoms: C_25  and  C_27
REMARK                            x       y       z     vdW  Elec       q    Type
REMARK                         _______ _______ _______ _____ _____    ______ ____
ROOT
ATOM      1  C   UNL     1      -0.279   4.619  -0.956  0.00  0.00    +0.084 C 
ENDROOT
BRANCH   1   7
ATOM      2  C   UNL     1      -2.492   9.480  -2.047  0.00  0.00    +0.233 C 
ATOM      3  O   UNL     1      -2.278   9.997  -3.123  0.00  0.00    -0.274 OA
ATOM      4  N   UNL     1      -1.592   8.627  -1.518  0.00  0.00    -0.300 N 
ATOM      5  C   UNL     1      -0.397   8.234  -2.277  0.00  0.00    +0.108 C 
ATOM      6  C   UNL     1      -0.329   6.705  -2.331  0.00  0.00    +0.024 C 
ATOM      7  C   UNL     1      -0.382   6.145  -0.908  0.00  0.00    +0.013 C 
ATOM      8  C   UNL     1      -1.704   6.546  -0.249  0.00  0.00    +0.024 C 
ATOM      9  C   UNL     1      -1.788   8.074  -0.171  0.00  0.00    +0.108 C 
BRANCH   2  11
ATOM     10  C   UNL     1      -3.438  10.628  -0.063  0.00  0.00    +0.034 C 
ATOM     11  C   UNL     1      -3.764   9.791  -1.302  0.00  0.00    +0.140 C 
BRANCH  11  12
ATOM     12  N   UNL     1      -4.673  10.545  -2.177  0.00  0.00    -0.287 NA
ATOM     13  C   UNL     1      -4.072  11.823  -2.584  0.00  0.00    +0.113 C 
ATOM     14  C   UNL     1      -5.024  12.547  -3.539  0.00  0.00    +0.175 C 
ATOM     15  O   UNL     1      -6.291  12.723  -2.900  0.00  0.00    -0.377 OA
ATOM     16  C   UNL     1      -6.905  11.498  -2.490  0.00  0.00    +0.175 C 
ATOM     17  C   UNL     1      -5.971  10.764  -1.524  0.00  0.00    +0.113 C 
ENDBRANCH  11  12
ENDBRANCH   2  11
ENDBRANCH   1   7
BRANCH   1  18
ATOM     18  N   UNL     1       0.987   4.235  -1.585  0.00  0.00    -0.294 N 
ATOM     19  C   UNL     1       0.981   3.428  -2.808  0.00  0.00    +0.132 C 
ATOM     20  C   UNL     1       2.156   4.623  -1.040  0.00  0.00    +0.282 C 
ATOM     21  O   UNL     1       2.161   5.350  -0.064  0.00  0.00    -0.267 OA
BRANCH  20  22
ATOM     22  C   UNL     1       3.423   4.168  -1.622  0.00  0.00    +0.189 A 
ATOM     23  C   UNL     1       4.667   4.380  -1.100  0.00  0.00    +0.054 A 
ATOM     24  C   UNL     1       5.581   3.776  -1.978  0.00  0.00    +0.042 A 
ATOM     25  C   UNL     1       4.864   3.229  -2.984  0.00  0.00    +0.196 A 
ATOM     26  O   UNL     1       3.564   3.463  -2.763  0.00  0.00    -0.458 OA
ENDBRANCH  20  22
ENDBRANCH   1  18
BRANCH   1  27
ATOM     27  C   UNL     1      -0.331   4.060   0.467  0.00  0.00    +0.058 C 
BRANCH  27  28
ATOM     28  C   UNL     1      -0.354   2.554   0.414  0.00  0.00    -0.042 A 
ATOM     29  C   UNL     1       0.833   1.844   0.427  0.00  0.00    +0.004 A 
ATOM     30  C   UNL     1       0.816   0.463   0.378  0.00  0.00    +0.004 A 
ATOM     31  C   UNL     1      -0.388  -0.213   0.317  0.00  0.00    +0.045 A 
ATOM     32  C   UNL     1      -1.580   0.497   0.299  0.00  0.00    +0.120 A 
ATOM     33  C   UNL     1      -1.560   1.883   0.354  0.00  0.00    +0.049 A 
BRANCH  32  34
ATOM     34  O   UNL     1      -2.765  -0.165   0.234  0.00  0.00    -0.495 OA
ATOM     35  C   UNL     1      -2.709  -1.592   0.185  0.00  0.00    +0.277 C 
ENDBRANCH  32  34
ENDBRANCH  27  28
ENDBRANCH   1  27
TORSDOF 8
