REMARK  Name = ZINC20241419
REMARK  8 active torsions:
REMARK  status: ('A' for Active; 'I' for Inactive)
REMARK    1  A    between atoms: C_1  and  C_2
REMARK    2  A    between atoms: C_8  and  N_10
REMARK    3  A    between atoms: N_10  and  C_11
REMARK    4  A    between atoms: N_10  and  C_12
REMARK    5  A    between atoms: C_18  and  C_20
REMARK    6  A    between atoms: C_20  and  N_21
REMARK    7  A    between atoms: C_22  and  C_24
REMARK    8  A    between atoms: C_25  and  C_26
REMARK                            x       y       z     vdW  Elec       q    Type
REMARK                         _______ _______ _______ _____ _____    ______ ____
ROOT
ATOM      1  C   UNL     1      -4.715   2.317  -0.850  0.00  0.00    -0.066 C 
ATOM      2  C   UNL     1      -4.576   3.840  -0.791  0.00  0.00    +0.004 C 
ATOM      3  C   UNL     1      -5.436   4.470  -1.890  0.00  0.00    +0.106 C 
ATOM      4  N   UNL     1      -6.816   3.985  -1.748  0.00  0.00    -0.300 N 
ATOM      5  C   UNL     1      -7.053   2.535  -1.701  0.00  0.00    +0.106 C 
ATOM      6  C   UNL     1      -6.174   1.926  -0.604  0.00  0.00    +0.004 C 
ATOM      7  C   UNL     1      -7.843   4.852  -1.661  0.00  0.00    +0.233 C 
ATOM      8  O   UNL     1      -8.978   4.439  -1.544  0.00  0.00    -0.274 OA
ENDROOT
BRANCH   1   9
ATOM      9  N   UNL     1      -3.865   1.707   0.181  0.00  0.00    +0.382 N 
ATOM     10  C   UNL     1      -4.147   2.282   1.504  0.00  0.00    -0.095 C 
ATOM     11  H   UNL     1      -4.101   0.633   0.222  0.00  0.00    -0.081 HD
BRANCH   9  18
ATOM     12  C   UNL     1      -1.822   0.660   1.951  0.00  0.00    +0.006 C 
ATOM     13  C   UNL     1      -1.661   0.668   0.430  0.00  0.00    -0.028 C 
ATOM     14  C   UNL     1      -0.180   0.811   0.074  0.00  0.00    +0.002 C 
ATOM     15  C   UNL     1      -0.019   0.819  -1.447  0.00  0.00    +0.000 C 
ATOM     16  C   UNL     1      -0.800   1.995  -2.036  0.00  0.00    -0.002 C 
ATOM     17  C   UNL     1      -2.282   1.852  -1.681  0.00  0.00    -0.015 C 
ATOM     18  C   UNL     1      -2.443   1.844  -0.160  0.00  0.00    -0.066 C 
ENDBRANCH   9  18
ENDBRANCH   1   9
BRANCH   7  19
ATOM     19  C   UNL     1      -7.584   6.335  -1.710  0.00  0.00    +0.200 C 
BRANCH  19  20
ATOM     20  N   UNL     1      -8.853   7.058  -1.598  0.00  0.00    -0.303 N 
ATOM     21  C   UNL     1      -8.866   8.405  -1.619  0.00  0.00    +0.237 C 
ATOM     22  O   UNL     1      -7.823   9.022  -1.730  0.00  0.00    -0.271 OA
ATOM     23  H   UNL     1      -9.796   6.500  -1.498  0.00  0.00    +0.149 HD
BRANCH  21  24
ATOM     24  C   UNL     1     -10.134   9.127  -1.506  0.00  0.00    +0.068 C 
ATOM     25  C   UNL     1     -10.147  10.475  -1.527  0.00  0.00    +0.016 C 
BRANCH  25  26
ATOM     26  C   UNL     1     -11.422  11.200  -1.414  0.00  0.00    +0.012 A 
ATOM     27  C   UNL     1     -12.501  10.860  -2.239  0.00  0.00    +0.049 A 
ATOM     28  C   UNL     1     -13.695  11.541  -2.122  0.00  0.00    +0.020 A 
ATOM     29  C   UNL     1     -13.825  12.566  -1.202  0.00  0.00    +0.003 A 
ATOM     30  C   UNL     1     -12.762  12.914  -0.387  0.00  0.00    +0.020 A 
ATOM     31  C   UNL     1     -11.562  12.239  -0.486  0.00  0.00    +0.049 A 
ATOM     32 CL   UNL     1     -10.230  12.676   0.539  0.00  0.00    -0.083 Cl
ATOM     33 CL   UNL     1     -12.339   9.579  -3.400  0.00  0.00    -0.083 Cl
ENDBRANCH  25  26
ENDBRANCH  21  24
ENDBRANCH  19  20
ENDBRANCH   7  19
TORSDOF 6
