REMARK  Name = ZINC58238173
REMARK  7 active torsions:
REMARK  status: ('A' for Active; 'I' for Inactive)
REMARK    1  A    between atoms: C_1  and  N_2
REMARK    2  A    between atoms: C_3  and  C_20
REMARK    3  A    between atoms: C_6  and  S_7
REMARK    4  A    between atoms: S_7  and  C_8
REMARK    5  A    between atoms: C_8  and  C_9
REMARK    6  A    between atoms: N_11  and  C_12
REMARK    7  A    between atoms: C_20  and  C_21
REMARK                            x       y       z     vdW  Elec       q    Type
REMARK                         _______ _______ _______ _____ _____    ______ ____
ROOT
ATOM      1  C   UNL     1      -0.018   1.461   0.010  0.00  0.00    +0.152 C 
ATOM      2  N   UNL     1       0.002  -0.004   0.002  0.00  0.00    -0.309 N 
ATOM      3  C   UNL     1       0.008  -0.824  -1.093  0.00  0.00    +0.134 A 
ATOM      4  N   UNL     1       0.028  -2.052  -0.657  0.00  0.00    -0.134 NA
ATOM      5  N   UNL     1       0.034  -2.064   0.628  0.00  0.00    -0.123 NA
ATOM      6  C   UNL     1       0.024  -0.834   1.086  0.00  0.00    +0.192 A 
ENDROOT
BRANCH   6   7
ATOM      7  S   UNL     1       0.034  -0.347   2.779  0.00  0.00    -0.077 S 
BRANCH   7   8
ATOM      8  C   UNL     1       0.064  -1.917   3.688  0.00  0.00    +0.173 C 
BRANCH   8   9
ATOM      9  C   UNL     1       0.075  -1.639   5.169  0.00  0.00    +0.224 C 
ATOM     10  O   UNL     1       0.063  -0.496   5.572  0.00  0.00    -0.275 OA
ATOM     11  N   UNL     1       0.098  -2.663   6.046  0.00  0.00    -0.312 N 
ATOM     12  H   UNL     1       0.107  -3.578   5.723  0.00  0.00    +0.149 HD
BRANCH  11  13
ATOM     13  C   UNL     1       0.108  -2.393   7.486  0.00  0.00    +0.073 C 
ATOM     14  C   UNL     1       1.547  -2.156   7.950  0.00  0.00    +0.022 C 
ATOM     15  C   UNL     1       1.535  -1.495   9.330  0.00  0.00    +0.002 C 
ATOM     16  C   UNL     1       0.484  -0.383   9.354  0.00  0.00    +0.000 C 
ATOM     17  C   UNL     1      -0.648  -0.772  10.306  0.00  0.00    +0.000 C 
ATOM     18  C   UNL     1      -1.540  -1.819   9.637  0.00  0.00    +0.000 C 
ATOM     19  C   UNL     1      -0.837  -3.178   9.661  0.00  0.00    +0.002 C 
ATOM     20  C   UNL     1      -0.478  -3.593   8.233  0.00  0.00    +0.022 C 
ENDBRANCH  11  13
ENDBRANCH   8   9
ENDBRANCH   7   8
ENDBRANCH   6   7
BRANCH   3  21
ATOM     21  C   UNL     1      -0.005  -0.388  -2.535  0.00  0.00    +0.081 C 
BRANCH  21  22
ATOM     22  C   UNL     1       1.433  -0.219  -3.030  0.00  0.00    +0.019 C 
ATOM     23  C   UNL     1       2.134  -1.587  -3.036  0.00  0.00    +0.028 C 
ATOM     24  C   UNL     1       3.466  -1.446  -3.828  0.00  0.00    +0.166 C 
ATOM     25  S   UNL     1       2.917  -0.374  -5.222  0.00  0.00    -0.031 S 
ATOM     26  O   UNL     1       2.521  -1.197  -6.310  0.00  0.00    -0.174 OA
ATOM     27  O   UNL     1       3.885   0.644  -5.431  0.00  0.00    -0.174 OA
ATOM     28  C   UNL     1       1.417   0.370  -4.461  0.00  0.00    +0.170 C 
ENDBRANCH  21  22
ENDBRANCH   3  21
TORSDOF 6
