REMARK  Name = ZINC06199023
REMARK  8 active torsions:
REMARK  status: ('A' for Active; 'I' for Inactive)
REMARK    1  A    between atoms: C_1  and  C_2
REMARK    2  A    between atoms: C_5  and  S_8
REMARK    3  A    between atoms: S_8  and  N_11
REMARK    4  A    between atoms: N_11  and  C_12
REMARK    5  A    between atoms: C_24  and  S_26
REMARK    6  A    between atoms: S_26  and  C_27
REMARK    7  A    between atoms: C_30  and  C_33
REMARK    8  A    between atoms: N_31  and  N_32
REMARK                            x       y       z     vdW  Elec       q    Type
REMARK                         _______ _______ _______ _____ _____    ______ ____
ROOT
ATOM      1  C   UNL     1       2.581   2.070  -5.271  0.00  0.00    +0.125 C 
ATOM      2  C   UNL     1       2.978   3.468  -5.677  0.00  0.00    -0.019 A 
ATOM      3  C   UNL     1       4.032   4.006  -6.350  0.00  0.00    +0.006 A 
ATOM      4  C   UNL     1       4.102   5.384  -6.566  0.00  0.00    +0.001 A 
ATOM      5  C   UNL     1       3.138   6.242  -6.122  0.00  0.00    +0.008 A 
ATOM      6  C   UNL     1       2.037   5.721  -5.424  0.00  0.00    -0.017 A 
ATOM      7  C   UNL     1       1.988   4.331  -5.219  0.00  0.00    -0.009 A 
ATOM      8  C   UNL     1       0.945   3.708  -4.541  0.00  0.00    -0.024 A 
ATOM      9  C   UNL     1      -0.062   4.488  -4.062  0.00  0.00    +0.005 A 
ATOM     10  C   UNL     1      -0.034   5.872  -4.253  0.00  0.00    +0.001 A 
ATOM     11  C   UNL     1       0.982   6.497  -4.916  0.00  0.00    +0.008 A 
ATOM     12  C   UNL     1       1.240   2.228  -4.522  0.00  0.00    +0.108 C 
ENDROOT
BRANCH   1  13
ATOM     13  N   UNL     1       2.404   1.228  -6.457  0.00  0.00    -0.181 NA
ATOM     14  H   UNL     1       1.577   1.269  -6.962  0.00  0.00    +0.149 HD
BRANCH  13  15
ATOM     15  S   UNL     1       3.616   0.205  -6.935  0.00  0.00    +0.059 S 
ATOM     16  O   UNL     1       3.137  -0.483  -8.082  0.00  0.00    -0.153 OA
ATOM     17  O   UNL     1       4.812   0.972  -6.950  0.00  0.00    -0.153 OA
BRANCH  15  22
ATOM     18  C   UNL     1       4.276  -3.932  -2.593  0.00  0.00    +0.044 C 
ATOM     19  C   UNL     1       4.112  -2.899  -3.678  0.00  0.00    -0.050 A 
ATOM     20  C   UNL     1       3.231  -3.124  -4.719  0.00  0.00    +0.005 A 
ATOM     21  C   UNL     1       3.079  -2.176  -5.714  0.00  0.00    +0.029 A 
ATOM     22  C   UNL     1       3.809  -1.003  -5.667  0.00  0.00    +0.105 A 
ATOM     23  C   UNL     1       4.693  -0.780  -4.628  0.00  0.00    +0.029 A 
ATOM     24  C   UNL     1       4.841  -1.725  -3.631  0.00  0.00    +0.005 A 
ENDBRANCH  15  22
ENDBRANCH  13  15
ENDBRANCH   1  13
BRANCH  12  25
ATOM     25  S   UNL     1       1.401   1.642  -2.817  0.00  0.00    -0.076 S 
BRANCH  25  26
ATOM     26  C   UNL     1      -0.270   1.799  -2.280  0.00  0.00    +0.187 A 
ATOM     27  N   UNL     1      -1.273   2.231  -3.008  0.00  0.00    -0.228 NA
ATOM     28  C   UNL     1      -2.395   2.222  -2.269  0.00  0.00    +0.145 A 
ATOM     29  C   UNL     1      -2.090   1.766  -1.042  0.00  0.00    +0.161 A 
ATOM     30  N   UNL     1      -0.741   1.490  -1.041  0.00  0.00    -0.239 N 
BRANCH  29  31
ATOM     31  C   UNL     1      -3.043   1.588   0.111  0.00  0.00    +0.436 C 
ATOM     32  F   UNL     1      -3.087   2.766   0.865  0.00  0.00    -0.164 F 
ATOM     33  F   UNL     1      -4.321   1.301  -0.379  0.00  0.00    -0.164 F 
ATOM     34  F   UNL     1      -2.605   0.533   0.919  0.00  0.00    -0.164 F 
ENDBRANCH  29  31
BRANCH  30  35
ATOM     35  N   UNL     1      -0.012   1.005   0.008  0.00  0.00    -0.296 N 
ATOM     36  H   UNL     1       0.002  -0.004   0.002  0.00  0.00    +0.163 HD
ATOM     37  H   UNL     1       0.925   1.379   0.001  0.00  0.00    +0.163 HD
ENDBRANCH  30  35
ENDBRANCH  25  26
ENDBRANCH  12  25
TORSDOF 7
