REMARK  Name = ZINC38677581
REMARK  10 active torsions:
REMARK  status: ('A' for Active; 'I' for Inactive)
REMARK    1  A    between atoms: C_1  and  C_2
REMARK    2  A    between atoms: C_2  and  O_3
REMARK    3  A    between atoms: O_3  and  C_4
REMARK    4  A    between atoms: C_9  and  O_10
REMARK    5  A    between atoms: O_10  and  C_11
REMARK    6  A    between atoms: C_15  and  C_17
REMARK    7  A    between atoms: C_20  and  O_24
REMARK    8  A    between atoms: C_22  and  O_23
REMARK    9  A    between atoms: O_24  and  C_25
REMARK   10  A    between atoms: C_25  and  C_26
REMARK                            x       y       z     vdW  Elec       q    Type
REMARK                         _______ _______ _______ _____ _____    ______ ____
ROOT
ATOM      1  C   UNL     1      -6.707  -0.917  -1.202  0.00  0.00    +0.025 A 
ATOM      2  C   UNL     1      -7.424  -1.509  -2.224  0.00  0.00    +0.013 A 
ATOM      3  C   UNL     1      -7.663  -0.816  -3.395  0.00  0.00    +0.046 A 
ATOM      4  C   UNL     1      -7.182   0.477  -3.548  0.00  0.00    +0.124 A 
ATOM      5  C   UNL     1      -6.462   1.073  -2.524  0.00  0.00    +0.091 A 
ATOM      6  C   UNL     1      -6.229   0.377  -1.348  0.00  0.00    +0.126 A 
ENDROOT
BRANCH   1  11
ATOM      7  C   UNL     1      -5.043  -2.253   0.081  0.00  0.00    +0.154 C 
ATOM      8  C   UNL     1      -5.246  -3.584   0.155  0.00  0.00    +0.176 C 
ATOM      9  N   UNL     1      -6.554  -3.863   0.187  0.00  0.00    -0.182 NA
ATOM     10  N   UNL     1      -7.295  -2.879   0.144  0.00  0.00    -0.294 N 
ATOM     11  C   UNL     1      -6.448  -1.676   0.074  0.00  0.00    +0.199 C 
ATOM     12  H   UNL     1      -8.265  -2.894   0.156  0.00  0.00    +0.184 HD
BRANCH   7  13
ATOM     13  O   UNL     1      -3.868  -1.590   0.031  0.00  0.00    -0.453 OA
BRANCH  13  19
ATOM     14  C   UNL     1      -2.381  -0.025   1.043  0.00  0.00    +0.162 A 
ATOM     15  C   UNL     1      -2.042   0.769   2.127  0.00  0.00    +0.049 A 
ATOM     16  C   UNL     1      -2.839   0.774   3.256  0.00  0.00    +0.004 A 
ATOM     17  C   UNL     1      -3.974  -0.013   3.309  0.00  0.00    +0.004 A 
ATOM     18  C   UNL     1      -4.319  -0.808   2.232  0.00  0.00    +0.050 A 
ATOM     19  C   UNL     1      -3.528  -0.813   1.093  0.00  0.00    +0.170 A 
BRANCH  14  20
ATOM     20  O   UNL     1      -1.599  -0.031  -0.069  0.00  0.00    -0.489 OA
BRANCH  20  22
ATOM     21  C   UNL     1       0.311   0.663  -1.376  0.00  0.00    +0.048 C 
ATOM     22  C   UNL     1      -0.438   0.802  -0.049  0.00  0.00    +0.226 C 
ENDBRANCH  20  22
ENDBRANCH  14  20
ENDBRANCH  13  19
ENDBRANCH   7  13
ENDBRANCH   1  11
BRANCH   6  23
ATOM     23  O   UNL     1      -5.528   0.961  -0.340  0.00  0.00    -0.506 OA
ATOM     24  H   UNL     1      -4.573   0.814  -0.389  0.00  0.00    +0.292 HD
ENDBRANCH   6  23
BRANCH   4  25
ATOM     25  O   UNL     1      -7.417   1.159  -4.700  0.00  0.00    -0.487 OA
BRANCH  25  26
ATOM     26  C   UNL     1      -8.166   0.483  -5.712  0.00  0.00    +0.268 C 
BRANCH  26  27
ATOM     27  C   UNL     1      -8.325   1.387  -6.907  0.00  0.00    +0.043 A 
ATOM     28  C   UNL     1      -9.413   2.240  -6.990  0.00  0.00    +0.131 A 
ATOM     29  C   UNL     1      -9.558   3.070  -8.089  0.00  0.00    +0.039 A 
ATOM     30  C   UNL     1      -8.618   3.047  -9.102  0.00  0.00    +0.004 A 
ATOM     31  C   UNL     1      -7.532   2.196  -9.019  0.00  0.00    +0.020 A 
ATOM     32  C   UNL     1      -7.382   1.369  -7.919  0.00  0.00    +0.050 A 
ATOM     33 CL   UNL     1      -6.014   0.306  -7.812  0.00  0.00    -0.083 Cl
ATOM     34  F   UNL     1     -10.332   2.261  -6.001  0.00  0.00    -0.205 F 
ENDBRANCH  26  27
ENDBRANCH  25  26
ENDBRANCH   4  25
TORSDOF 9
