REMARK  Name = ZINC66121038
REMARK  7 active torsions:
REMARK  status: ('A' for Active; 'I' for Inactive)
REMARK    1  A    between atoms: C_1  and  C_2
REMARK    2  A    between atoms: C_10  and  C_11
REMARK    3  A    between atoms: C_11  and  C_13
REMARK    4  A    between atoms: C_11  and  N_14
REMARK    5  A    between atoms: C_21  and  C_24
REMARK    6  A    between atoms: C_24  and  C_25
REMARK    7  A    between atoms: C_25  and  C_26
REMARK                            x       y       z     vdW  Elec       q    Type
REMARK                         _______ _______ _______ _____ _____    ______ ____
ROOT
ATOM      1  N   UNL     1       1.024  -1.119   3.259  0.00  0.00    -0.290 N 
ATOM      2  C   UNL     1       1.577  -0.595   4.370  0.00  0.00    +0.303 C 
ATOM      3  O   UNL     1       1.320   0.548   4.697  0.00  0.00    -0.253 OA
ATOM      4  N   UNL     1       2.415  -1.337   5.121  0.00  0.00    -0.285 N 
ATOM      5  C   UNL     1       2.827  -2.677   4.680  0.00  0.00    +0.109 C 
ATOM      6  C   UNL     1       2.532  -3.678   5.801  0.00  0.00    +0.019 C 
ATOM      7  C   UNL     1       3.207  -3.205   7.091  0.00  0.00    +0.006 C 
ATOM      8  C   UNL     1       2.638  -1.844   7.497  0.00  0.00    +0.007 C 
ATOM      9  C   UNL     1       2.939  -0.820   6.392  0.00  0.00    +0.112 C 
ATOM     10  H   UNL     1       1.285  -2.003   2.958  0.00  0.00    +0.151 HD
ENDROOT
BRANCH   1  11
ATOM     11  C   UNL     1       0.029  -0.353   2.505  0.00  0.00    +0.138 C 
ATOM     12  C   UNL     1      -1.355  -0.572   3.119  0.00  0.00    +0.036 C 
BRANCH  11  22
ATOM     13  C   UNL     1      -0.024   1.502   0.012  0.00  0.00    +0.048 C 
ATOM     14  C   UNL     1      -0.003  -0.005   0.004  0.00  0.00    +0.000 A 
ATOM     15  C   UNL     1       0.004  -0.880  -1.175  0.00  0.00    +0.023 A 
ATOM     16  C   UNL     1      -0.006  -0.661  -2.552  0.00  0.00    +0.012 A 
ATOM     17  C   UNL     1       0.004  -1.727  -3.408  0.00  0.00    +0.001 A 
ATOM     18  C   UNL     1       0.025  -3.024  -2.914  0.00  0.00    +0.004 A 
ATOM     19  C   UNL     1       0.036  -3.260  -1.556  0.00  0.00    +0.047 A 
ATOM     20  C   UNL     1       0.025  -2.190  -0.669  0.00  0.00    +0.136 A 
ATOM     21  O   UNL     1       0.031  -2.100   0.676  0.00  0.00    -0.458 OA
ATOM     22  C   UNL     1       0.020  -0.815   1.071  0.00  0.00    +0.129 A 
ENDBRANCH  11  22
ENDBRANCH   1  11
BRANCH   8  23
ATOM     23  C   UNL     1       3.289  -1.388   8.805  0.00  0.00    +0.014 C 
BRANCH  23  24
ATOM     24  C   UNL     1       2.632  -0.089   9.276  0.00  0.00    +0.096 C 
BRANCH  24  25
ATOM     25  C   UNL     1       3.273   0.360  10.564  0.00  0.00    +0.210 C 
ATOM     26  O   UNL     1       4.167  -0.295  11.057  0.00  0.00    -0.276 OA
ATOM     27  N   UNL     1       2.853   1.489  11.168  0.00  0.00    -0.329 N 
ATOM     28  H   UNL     1       2.138   2.013  10.774  0.00  0.00    +0.145 HD
ATOM     29  H   UNL     1       3.265   1.778  11.997  0.00  0.00    +0.145 HD
ENDBRANCH  24  25
ENDBRANCH  23  24
ENDBRANCH   8  23
TORSDOF 5
