REMARK  Name = ZINC63625324
REMARK  8 active torsions:
REMARK  status: ('A' for Active; 'I' for Inactive)
REMARK    1  A    between atoms: C_1  and  C_2
REMARK    2  A    between atoms: C_7  and  N_8
REMARK    3  A    between atoms: C_9  and  C_11
REMARK    4  A    between atoms: C_11  and  S_12
REMARK    5  A    between atoms: S_12  and  C_13
REMARK    6  A    between atoms: C_18  and  C_31
REMARK    7  A    between atoms: N_23  and  C_24
REMARK    8  A    between atoms: C_24  and  C_25
REMARK                            x       y       z     vdW  Elec       q    Type
REMARK                         _______ _______ _______ _____ _____    ______ ____
ROOT
ATOM      1  C   UNL     1      -0.389  -0.084   7.729  0.00  0.00    +0.255 C 
ATOM      2  N   UNL     1       0.867   0.663   7.844  0.00  0.00    -0.249 NA
ATOM      3  C   UNL     1       0.861   1.954   7.875  0.00  0.00    +0.094 C 
ATOM      4  C   UNL     1       1.897   2.997   7.980  0.00  0.00    +0.058 C 
ATOM      5  C   UNL     1       1.222   4.182   7.956  0.00  0.00    +0.074 C 
ATOM      6  N   UNL     1      -0.111   3.982   7.848  0.00  0.00    -0.240 NA
ATOM      7  C   UNL     1      -0.419   2.715   7.794  0.00  0.00    +0.151 C 
ATOM      8  C   UNL     1      -1.690   1.977   7.678  0.00  0.00    +0.270 C 
ATOM      9  O   UNL     1      -2.746   2.577   7.611  0.00  0.00    -0.268 OA
ATOM     10  N   UNL     1      -1.667   0.628   7.646  0.00  0.00    -0.261 N 
ENDROOT
BRANCH   5  11
ATOM     11  C   UNL     1       1.866   5.514   8.039  0.00  0.00    +0.000 A 
ATOM     12  C   UNL     1       3.253   5.616   8.143  0.00  0.00    +0.010 A 
ATOM     13  C   UNL     1       3.846   6.859   8.219  0.00  0.00    +0.001 A 
ATOM     14  C   UNL     1       3.068   8.003   8.192  0.00  0.00    +0.000 A 
ATOM     15  C   UNL     1       1.692   7.908   8.088  0.00  0.00    +0.001 A 
ATOM     16  C   UNL     1       1.087   6.671   8.006  0.00  0.00    +0.010 A 
ENDBRANCH   5  11
BRANCH   1  17
ATOM     17  S   UNL     1      -0.260  -1.130   6.253  0.00  0.00    -0.106 S 
BRANCH  17  18
ATOM     18  C   UNL     1      -0.169   0.055   4.882  0.00  0.00    +0.168 C 
BRANCH  18  20
ATOM     19  N   UNL     1       0.025  -0.013   2.417  0.00  0.00    -0.285 N 
ATOM     20  C   UNL     1      -0.057  -0.692   3.578  0.00  0.00    +0.227 C 
ATOM     21  O   UNL     1      -0.040  -1.905   3.574  0.00  0.00    -0.275 OA
ATOM     22  H   UNL     1       0.077   0.955   2.424  0.00  0.00    +0.155 HD
BRANCH  19  29
ATOM     23  C   UNL     1      -1.266   1.182   0.182  0.00  0.00    +0.045 C 
ATOM     24  C   UNL     1      -0.585  -0.158   0.085  0.00  0.00    -0.029 A 
ATOM     25  C   UNL     1      -0.571  -0.841  -1.117  0.00  0.00    +0.008 A 
ATOM     26  C   UNL     1       0.054  -2.070  -1.208  0.00  0.00    +0.039 A 
ATOM     27  C   UNL     1       0.667  -2.623  -0.095  0.00  0.00    +0.125 A 
ATOM     28  C   UNL     1       0.656  -1.944   1.110  0.00  0.00    +0.062 A 
ATOM     29  C   UNL     1       0.034  -0.706   1.201  0.00  0.00    +0.039 A 
ATOM     30  F   UNL     1       1.277  -3.825  -0.187  0.00  0.00    -0.205 F 
ENDBRANCH  19  29
ENDBRANCH  18  20
ENDBRANCH  17  18
ENDBRANCH   1  17
BRANCH  10  31
ATOM     31  C   UNL     1      -2.919  -0.123   7.531  0.00  0.00    +0.146 C 
BRANCH  31  32
ATOM     32  C   UNL     1      -3.459  -0.415   8.907  0.00  0.00    -0.030 A 
ATOM     33  C   UNL     1      -3.088  -1.573   9.564  0.00  0.00    +0.005 A 
ATOM     34  C   UNL     1      -3.583  -1.841  10.827  0.00  0.00    +0.000 A 
ATOM     35  C   UNL     1      -4.449  -0.950  11.433  0.00  0.00    +0.000 A 
ATOM     36  C   UNL     1      -4.819   0.209  10.776  0.00  0.00    +0.000 A 
ATOM     37  C   UNL     1      -4.321   0.478   9.515  0.00  0.00    +0.005 A 
ENDBRANCH  31  32
ENDBRANCH  10  31
TORSDOF 7
