REMARK  Name = ZINC22347897
REMARK  11 active torsions:
REMARK  status: ('A' for Active; 'I' for Inactive)
REMARK    1  A    between atoms: C_1  and  S_2
REMARK    2  A    between atoms: S_2  and  N_5
REMARK    3  A    between atoms: N_5  and  C_6
REMARK    4  A    between atoms: N_5  and  C_26
REMARK    5  A    between atoms: C_6  and  C_7
REMARK    6  A    between atoms: N_9  and  C_10
REMARK    7  A    between atoms: C_10  and  C_11
REMARK    8  A    between atoms: C_14  and  O_17
REMARK    9  A    between atoms: O_17  and  C_18
REMARK   10  A    between atoms: C_18  and  C_19
REMARK   11  A    between atoms: C_30  and  N_32
REMARK                            x       y       z     vdW  Elec       q    Type
REMARK                         _______ _______ _______ _____ _____    ______ ____
ROOT
ATOM      1  C   UNL     1       2.179   4.244  -2.058  0.00  0.00    +0.232 C 
ATOM      2  O   UNL     1       1.246   3.693  -2.604  0.00  0.00    -0.274 OA
ATOM      3  N   UNL     1       3.114   4.874  -2.797  0.00  0.00    -0.310 N 
ATOM      4  H   UNL     1       3.960   5.374  -2.302  0.00  0.00    +0.149 HD
ENDROOT
BRANCH   1   5
ATOM      5  C   UNL     1       2.292   4.225  -0.556  0.00  0.00    +0.226 C 
BRANCH   5   6
ATOM      6  N   UNL     1       1.162   3.483   0.009  0.00  0.00    -0.199 N 
BRANCH   6   7
ATOM      7  C   UNL     1       1.225   2.092   0.120  0.00  0.00    +0.054 A 
ATOM      8  C   UNL     1       2.188   1.501   0.928  0.00  0.00    +0.025 A 
ATOM      9  C   UNL     1       2.248   0.126   1.036  0.00  0.00    +0.004 A 
ATOM     10  C   UNL     1       1.351  -0.663   0.339  0.00  0.00    +0.033 A 
ATOM     11  C   UNL     1       0.391  -0.079  -0.466  0.00  0.00    +0.128 A 
ATOM     12  C   UNL     1       0.326   1.297  -0.578  0.00  0.00    +0.057 A 
BRANCH  11  13
ATOM     13  N   UNL     1      -0.566  -0.927  -1.210  0.00  0.00    +0.056 N 
ATOM     14  O   UNL     1      -1.412  -0.412  -1.921  0.00  0.00    -0.126 OA
ATOM     15  O   UNL     1      -0.509  -2.140  -1.113  0.00  0.00    -0.126 OA
ENDBRANCH  11  13
ENDBRANCH   6   7
BRANCH   6  17
ATOM     16  C   UNL     1       0.163   4.758   2.234  0.00  0.00    +0.218 C 
ATOM     17  S   UNL     1      -0.190   4.293   0.516  0.00  0.00    +0.043 S 
ATOM     18  O   UNL     1      -0.246   5.453  -0.303  0.00  0.00    -0.155 OA
ATOM     19  O   UNL     1      -1.230   3.326   0.475  0.00  0.00    -0.155 OA
ENDBRANCH   6  17
ENDBRANCH   5   6
ENDBRANCH   1   5
BRANCH   3  20
ATOM     20  C   UNL     1       3.004   4.893  -4.257  0.00  0.00    +0.139 C 
BRANCH  20  21
ATOM     21  C   UNL     1       4.167   5.656  -4.839  0.00  0.00    -0.030 A 
ATOM     22  C   UNL     1       4.062   7.019  -5.049  0.00  0.00    +0.009 A 
ATOM     23  C   UNL     1       5.128   7.721  -5.577  0.00  0.00    +0.046 A 
ATOM     24  C   UNL     1       6.300   7.057  -5.906  0.00  0.00    +0.121 A 
ATOM     25  C   UNL     1       6.401   5.689  -5.699  0.00  0.00    +0.046 A 
ATOM     26  C   UNL     1       5.334   4.992  -5.166  0.00  0.00    +0.009 A 
BRANCH  24  27
ATOM     27  O   UNL     1       7.349   7.745  -6.430  0.00  0.00    -0.487 OA
BRANCH  27  28
ATOM     28  C   UNL     1       7.174   9.151  -6.615  0.00  0.00    +0.264 C 
BRANCH  28  29
ATOM     29  C   UNL     1       8.431   9.741  -7.201  0.00  0.00    -0.010 A 
ATOM     30  C   UNL     1       9.426  10.214  -6.366  0.00  0.00    +0.010 A 
ATOM     31  C   UNL     1      10.582  10.750  -6.902  0.00  0.00    +0.039 A 
ATOM     32  C   UNL     1      10.738  10.823  -8.276  0.00  0.00    +0.123 A 
ATOM     33  C   UNL     1       9.738  10.354  -9.111  0.00  0.00    +0.039 A 
ATOM     34  C   UNL     1       8.586   9.813  -8.573  0.00  0.00    +0.010 A 
ATOM     35  F   UNL     1      11.865  11.351  -8.801  0.00  0.00    -0.205 F 
ENDBRANCH  28  29
ENDBRANCH  27  28
ENDBRANCH  24  27
ENDBRANCH  20  21
ENDBRANCH   3  20
TORSDOF 10
