REMARK  Name = ZINC47535712
REMARK  6 active torsions:
REMARK  status: ('A' for Active; 'I' for Inactive)
REMARK    1  A    between atoms: C_1  and  C_2
REMARK    2  A    between atoms: C_2  and  C_4
REMARK    3  A    between atoms: C_2  and  N_16
REMARK    4  A    between atoms: C_17  and  C_19
REMARK    5  A    between atoms: C_24  and  C_25
REMARK    6  A    between atoms: C_25  and  C_27
REMARK                            x       y       z     vdW  Elec       q    Type
REMARK                         _______ _______ _______ _____ _____    ______ ____
ROOT
ATOM      1  N   UNL     1       0.786  -0.096   1.277  0.00  0.00    -0.305 N 
ATOM      2  C   UNL     1       2.115  -0.321   1.243  0.00  0.00    +0.245 C 
ATOM      3  O   UNL     1       2.759  -0.009   0.261  0.00  0.00    -0.270 OA
ATOM      4  H   UNL     1       0.272  -0.344   2.062  0.00  0.00    +0.150 HD
ENDROOT
BRANCH   2   5
ATOM      5  C   UNL     1       2.789  -0.946   2.401  0.00  0.00    +0.048 A 
ATOM      6  C   UNL     1       2.080  -1.195   3.574  0.00  0.00    +0.014 A 
ATOM      7  C   UNL     1       2.714  -1.780   4.653  0.00  0.00    +0.001 A 
ATOM      8  C   UNL     1       4.053  -2.123   4.578  0.00  0.00    +0.001 A 
ATOM      9  C   UNL     1       4.773  -1.883   3.423  0.00  0.00    +0.012 A 
ATOM     10  C   UNL     1       4.149  -1.299   2.323  0.00  0.00    +0.035 A 
BRANCH  10  11
ATOM     11  C   UNL     1       4.913  -1.046   1.082  0.00  0.00    +0.200 C 
ATOM     12  O   UNL     1       5.688  -0.109   1.025  0.00  0.00    -0.286 OA
BRANCH  11  13
ATOM     13  C   UNL     1       4.737  -1.921  -0.077  0.00  0.00    +0.059 A 
ATOM     14  C   UNL     1       5.414  -1.913  -1.292  0.00  0.00    +0.019 A 
ATOM     15  C   UNL     1       5.023  -2.869  -2.196  0.00  0.00    +0.008 A 
ATOM     16  C   UNL     1       4.033  -3.733  -1.858  0.00  0.00    +0.046 A 
ATOM     17  S   UNL     1       3.606  -3.281  -0.297  0.00  0.00    -0.093 S 
ENDBRANCH  11  13
ENDBRANCH  10  11
ENDBRANCH   2   5
BRANCH   1  19
ATOM     18  C   UNL     1       0.230   2.046   0.236  0.00  0.00    +0.033 C 
ATOM     19  C   UNL     1       0.118   0.524   0.130  0.00  0.00    +0.100 C 
BRANCH  19  20
ATOM     20  C   UNL     1      -1.335   0.127   0.120  0.00  0.00    -0.025 A 
ATOM     21  C   UNL     1      -2.042   0.068   1.310  0.00  0.00    +0.007 A 
ATOM     22  C   UNL     1      -3.374  -0.295   1.311  0.00  0.00    +0.028 A 
ATOM     23  C   UNL     1      -4.007  -0.602   0.116  0.00  0.00    +0.067 A 
ATOM     24  C   UNL     1      -3.295  -0.542  -1.084  0.00  0.00    +0.067 A 
ATOM     25  C   UNL     1      -1.958  -0.172  -1.075  0.00  0.00    +0.033 A 
ATOM     26  N   UNL     1      -4.182  -0.897  -2.097  0.00  0.00    -0.306 N 
ATOM     27  H   UNL     1      -3.973  -0.947  -3.043  0.00  0.00    +0.170 HD
ATOM     28  C   UNL     1      -5.379  -1.160  -1.540  0.00  0.00    +0.325 A 
ATOM     29  O   UNL     1      -6.376  -1.500  -2.149  0.00  0.00    -0.247 OA
ATOM     30  N   UNL     1      -5.305  -0.991  -0.206  0.00  0.00    -0.306 N 
ATOM     31  H   UNL     1      -6.032  -1.118   0.423  0.00  0.00    +0.170 HD
ENDBRANCH  19  20
ENDBRANCH   1  19
TORSDOF 5
