REMARK  Name = ZINC20716634
REMARK  9 active torsions:
REMARK  status: ('A' for Active; 'I' for Inactive)
REMARK    1  A    between atoms: C_1  and  C_2
REMARK    2  A    between atoms: C_2  and  C_3
REMARK    3  A    between atoms: C_2  and  C_4
REMARK    4  A    between atoms: C_4  and  C_5
REMARK    5  A    between atoms: C_5  and  C_7
REMARK    6  A    between atoms: C_5  and  N_11
REMARK    7  A    between atoms: C_7  and  O_9
REMARK    8  A    between atoms: O_9  and  C_10
REMARK    9  A    between atoms: C_23  and  C_25
REMARK                            x       y       z     vdW  Elec       q    Type
REMARK                         _______ _______ _______ _____ _____    ______ ____
ROOT
ATOM      1  N   UNL     1      -0.317  -4.248  -0.721  0.00  0.00    -0.286 N 
ATOM      2  C   UNL     1      -0.268  -3.456  -1.810  0.00  0.00    +0.304 C 
ATOM      3  O   UNL     1      -0.800  -2.363  -1.790  0.00  0.00    -0.253 OA
ATOM      4  N   UNL     1       0.369  -3.875  -2.921  0.00  0.00    -0.273 N 
ATOM      5  C   UNL     1       0.533  -2.982  -4.078  0.00  0.00    +0.116 C 
ATOM      6  C   UNL     1       2.026  -2.707  -4.292  0.00  0.00    +0.074 C 
ATOM      7  C   UNL     1       2.780  -4.006  -4.181  0.00  0.00    +0.040 A 
ATOM      8  C   UNL     1       2.299  -5.131  -3.610  0.00  0.00    +0.062 A 
ATOM      9  N   UNL     1       3.241  -6.073  -3.690  0.00  0.00    -0.348 N 
ATOM     10  C   UNL     1       4.291  -5.579  -4.293  0.00  0.00    +0.171 A 
ATOM     11  N   UNL     1       4.040  -4.289  -4.617  0.00  0.00    -0.349 N 
ATOM     12  H   UNL     1       4.643  -3.681  -5.072  0.00  0.00    +0.166 HD
ATOM     13  C   UNL     1       0.924  -5.238  -3.004  0.00  0.00    +0.159 C 
ATOM     14  H   UNL     1       0.044  -5.148  -0.760  0.00  0.00    +0.151 HD
ATOM     15  H   UNL     1       3.160  -6.980  -3.355  0.00  0.00    +0.167 HD
ENDROOT
BRANCH  13  16
ATOM     16  C   UNL     1       0.049  -6.097  -3.879  0.00  0.00    +0.014 A 
ATOM     17  C   UNL     1       0.617  -6.893  -4.856  0.00  0.00    +0.011 A 
ATOM     18  C   UNL     1      -0.185  -7.681  -5.660  0.00  0.00    +0.039 A 
ATOM     19  C   UNL     1      -1.559  -7.674  -5.487  0.00  0.00    +0.126 A 
ATOM     20  C   UNL     1      -2.129  -6.878  -4.509  0.00  0.00    +0.077 A 
ATOM     21  C   UNL     1      -1.324  -6.093  -3.701  0.00  0.00    +0.131 A 
ATOM     22  F   UNL     1      -1.879  -5.319  -2.742  0.00  0.00    -0.205 F 
ATOM     23  F   UNL     1      -2.343  -8.444  -6.273  0.00  0.00    -0.205 F 
ENDBRANCH  13  16
BRANCH   1  24
ATOM     24  C   UNL     1      -0.914  -3.751   0.521  0.00  0.00    +0.183 C 
BRANCH  24  25
ATOM     25  C   UNL     1       0.121  -2.984   1.303  0.00  0.00    +0.327 C 
ATOM     26  O   UNL     1       1.242  -2.865   0.868  0.00  0.00    -0.249 OA
BRANCH  25  27
ATOM     27  O   UNL     1      -0.203  -2.433   2.484  0.00  0.00    -0.467 OA
ATOM     28  C   UNL     1       0.827  -1.719   3.171  0.00  0.00    +0.280 C 
ENDBRANCH  25  27
ENDBRANCH  24  25
BRANCH  24  29
ATOM     29  C   UNL     1      -1.412  -4.932   1.356  0.00  0.00    +0.036 C 
BRANCH  29  31
ATOM     30  C   UNL     1      -2.964  -6.890   1.389  0.00  0.00    +0.007 C 
ATOM     31  C   UNL     1      -2.549  -5.638   0.614  0.00  0.00    -0.015 C 
ATOM     32  C   UNL     1      -3.746  -4.691   0.497  0.00  0.00    +0.007 C 
ENDBRANCH  29  31
ENDBRANCH  24  29
ENDBRANCH   1  24
TORSDOF 6
