REMARK  Name = ZINC20347860
REMARK  10 active torsions:
REMARK  status: ('A' for Active; 'I' for Inactive)
REMARK    1  A    between atoms: C_1  and  C_2
REMARK    2  A    between atoms: C_5  and  N_8
REMARK    3  A    between atoms: C_9  and  C_11
REMARK    4  A    between atoms: C_11  and  S_12
REMARK    5  A    between atoms: S_12  and  C_13
REMARK    6  A    between atoms: C_14  and  C_36
REMARK    7  A    between atoms: C_15  and  C_31
REMARK    8  A    between atoms: C_17  and  C_21
REMARK    9  A    between atoms: C_18  and  C_20
REMARK   10  A    between atoms: N_23  and  C_24
REMARK                            x       y       z     vdW  Elec       q    Type
REMARK                         _______ _______ _______ _____ _____    ______ ____
ROOT
ATOM      1  C   UNL     1       3.845  -6.544  -0.510  0.00  0.00    +0.080 C 
ATOM      2  C   UNL     1       4.911  -7.380  -0.628  0.00  0.00    +0.072 C 
ATOM      3  C   UNL     1       4.725  -8.867  -0.747  0.00  0.00    +0.134 C 
ATOM      4  C   UNL     1       3.339  -9.267  -0.331  0.00  0.00    +0.047 C 
ATOM      5  C   UNL     1       2.346  -8.369  -0.227  0.00  0.00    +0.015 C 
ATOM      6  N   UNL     1       2.563  -7.045  -0.484  0.00  0.00    -0.312 N 
ATOM      7  C   UNL     1       0.971  -8.829   0.185  0.00  0.00    +0.061 C 
ATOM      8  H   UNL     1       1.708  -6.378  -0.670  0.00  0.00    +0.152 HD
ENDROOT
BRANCH   3   9
ATOM      9  C   UNL     1       4.951  -9.281  -2.179  0.00  0.00    +0.118 A 
ATOM     10  C   UNL     1       5.888 -10.146  -2.608  0.00  0.00    +0.045 A 
ATOM     11  C   UNL     1       5.744 -10.240  -4.012  0.00  0.00    +0.041 A 
ATOM     12  C   UNL     1       4.729  -9.428  -4.356  0.00  0.00    +0.195 A 
ATOM     13  O   UNL     1       4.249  -8.854  -3.240  0.00  0.00    -0.467 OA
ENDBRANCH   3   9
BRANCH   4  14
ATOM     14  C   UNL     1       3.072 -10.627  -0.042  0.00  0.00    +0.247 C 
ATOM     15  O   UNL     1       3.307 -11.070   1.068  0.00  0.00    -0.270 OA
ATOM     16  N   UNL     1       2.558 -11.430  -0.993  0.00  0.00    -0.282 N 
ATOM     17  H   UNL     1       2.274 -11.013  -1.971  0.00  0.00    +0.155 HD
BRANCH  16  18
ATOM     18  C   UNL     1       2.384 -12.795  -0.738  0.00  0.00    +0.034 A 
ATOM     19  C   UNL     1       2.566 -13.722  -1.756  0.00  0.00    +0.026 A 
ATOM     20  C   UNL     1       2.400 -15.069  -1.501  0.00  0.00    +0.040 A 
ATOM     21  C   UNL     1       2.042 -15.495  -0.233  0.00  0.00    +0.124 A 
ATOM     22  C   UNL     1       1.854 -14.572   0.782  0.00  0.00    +0.040 A 
ATOM     23  C   UNL     1       2.024 -13.225   0.533  0.00  0.00    +0.026 A 
ATOM     24  F   UNL     1       1.875 -16.813   0.014  0.00  0.00    -0.205 F 
ENDBRANCH  16  18
ENDBRANCH   4  14
BRANCH   2  25
ATOM     25  C   UNL     1       6.235  -6.835  -0.637  0.00  0.00    +0.098 C 
ATOM     26  N   UNL     1       7.285  -6.402  -0.645  0.00  0.00    -0.191 NA
ENDBRANCH   2  25
BRANCH   1  27
ATOM     27  S   UNL     1       4.108  -4.806  -0.382  0.00  0.00    -0.100 S 
BRANCH  27  28
ATOM     28  C   UNL     1       2.394  -4.237  -0.256  0.00  0.00    +0.171 C 
BRANCH  28  30
ATOM     29  N   UNL     1       1.195  -2.086  -0.025  0.00  0.00    -0.285 N 
ATOM     30  C   UNL     1       2.371  -2.736  -0.133  0.00  0.00    +0.227 C 
ATOM     31  O   UNL     1       3.411  -2.111  -0.132  0.00  0.00    -0.275 OA
ATOM     32  H   UNL     1       0.259  -2.656   0.071  0.00  0.00    +0.155 HD
BRANCH  29  37
ATOM     33  C   UNL     1       1.071   3.585  -0.069  0.00  0.00    +0.044 C 
ATOM     34  C   UNL     1       1.104   2.079  -0.057  0.00  0.00    -0.050 A 
ATOM     35  C   UNL     1       2.139   1.407  -0.680  0.00  0.00    +0.005 A 
ATOM     36  C   UNL     1       2.173   0.026  -0.671  0.00  0.00    +0.023 A 
ATOM     37  C   UNL     1       1.165  -0.687  -0.036  0.00  0.00    +0.033 A 
ATOM     38  C   UNL     1       0.126  -0.009   0.588  0.00  0.00    +0.023 A 
ATOM     39  C   UNL     1       0.098   1.371   0.576  0.00  0.00    +0.005 A 
ENDBRANCH  29  37
ENDBRANCH  28  30
ENDBRANCH  27  28
ENDBRANCH   1  27
TORSDOF 8
