REMARK  Name = ZINC63249702
REMARK  5 active torsions:
REMARK  status: ('A' for Active; 'I' for Inactive)
REMARK    1  A    between atoms: C_4  and  C_7
REMARK    2  A    between atoms: C_7  and  O_8
REMARK    3  A    between atoms: O_8  and  C_9
REMARK    4  A    between atoms: C_16  and  C_24
REMARK    5  A    between atoms: C_28  and  O_30
REMARK                            x       y       z     vdW  Elec       q    Type
REMARK                         _______ _______ _______ _____ _____    ______ ____
ROOT
ATOM      1  C   UNL     1       4.789  -1.601   2.469  0.00  0.00    +0.122 A 
ATOM      2  C   UNL     1       5.379  -1.770   1.204  0.00  0.00    +0.048 A 
ATOM      3  C   UNL     1       6.600  -2.324   1.042  0.00  0.00    +0.029 A 
ATOM      4  C   UNL     1       7.358  -2.776   2.211  0.00  0.00    +0.043 A 
ATOM      5  N   UNL     1       8.531  -3.356   2.325  0.00  0.00    -0.376 N 
ATOM      6  C   UNL     1       8.838  -3.502   3.744  0.00  0.00    +0.128 C 
ATOM      7  C   UNL     1       9.135  -4.952   4.136  0.00  0.00    +0.111 C 
ATOM      8  N   UNL     1       9.142  -5.042   5.605  0.00  0.00    -0.307 NA
ATOM      9  C   UNL     1       7.824  -4.810   6.204  0.00  0.00    +0.086 C 
ATOM     10  C   UNL     1       7.376  -3.359   5.950  0.00  0.00    +0.048 C 
ATOM     11  C   UNL     1       7.570  -3.090   4.474  0.00  0.00    -0.035 C 
ATOM     12  C   UNL     1       6.733  -2.607   3.548  0.00  0.00    +0.003 A 
ATOM     13  C   UNL     1       5.406  -1.984   3.612  0.00  0.00    +0.055 A 
ATOM     14  H   UNL     1       9.529  -5.922   5.911  0.00  0.00    +0.123 HD
ATOM     15  H   UNL     1       9.097  -3.639   1.590  0.00  0.00    +0.160 HD
ENDROOT
BRANCH   7  16
ATOM     16  C   UNL     1       8.069  -5.858   3.576  0.00  0.00    -0.025 A 
ATOM     17  C   UNL     1       6.735  -5.590   3.824  0.00  0.00    +0.005 A 
ATOM     18  C   UNL     1       5.754  -6.419   3.311  0.00  0.00    +0.004 A 
ATOM     19  C   UNL     1       6.105  -7.518   2.550  0.00  0.00    +0.045 A 
ATOM     20  C   UNL     1       7.442  -7.789   2.301  0.00  0.00    +0.117 A 
ATOM     21  C   UNL     1       8.424  -6.952   2.811  0.00  0.00    +0.050 A 
BRANCH  20  22
ATOM     22  O   UNL     1       7.790  -8.869   1.553  0.00  0.00    -0.507 OA
ATOM     23  H   UNL     1       7.854  -8.687   0.605  0.00  0.00    +0.292 HD
ENDBRANCH  20  22
ENDBRANCH   7  16
BRANCH   1  24
ATOM     24  O   UNL     1       3.558  -1.030   2.547  0.00  0.00    -0.487 OA
BRANCH  24  25
ATOM     25  C   UNL     1       2.944  -0.642   1.317  0.00  0.00    +0.264 C 
BRANCH  25  29
ATOM     26  C   UNL     1      -0.879   1.090   2.117  0.00  0.00    +0.000 A 
ATOM     27  C   UNL     1       0.248   1.890   2.076  0.00  0.00    +0.000 A 
ATOM     28  C   UNL     1       1.485   1.330   1.817  0.00  0.00    +0.007 A 
ATOM     29  C   UNL     1       1.595  -0.031   1.600  0.00  0.00    -0.010 A 
ATOM     30  C   UNL     1       0.469  -0.831   1.642  0.00  0.00    +0.007 A 
ATOM     31  C   UNL     1      -0.768  -0.271   1.899  0.00  0.00    +0.000 A 
ENDBRANCH  25  29
ENDBRANCH  24  25
ENDBRANCH   1  24
TORSDOF 5
