REMARK  Name = ZINC12483243
REMARK  8 active torsions:
REMARK  status: ('A' for Active; 'I' for Inactive)
REMARK    1  A    between atoms: C_1  and  C_2
REMARK    2  A    between atoms: C_9  and  O_12
REMARK    3  A    between atoms: O_12  and  C_13
REMARK    4  A    between atoms: C_13  and  C_14
REMARK    5  A    between atoms: N_16  and  C_17
REMARK    6  A    between atoms: C_17  and  C_18
REMARK    7  A    between atoms: C_17  and  C_19
REMARK    8  A    between atoms: C_17  and  C_20
REMARK                            x       y       z     vdW  Elec       q    Type
REMARK                         _______ _______ _______ _____ _____    ______ ____
ROOT
ATOM      1  C   UNL     1      -0.018   1.503   0.010  0.00  0.00    +0.065 C 
ATOM      2  C   UNL     1       0.002  -0.004   0.002  0.00  0.00    +0.039 A 
ATOM      3  C   UNL     1       0.005  -0.676  -1.218  0.00  0.00    +0.024 A 
ATOM      4  C   UNL     1       0.024  -2.041  -1.245  0.00  0.00    +0.013 A 
ATOM      5  C   UNL     1       0.040  -2.729  -0.017  0.00  0.00    +0.022 A 
ATOM      6  C   UNL     1       0.060  -4.134   0.032  0.00  0.00    +0.052 A 
ATOM      7  C   UNL     1       0.076  -4.770   1.236  0.00  0.00    +0.044 A 
ATOM      8  C   UNL     1       0.071  -4.047   2.428  0.00  0.00    +0.086 A 
ATOM      9  C   UNL     1       0.051  -2.671   2.418  0.00  0.00    +0.165 A 
ATOM     10  C   UNL     1       0.035  -1.984   1.187  0.00  0.00    +0.116 A 
ATOM     11  N   UNL     1       0.022  -0.648   1.143  0.00  0.00    -0.248 NA
ATOM     12 CL   UNL     1       0.090  -4.894   3.943  0.00  0.00    -0.080 Cl
ATOM     13 CL   UNL     1       0.066  -5.056  -1.439  0.00  0.00    -0.083 Cl
ENDROOT
BRANCH   9  14
ATOM     14  O   UNL     1       0.045  -1.979   3.588  0.00  0.00    -0.479 OA
BRANCH  14  15
ATOM     15  C   UNL     1       1.316  -1.630   4.141  0.00  0.00    +0.324 C 
BRANCH  15  16
ATOM     16  C   UNL     1       1.113  -0.872   5.428  0.00  0.00    +0.251 C 
ATOM     17  O   UNL     1      -0.010  -0.652   5.831  0.00  0.00    -0.272 OA
ATOM     18  N   UNL     1       2.178  -0.438   6.130  0.00  0.00    -0.308 N 
ATOM     19  H   UNL     1       3.076  -0.614   5.807  0.00  0.00    +0.149 HD
BRANCH  18  20
ATOM     20  C   UNL     1       1.980   0.299   7.381  0.00  0.00    +0.026 C 
ATOM     21  C   UNL     1       1.215  -0.578   8.374  0.00  0.00    +0.031 C 
ATOM     22  C   UNL     1       3.341   0.672   7.973  0.00  0.00    +0.031 C 
ATOM     23  C   UNL     1       1.179   1.572   7.101  0.00  0.00    +0.031 C 
ENDBRANCH  18  20
ENDBRANCH  15  16
ENDBRANCH  14  15
ENDBRANCH   9  14
TORSDOF 4
