REMARK  Name = ZINC36316169
REMARK  17 active torsions:
REMARK  status: ('A' for Active; 'I' for Inactive)
REMARK    1  A    between atoms: C_1  and  C_2
REMARK    2  A    between atoms: C_2  and  C_3
REMARK    3  A    between atoms: C_2  and  C_4
REMARK    4  A    between atoms: C_2  and  O_5
REMARK    5  A    between atoms: O_5  and  C_6
REMARK    6  A    between atoms: C_6  and  C_7
REMARK    7  A    between atoms: C_7  and  C_9
REMARK    8  A    between atoms: C_7  and  O_37
REMARK    9  A    between atoms: C_9  and  N_10
REMARK   10  A    between atoms: N_10  and  C_11
REMARK   11  A    between atoms: N_10  and  C_33
REMARK   12  A    between atoms: C_11  and  C_12
REMARK   13  A    between atoms: C_13  and  C_27
REMARK   14  A    between atoms: N_15  and  C_26
REMARK   15  A    between atoms: C_16  and  O_17
REMARK   16  A    between atoms: O_17  and  C_18
REMARK   17  A    between atoms: C_33  and  C_34
REMARK                            x       y       z     vdW  Elec       q    Type
REMARK                         _______ _______ _______ _____ _____    ______ ____
ROOT
ATOM      1  C   UNL     1       5.668  -0.941  -1.741  0.00  0.00    +0.025 A 
ATOM      2  C   UNL     1       6.097  -2.261  -1.977  0.00  0.00    +0.098 A 
ATOM      3  N   UNL     1       6.019  -2.926  -0.844  0.00  0.00    -0.168 NA
ATOM      4  N   UNL     1       5.542  -2.055   0.144  0.00  0.00    -0.235 N 
ATOM      5  C   UNL     1       5.338  -0.841  -0.428  0.00  0.00    +0.221 A 
ATOM      6  C   UNL     1       5.308  -2.394   1.550  0.00  0.00    +0.176 C 
ENDROOT
BRANCH   2   7
ATOM      7  C   UNL     1       6.557  -2.808  -3.278  0.00  0.00    +0.002 A 
ATOM      8  C   UNL     1       5.883  -2.480  -4.452  0.00  0.00    +0.010 A 
ATOM      9  C   UNL     1       6.314  -2.991  -5.659  0.00  0.00    +0.001 A 
ATOM     10  C   UNL     1       7.414  -3.829  -5.704  0.00  0.00    +0.000 A 
ATOM     11  C   UNL     1       8.087  -4.159  -4.541  0.00  0.00    +0.001 A 
ATOM     12  C   UNL     1       7.668  -3.648  -3.330  0.00  0.00    +0.010 A 
ENDBRANCH   2   7
BRANCH   1  13
ATOM     13  C   UNL     1       5.595   0.165  -2.762  0.00  0.00    -0.035 C 
BRANCH  13  14
ATOM     14  N   UNL     1       4.236   0.232  -3.315  0.00  0.00    +0.384 N 
ATOM     15  H   UNL     1       3.969  -0.677  -3.663  0.00  0.00    -0.081 HD
BRANCH  14  16
ATOM     16  C   UNL     1       3.299   0.647  -2.262  0.00  0.00    -0.044 C 
BRANCH  16  17
ATOM     17  C   UNL     1       1.865   0.537  -2.783  0.00  0.00    +0.124 C 
BRANCH  17  18
ATOM     18  O   UNL     1       1.652   1.517  -3.801  0.00  0.00    -0.391 OA
ATOM     19  H   UNL     1       1.778   2.428  -3.503  0.00  0.00    +0.210 HD
ENDBRANCH  17  18
BRANCH  17  20
ATOM     20  C   UNL     1       0.885   0.777  -1.632  0.00  0.00    +0.189 C 
BRANCH  20  21
ATOM     21  O   UNL     1      -0.451   0.560  -2.091  0.00  0.00    -0.372 OA
BRANCH  21  23
ATOM     22  C   UNL     1      -1.377   2.197  -0.574  0.00  0.00    +0.041 C 
ATOM     23  C   UNL     1      -1.450   0.758  -1.089  0.00  0.00    +0.061 C 
ATOM     24  C   UNL     1      -1.208  -0.211   0.070  0.00  0.00    +0.041 C 
ATOM     25  C   UNL     1      -2.833   0.500  -1.689  0.00  0.00    +0.041 C 
ENDBRANCH  21  23
ENDBRANCH  20  21
ENDBRANCH  17  20
ENDBRANCH  16  17
ENDBRANCH  14  16
BRANCH  14  26
ATOM     26  C   UNL     1       4.201   1.207  -4.413  0.00  0.00    -0.075 C 
BRANCH  26  27
ATOM     27  C   UNL     1       5.135   0.745  -5.534  0.00  0.00    -0.028 C 
ATOM     28  C   UNL     1       6.350   1.621  -5.847  0.00  0.00    +0.002 C 
ATOM     29  C   UNL     1       5.166   1.580  -6.816  0.00  0.00    +0.002 C 
ENDBRANCH  26  27
ENDBRANCH  14  26
ENDBRANCH  13  14
ENDBRANCH   1  13
BRANCH   5  30
ATOM     30  O   UNL     1       4.883   0.274   0.200  0.00  0.00    -0.435 OA
BRANCH  30  31
ATOM     31  C   UNL     1       5.798   1.116   0.748  0.00  0.00    +0.166 A 
ATOM     32  C   UNL     1       7.153   0.881   0.568  0.00  0.00    +0.052 A 
ATOM     33  C   UNL     1       8.083   1.738   1.125  0.00  0.00    +0.042 A 
ATOM     34  C   UNL     1       7.663   2.832   1.863  0.00  0.00    +0.126 A 
ATOM     35  C   UNL     1       6.311   3.070   2.044  0.00  0.00    +0.080 A 
ATOM     36  C   UNL     1       5.378   2.217   1.483  0.00  0.00    +0.168 A 
ATOM     37  F   UNL     1       4.058   2.452   1.654  0.00  0.00    -0.202 F 
ATOM     38  F   UNL     1       8.574   3.668   2.408  0.00  0.00    -0.205 F 
ENDBRANCH  30  31
ENDBRANCH   5  30
TORSDOF 13
