REMARK  Name = ZINC64502342
REMARK  9 active torsions:
REMARK  status: ('A' for Active; 'I' for Inactive)
REMARK    1  A    between atoms: C_1  and  C_2
REMARK    2  A    between atoms: C_7  and  C_8
REMARK    3  A    between atoms: N_9  and  C_15
REMARK    4  A    between atoms: C_12  and  C_14
REMARK    5  A    between atoms: C_15  and  C_16
REMARK    6  A    between atoms: C_16  and  C_17
REMARK    7  A    between atoms: N_19  and  C_20
REMARK    8  A    between atoms: C_20  and  C_21
REMARK    9  A    between atoms: C_21  and  C_22
REMARK                            x       y       z     vdW  Elec       q    Type
REMARK                         _______ _______ _______ _____ _____    ______ ____
ROOT
ATOM      1  C   UNL     1      -1.344  -5.947   3.024  0.00  0.00    +0.215 C 
ATOM      2  O   UNL     1      -0.287  -6.240   3.541  0.00  0.00    -0.276 OA
ATOM      3  N   UNL     1      -2.503  -6.305   3.610  0.00  0.00    -0.315 N 
ATOM      4  H   UNL     1      -3.349  -6.071   3.197  0.00  0.00    +0.149 HD
ENDROOT
BRANCH   1   5
ATOM      5  C   UNL     1      -1.361  -5.182   1.726  0.00  0.00    +0.117 C 
BRANCH   5   6
ATOM      6  C   UNL     1       0.076  -4.903   1.279  0.00  0.00    +0.135 C 
BRANCH   6  15
ATOM      7  C   UNL     1      -0.018   1.503   0.010  0.00  0.00    +0.044 C 
ATOM      8  C   UNL     1       0.002  -0.004   0.002  0.00  0.00    -0.045 A 
ATOM      9  C   UNL     1       0.005  -0.673  -1.187  0.00  0.00    +0.033 A 
ATOM     10  C   UNL     1       0.025  -2.076  -1.202  0.00  0.00    +0.088 A 
ATOM     11  C   UNL     1       0.040  -2.779   0.017  0.00  0.00    +0.071 A 
ATOM     12  C   UNL     1       0.036  -2.076   1.218  0.00  0.00    +0.031 A 
ATOM     13  C   UNL     1       0.023  -0.698   1.205  0.00  0.00    -0.045 A 
ATOM     14  C   UNL     1       0.025   0.062   2.506  0.00  0.00    +0.044 C 
ATOM     15  N   UNL     1       0.059  -4.159   0.017  0.00  0.00    -0.305 N 
ATOM     16  C   UNL     1       0.063  -4.814  -1.165  0.00  0.00    +0.273 A 
ATOM     17  O   UNL     1       0.079  -6.031  -1.196  0.00  0.00    -0.266 OA
ATOM     18  C   UNL     1       0.046  -4.040  -2.411  0.00  0.00    +0.103 A 
ATOM     19  N   UNL     1       0.028  -2.738  -2.375  0.00  0.00    -0.245 NA
ATOM     20  C   UNL     1       0.051  -4.754  -3.738  0.00  0.00    +0.071 C 
ENDBRANCH   6  15
ENDBRANCH   5   6
ENDBRANCH   1   5
BRANCH   3  21
ATOM     21  C   UNL     1      -2.487  -7.049   4.872  0.00  0.00    +0.108 C 
BRANCH  21  22
ATOM     22  C   UNL     1      -3.923  -7.328   5.319  0.00  0.00    +0.052 C 
BRANCH  22  23
ATOM     23  C   UNL     1      -3.906  -8.093   6.617  0.00  0.00    -0.040 C 
ATOM     24  C   UNL     1      -4.007  -7.580   7.864  0.00  0.00    +0.000 A 
ATOM     25  C   UNL     1      -4.156  -6.209   8.367  0.00  0.00    +0.030 A 
ATOM     26  C   UNL     1      -4.231  -6.004   9.702  0.00  0.00    +0.042 A 
ATOM     27  C   UNL     1      -4.169  -7.066  10.616  0.00  0.00    +0.022 A 
ATOM     28  C   UNL     1      -4.033  -8.352  10.230  0.00  0.00    +0.027 A 
ATOM     29  C   UNL     1      -3.945  -8.684   8.850  0.00  0.00    +0.043 A 
ATOM     30  N   UNL     1      -3.811  -9.834   8.235  0.00  0.00    -0.380 N 
ATOM     31  C   UNL     1      -3.780  -9.590   6.788  0.00  0.00    +0.144 C 
ATOM     32 CL   UNL     1      -4.407  -4.383  10.300  0.00  0.00    -0.084 Cl
ATOM     33  H   UNL     1      -3.748 -10.701   8.665  0.00  0.00    +0.160 HD
ENDBRANCH  22  23
ENDBRANCH  21  22
ENDBRANCH   3  21
TORSDOF 6
