REMARK  Name = ZINC63514147
REMARK  9 active torsions:
REMARK  status: ('A' for Active; 'I' for Inactive)
REMARK    1  A    between atoms: C_1  and  C_2
REMARK    2  A    between atoms: C_5  and  S_10
REMARK    3  A    between atoms: C_6  and  C_9
REMARK    4  A    between atoms: C_7  and  C_8
REMARK    5  A    between atoms: S_10  and  N_13
REMARK    6  A    between atoms: N_13  and  C_14
REMARK    7  A    between atoms: C_14  and  C_15
REMARK    8  A    between atoms: C_15  and  C_16
REMARK    9  A    between atoms: C_24  and  C_26
REMARK                            x       y       z     vdW  Elec       q    Type
REMARK                         _______ _______ _______ _____ _____    ______ ____
ROOT
ATOM      1  N   UNL     1       1.800  -4.829   0.800  0.00  0.00    -0.190 NA
ATOM      2  H   UNL     1       2.494  -5.212   0.241  0.00  0.00    +0.148 HD
ENDROOT
BRANCH   1   3
ATOM      3  S   UNL     1       0.372  -4.333   0.123  0.00  0.00    +0.059 S 
ATOM      4  O   UNL     1       0.444  -4.656  -1.259  0.00  0.00    -0.153 OA
ATOM      5  O   UNL     1       0.141  -3.009   0.586  0.00  0.00    -0.153 OA
BRANCH   3  10
ATOM      6  C   UNL     1      -4.003  -7.764   2.468  0.00  0.00    +0.044 C 
ATOM      7  C   UNL     1      -2.910  -6.907   1.883  0.00  0.00    -0.047 A 
ATOM      8  C   UNL     1      -2.903  -5.544   2.112  0.00  0.00    +0.005 A 
ATOM      9  C   UNL     1      -1.901  -4.758   1.575  0.00  0.00    +0.029 A 
ATOM     10  C   UNL     1      -0.905  -5.335   0.809  0.00  0.00    +0.108 A 
ATOM     11  C   UNL     1      -0.912  -6.698   0.580  0.00  0.00    -0.021 A 
ATOM     12  C   UNL     1      -1.912  -7.485   1.121  0.00  0.00    -0.043 A 
ATOM     13  C   UNL     1      -1.917  -8.972   0.876  0.00  0.00    +0.044 C 
ATOM     14  C   UNL     1       0.173  -7.327  -0.256  0.00  0.00    +0.046 C 
ENDBRANCH   3  10
ENDBRANCH   1   3
BRANCH   1  15
ATOM     15  C   UNL     1       2.014  -4.689   2.242  0.00  0.00    +0.110 C 
BRANCH  15  16
ATOM     16  C   UNL     1       3.222  -5.529   2.662  0.00  0.00    +0.050 C 
BRANCH  16  17
ATOM     17  C   UNL     1       3.432  -5.399   4.149  0.00  0.00    -0.037 C 
ATOM     18  C   UNL     1       2.683  -4.680   5.016  0.00  0.00    +0.000 A 
ATOM     19  C   UNL     1       1.495  -3.836   4.841  0.00  0.00    +0.025 A 
ATOM     20  C   UNL     1       0.955  -3.231   5.924  0.00  0.00    +0.019 A 
ATOM     21  C   UNL     1       1.502  -3.388   7.206  0.00  0.00    +0.017 A 
ATOM     22  C   UNL     1       2.593  -4.146   7.445  0.00  0.00    +0.027 A 
ATOM     23  C   UNL     1       3.241  -4.830   6.379  0.00  0.00    +0.043 A 
ATOM     24  N   UNL     1       4.293  -5.611   6.356  0.00  0.00    -0.378 N 
ATOM     25  C   UNL     1       4.519  -6.050   4.974  0.00  0.00    +0.103 C 
ATOM     26  C   UNL     1       4.413  -7.573   4.878  0.00  0.00    +0.035 C 
ATOM     27 BR   UNL     1      -0.576  -2.143   5.704  0.00  0.00    -0.050 Br
ATOM     28  H   UNL     1       4.831  -5.860   7.124  0.00  0.00    +0.160 HD
ENDBRANCH  16  17
ENDBRANCH  15  16
ENDBRANCH   1  15
TORSDOF 5
