REMARK  Name = ZINC56936503
REMARK  12 active torsions:
REMARK  status: ('A' for Active; 'I' for Inactive)
REMARK    1  A    between atoms: C_1  and  C_2
REMARK    2  A    between atoms: C_3  and  N_16
REMARK    3  A    between atoms: C_4  and  C_15
REMARK    4  A    between atoms: N_5  and  C_7
REMARK    5  A    between atoms: C_22  and  C_24
REMARK    6  A    between atoms: C_25  and  C_26
REMARK    7  A    between atoms: C_28  and  O_36
REMARK    8  A    between atoms: C_29  and  O_34
REMARK    9  A    between atoms: C_30  and  O_32
REMARK   10  A    between atoms: O_32  and  C_33
REMARK   11  A    between atoms: O_34  and  C_35
REMARK   12  A    between atoms: O_36  and  C_37
REMARK                            x       y       z     vdW  Elec       q    Type
REMARK                         _______ _______ _______ _____ _____    ______ ____
ROOT
ATOM      1  N   UNL     1      -0.005  -0.378  -2.479  0.00  0.00    -0.324 N 
ATOM      2  C   UNL     1      -1.277  -0.151  -3.179  0.00  0.00    +0.124 C 
ATOM      3  C   UNL     1      -1.292   1.287  -3.713  0.00  0.00    +0.127 C 
ATOM      4  N   UNL     1      -0.034   1.535  -4.431  0.00  0.00    -0.295 N 
ATOM      5  C   UNL     1       1.238   1.307  -3.730  0.00  0.00    +0.127 C 
ATOM      6  C   UNL     1       1.253  -0.125  -3.195  0.00  0.00    +0.124 C 
ATOM      7  C   UNL     1      -0.046   1.963  -5.709  0.00  0.00    +0.240 C 
ATOM      8  O   UNL     1       0.998   2.254  -6.263  0.00  0.00    -0.271 OA
ENDROOT
BRANCH   1  11
ATOM      9  C   UNL     1      -0.016   1.494   0.010  0.00  0.00    +0.069 C 
ATOM     10  C   UNL     1       0.003  -0.013  -0.001  0.00  0.00    +0.081 A 
ATOM     11  C   UNL     1       0.007  -0.825  -1.144  0.00  0.00    +0.074 A 
ATOM     12  C   UNL     1       0.025  -2.119  -0.735  0.00  0.00    +0.058 A 
ATOM     13  N   UNL     1       0.032  -2.119   0.625  0.00  0.00    -0.262 N 
ATOM     14  N   UNL     1       0.024  -0.786   1.055  0.00  0.00    -0.174 NA
ATOM     15  C   UNL     1       0.036  -3.335  -1.625  0.00  0.00    +0.067 C 
BRANCH  13  16
ATOM     16  C   UNL     1       0.051  -3.303   1.488  0.00  0.00    +0.130 C 
ATOM     17  C   UNL     1      -1.180  -3.295   2.409  0.00  0.00    +0.051 C 
ATOM     18  C   UNL     1      -1.009  -4.350   3.528  0.00  0.00    +0.168 C 
ATOM     19  S   UNL     1       0.818  -4.445   3.717  0.00  0.00    -0.029 S 
ATOM     20  O   UNL     1       1.182  -3.891   4.974  0.00  0.00    -0.174 OA
ATOM     21  O   UNL     1       1.250  -5.756   3.379  0.00  0.00    -0.174 OA
ATOM     22  C   UNL     1       1.324  -3.281   2.381  0.00  0.00    +0.192 C 
ENDBRANCH  13  16
ENDBRANCH   1  11
BRANCH   7  23
ATOM     23  C   UNL     1      -1.314   2.078  -6.429  0.00  0.00    +0.068 C 
ATOM     24  C   UNL     1      -1.318   2.407  -7.738  0.00  0.00    +0.013 C 
BRANCH  24  25
ATOM     25  C   UNL     1      -2.592   2.522  -8.463  0.00  0.00    -0.018 A 
ATOM     26  C   UNL     1      -3.801   2.297  -7.795  0.00  0.00    +0.057 A 
ATOM     27  C   UNL     1      -4.997   2.406  -8.480  0.00  0.00    +0.166 A 
ATOM     28  C   UNL     1      -5.000   2.740  -9.832  0.00  0.00    +0.204 A 
ATOM     29  C   UNL     1      -3.798   2.965 -10.499  0.00  0.00    +0.166 A 
ATOM     30  C   UNL     1      -2.599   2.863  -9.820  0.00  0.00    +0.057 A 
BRANCH  29  31
ATOM     31  O   UNL     1      -3.805   3.290 -11.820  0.00  0.00    -0.491 OA
ATOM     32  C   UNL     1      -2.537   3.506 -12.441  0.00  0.00    +0.277 C 
ENDBRANCH  29  31
BRANCH  28  33
ATOM     33  O   UNL     1      -6.178   2.847 -10.501  0.00  0.00    -0.488 OA
ATOM     34  C   UNL     1      -6.801   4.132 -10.516  0.00  0.00    +0.277 C 
ENDBRANCH  28  33
BRANCH  27  35
ATOM     35  O   UNL     1      -6.173   2.187  -7.832  0.00  0.00    -0.491 OA
ATOM     36  C   UNL     1      -6.096   1.848  -6.446  0.00  0.00    +0.277 C 
ENDBRANCH  27  35
ENDBRANCH  24  25
ENDBRANCH   7  23
TORSDOF 7
