REMARK  Name = ZINC63846313
REMARK  3 active torsions:
REMARK  status: ('A' for Active; 'I' for Inactive)
REMARK    1  A    between atoms: C_3  and  C_9
REMARK    2  A    between atoms: C_14  and  N_17
REMARK    3  A    between atoms: C_19  and  C_23
REMARK                            x       y       z     vdW  Elec       q    Type
REMARK                         _______ _______ _______ _____ _____    ______ ____
ROOT
ATOM      1  C   UNL     1       3.815   2.386   0.008  0.00  0.00    +0.263 C 
ATOM      2  O   UNL     1       3.925   3.597   0.027  0.00  0.00    -0.268 OA
ATOM      3  N   UNL     1       4.913   1.609   0.082  0.00  0.00    -0.296 N 
ATOM      4  C   UNL     1       4.808   0.150  -0.058  0.00  0.00    +0.109 C 
ATOM      5  C   UNL     1       5.773  -0.311  -1.155  0.00  0.00    +0.036 C 
ATOM      6  C   UNL     1       7.183   0.189  -0.833  0.00  0.00    +0.046 C 
ATOM      7  C   UNL     1       7.187   1.719  -0.798  0.00  0.00    +0.036 C 
ATOM      8  C   UNL     1       6.239   2.204   0.297  0.00  0.00    +0.109 C 
ENDROOT
BRANCH   1  11
ATOM      9  C   UNL     1       0.548   0.794   0.938  0.00  0.00    +0.007 A 
ATOM     10  C   UNL     1       1.819   1.382   1.033  0.00  0.00    +0.031 A 
ATOM     11  C   UNL     1       2.476   1.767  -0.097  0.00  0.00    +0.105 A 
ATOM     12  N   UNL     1       1.906   1.586  -1.329  0.00  0.00    -0.318 N 
ATOM     13  H   UNL     1       2.384   1.865  -2.125  0.00  0.00    +0.169 HD
ATOM     14  C   UNL     1       0.687   1.024  -1.443  0.00  0.00    +0.249 A 
ATOM     15  O   UNL     1       0.190   0.868  -2.546  0.00  0.00    -0.268 OA
ATOM     16  C   UNL     1      -0.015   0.615  -0.288  0.00  0.00    +0.070 A 
ENDBRANCH   1  11
BRANCH   6  17
ATOM     17  N   UNL     1       8.116  -0.279  -1.866  0.00  0.00    -0.331 NA
ATOM     18  C   UNL     1       9.497   0.163  -1.572  0.00  0.00    +0.091 C 
ATOM     19  C   UNL     1       9.939   0.971  -2.812  0.00  0.00    +0.085 C 
ATOM     20  N   UNL     1       9.036   0.468  -3.882  0.00  0.00    -0.342 NA
ATOM     21  N   UNL     1       7.763   0.265  -3.178  0.00  0.00    +0.400 N 
ATOM     22  H   UNL     1       8.937   1.149  -4.620  0.00  0.00    +0.104 HD
ATOM     23  H   UNL     1       7.187  -0.392  -3.683  0.00  0.00    -0.033 HD
ATOM     24  H   UNL     1       7.279   1.144  -3.072  0.00  0.00    -0.033 HD
BRANCH  19  25
ATOM     25  C   UNL     1      11.380   0.684  -3.147  0.00  0.00    -0.013 A 
ATOM     26  C   UNL     1      12.380   1.565  -2.761  0.00  0.00    +0.008 A 
ATOM     27  C   UNL     1      13.691   1.260  -3.091  0.00  0.00    +0.020 A 
ATOM     28  C   UNL     1      13.957   0.098  -3.790  0.00  0.00    +0.111 A 
ATOM     29  N   UNL     1      12.981  -0.716  -4.142  0.00  0.00    -0.263 NA
ATOM     30  C   UNL     1      11.723  -0.462  -3.839  0.00  0.00    +0.115 A 
ENDBRANCH  19  25
ENDBRANCH   6  17
TORSDOF 3
