REMARK  Name = ZINC06812715
REMARK  12 active torsions:
REMARK  status: ('A' for Active; 'I' for Inactive)
REMARK    1  A    between atoms: C_1  and  N_53
REMARK    2  A    between atoms: C_2  and  N_53
REMARK    3  A    between atoms: C_3  and  C_4
REMARK    4  A    between atoms: C_3  and  N_53
REMARK    5  A    between atoms: C_4  and  N_5
REMARK    6  A    between atoms: C_6  and  C_20
REMARK    7  A    between atoms: C_9  and  C_10
REMARK    8  A    between atoms: C_9  and  O_15
REMARK    9  A    between atoms: C_24  and  O_28
REMARK   10  A    between atoms: C_25  and  O_26
REMARK   11  A    between atoms: O_26  and  C_27
REMARK   12  A    between atoms: O_28  and  C_29
REMARK                            x       y       z     vdW  Elec       q    Type
REMARK                         _______ _______ _______ _____ _____    ______ ____
ROOT
ATOM      1  N   UNL     1      -2.355   7.318   3.317  0.00  0.00    -0.285 N 
ATOM      2  C   UNL     1      -2.402   6.018   3.994  0.00  0.00    +0.148 C 
ATOM      3  C   UNL     1      -1.468   6.114   5.178  0.00  0.00    +0.074 C 
ATOM      4  C   UNL     1      -1.196   5.120   6.107  0.00  0.00    +0.168 C 
ATOM      5  C   UNL     1      -0.934   7.407   5.149  0.00  0.00    +0.249 C 
ATOM      6  O   UNL     1      -0.135   7.868   5.947  0.00  0.00    -0.282 OA
ATOM      7  C   UNL     1      -1.508   8.123   3.980  0.00  0.00    +0.288 C 
ATOM      8  O   UNL     1      -1.250   9.269   3.670  0.00  0.00    -0.266 OA
ENDROOT
BRANCH   2   9
ATOM      9  C   UNL     1      -1.939   4.932   3.058  0.00  0.00    +0.023 A 
ATOM     10  C   UNL     1      -0.651   4.436   3.157  0.00  0.00    +0.009 A 
ATOM     11  C   UNL     1      -0.224   3.439   2.300  0.00  0.00    +0.004 A 
ATOM     12  C   UNL     1      -1.081   2.933   1.341  0.00  0.00    +0.049 A 
ATOM     13  C   UNL     1      -2.372   3.424   1.237  0.00  0.00    +0.162 A 
ATOM     14  C   UNL     1      -2.801   4.433   2.096  0.00  0.00    +0.167 A 
BRANCH  14  15
ATOM     15  O   UNL     1      -4.066   4.922   1.994  0.00  0.00    -0.491 OA
ATOM     16  C   UNL     1      -5.090   4.228   2.708  0.00  0.00    +0.277 C 
ENDBRANCH  14  15
BRANCH  13  17
ATOM     17  O   UNL     1      -3.217   2.927   0.294  0.00  0.00    -0.491 OA
ATOM     18  C   UNL     1      -2.707   1.898  -0.556  0.00  0.00    +0.277 C 
ENDBRANCH  13  17
ENDBRANCH   2   9
BRANCH   4  19
ATOM     19  C   UNL     1      -0.395   5.408   7.239  0.00  0.00    +0.169 A 
ATOM     20  C   UNL     1       0.681   4.666   7.685  0.00  0.00    +0.053 A 
ATOM     21  C   UNL     1       1.171   5.319   8.825  0.00  0.00    +0.042 A 
ATOM     22  C   UNL     1       0.389   6.403   9.032  0.00  0.00    +0.196 A 
ATOM     23  O   UNL     1      -0.550   6.454   8.078  0.00  0.00    -0.460 OA
ENDBRANCH   4  19
BRANCH   4  24
ATOM     24  O   UNL     1      -1.696   3.876   5.932  0.00  0.00    -0.503 OA
ATOM     25  H   UNL     1      -1.404   3.290   6.688  0.00  0.00    +0.292 HD
ENDBRANCH   4  24
BRANCH   1  26
ATOM     26  C   UNL     1      -3.108   7.679   2.113  0.00  0.00    +0.090 C 
BRANCH  26  27
ATOM     27  C   UNL     1      -4.459   8.273   2.517  0.00  0.00    -0.060 C 
BRANCH  27  30
ATOM     28  C   UNL     1      -5.575   7.441   0.536  0.00  0.00    -0.097 C 
ATOM     29  C   UNL     1      -6.408   9.421   1.652  0.00  0.00    -0.097 C 
ATOM     30  N   UNL     1      -5.197   8.652   1.294  0.00  0.00    +0.377 N 
ATOM     31  H   UNL     1      -4.592   9.238   0.707  0.00  0.00    -0.083 HD
ENDBRANCH  27  30
ENDBRANCH  26  27
ENDBRANCH   1  26
TORSDOF 8
