REMARK  Name = ZINC02650920
REMARK  11 active torsions:
REMARK  status: ('A' for Active; 'I' for Inactive)
REMARK    1  A    between atoms: C_1  and  C_2
REMARK    2  A    between atoms: C_5  and  N_8
REMARK    3  A    between atoms: C_11  and  C_14
REMARK    4  A    between atoms: C_14  and  S_15
REMARK    5  A    between atoms: S_15  and  C_16
REMARK    6  A    between atoms: C_19  and  C_22
REMARK    7  A    between atoms: N_20  and  N_21
REMARK    8  A    between atoms: C_26  and  S_28
REMARK    9  A    between atoms: S_28  and  N_31
REMARK   10  A    between atoms: N_31  and  C_32
REMARK   11  A    between atoms: N_31  and  C_33
REMARK                            x       y       z     vdW  Elec       q    Type
REMARK                         _______ _______ _______ _____ _____    ______ ____
ROOT
ATOM      1  C   UNL     1      -0.229   5.592  -0.514  0.00  0.00    +0.209 A 
ATOM      2  N   UNL     1       0.984   5.313  -0.093  0.00  0.00    -0.121 NA
ATOM      3  N   UNL     1       1.166   4.041  -0.080  0.00  0.00    -0.127 NA
ATOM      4  C   UNL     1       0.080   3.429  -0.491  0.00  0.00    +0.182 A 
ATOM      5  N   UNL     1      -0.845   4.404  -0.787  0.00  0.00    -0.224 N 
ENDROOT
BRANCH   4   6
ATOM      6  C   UNL     1      -0.112   1.969  -0.619  0.00  0.00    +0.023 A 
ATOM      7  C   UNL     1      -1.395   1.440  -0.767  0.00  0.00    +0.012 A 
ATOM      8  C   UNL     1      -1.567   0.077  -0.885  0.00  0.00    +0.003 A 
ATOM      9  C   UNL     1      -0.470  -0.766  -0.859  0.00  0.00    +0.028 A 
ATOM     10  C   UNL     1       0.805  -0.249  -0.713  0.00  0.00    +0.106 A 
ATOM     11  C   UNL     1       0.990   1.113  -0.593  0.00  0.00    +0.040 A 
BRANCH  10  12
ATOM     12  S   UNL     1       2.195  -1.332  -0.680  0.00  0.00    +0.060 S 
ATOM     13  O   UNL     1       3.228  -0.645   0.013  0.00  0.00    -0.153 OA
ATOM     14  O   UNL     1       1.711  -2.601  -0.264  0.00  0.00    -0.153 OA
BRANCH  12  15
ATOM     15  N   UNL     1       2.712  -1.512  -2.243  0.00  0.00    -0.183 NA
ATOM     16  C   UNL     1       3.713  -0.595  -2.794  0.00  0.00    +0.131 C 
ATOM     17  C   UNL     1       2.168  -2.588  -3.075  0.00  0.00    +0.131 C 
ENDBRANCH  12  15
ENDBRANCH  10  12
ENDBRANCH   4   6
BRANCH   5  18
ATOM     18  N   UNL     1      -2.116   4.222  -1.254  0.00  0.00    -0.295 N 
ATOM     19  H   UNL     1      -2.773   4.138  -0.493  0.00  0.00    +0.163 HD
ATOM     20  H   UNL     1      -2.381   4.967  -1.881  0.00  0.00    +0.163 HD
ENDBRANCH   5  18
BRANCH   1  21
ATOM     21  S   UNL     1      -0.928   7.199  -0.698  0.00  0.00    -0.078 S 
BRANCH  21  22
ATOM     22  C   UNL     1       0.470   8.213  -0.158  0.00  0.00    +0.133 C 
BRANCH  22  26
ATOM     23  N   UNL     1      -1.372  12.348   1.721  0.00  0.00    -0.294 N 
ATOM     24  C   UNL     1      -0.792  11.555   0.743  0.00  0.00    +0.163 A 
ATOM     25  N   UNL     1      -0.458  10.279   0.800  0.00  0.00    -0.229 NA
ATOM     26  C   UNL     1       0.091   9.670  -0.233  0.00  0.00    +0.061 A 
ATOM     27  C   UNL     1       0.313  10.386  -1.362  0.00  0.00    +0.072 A 
ATOM     28  S   UNL     1      -0.318  11.984  -0.871  0.00  0.00    -0.060 S 
ATOM     29  H   UNL     1      -1.503  11.997   2.616  0.00  0.00    +0.154 HD
BRANCH  23  34
ATOM     30  C   UNL     1      -2.974  17.648   0.492  0.00  0.00    +0.044 C 
ATOM     31  C   UNL     1      -2.548  16.240   0.818  0.00  0.00    -0.050 A 
ATOM     32  C   UNL     1      -2.632  15.253  -0.146  0.00  0.00    +0.005 A 
ATOM     33  C   UNL     1      -2.243  13.961   0.150  0.00  0.00    +0.023 A 
ATOM     34  C   UNL     1      -1.766  13.654   1.418  0.00  0.00    +0.033 A 
ATOM     35  C   UNL     1      -1.688  14.648   2.386  0.00  0.00    +0.023 A 
ATOM     36  C   UNL     1      -2.074  15.938   2.082  0.00  0.00    +0.005 A 
ENDBRANCH  23  34
ENDBRANCH  22  26
ENDBRANCH  21  22
ENDBRANCH   1  21
TORSDOF 8
