REMARK  Name = ZINC43222444
REMARK  9 active torsions:
REMARK  status: ('A' for Active; 'I' for Inactive)
REMARK    1  A    between atoms: C_1  and  C_2
REMARK    2  A    between atoms: C_2  and  C_4
REMARK    3  A    between atoms: C_2  and  C_31
REMARK    4  A    between atoms: C_4  and  N_5
REMARK    5  A    between atoms: C_6  and  C_8
REMARK    6  A    between atoms: C_13  and  C_15
REMARK    7  A    between atoms: N_17  and  C_18
REMARK    8  A    between atoms: C_18  and  C_20
REMARK    9  A    between atoms: C_18  and  C_21
REMARK                            x       y       z     vdW  Elec       q    Type
REMARK                         _______ _______ _______ _____ _____    ______ ____
ROOT
ATOM      1  C   UNL     1      -4.047  -0.325   2.588  0.00  0.00    +0.068 C 
ATOM      2  C   UNL     1      -4.100   1.216   2.649  0.00  0.00    -0.069 C 
ATOM      3  N   UNL     1      -5.463   1.563   2.171  0.00  0.00    +0.380 N 
ATOM      4  C   UNL     1      -6.337   0.524   2.774  0.00  0.00    -0.069 C 
ATOM      5  C   UNL     1      -5.517  -0.783   2.672  0.00  0.00    +0.068 C 
ATOM      6  H   UNL     1      -5.729   2.480   2.496  0.00  0.00    -0.086 HD
ATOM      7  H   UNL     1      -5.506   1.518   1.163  0.00  0.00    -0.086 HD
ENDROOT
BRANCH   1   9
ATOM      8  N   UNL     1      -2.154  -0.456   1.000  0.00  0.00    -0.315 N 
ATOM      9  C   UNL     1      -3.431  -0.777   1.289  0.00  0.00    +0.215 C 
ATOM     10  O   UNL     1      -4.084  -1.430   0.503  0.00  0.00    -0.276 OA
ATOM     11  H   UNL     1      -1.632   0.067   1.629  0.00  0.00    +0.149 HD
BRANCH   8  12
ATOM     12  C   UNL     1      -1.556  -0.895  -0.263  0.00  0.00    +0.112 C 
BRANCH  12  14
ATOM     13  C   UNL     1      -0.096   1.128  -0.397  0.00  0.00    +0.014 C 
ATOM     14  C   UNL     1      -0.110  -0.401  -0.341  0.00  0.00    +0.033 C 
BRANCH  14  15
ATOM     15  C   UNL     1       0.543  -0.954  -1.581  0.00  0.00    -0.043 A 
ATOM     16  C   UNL     1       0.025  -0.656  -2.827  0.00  0.00    +0.004 A 
ATOM     17  C   UNL     1       0.625  -1.164  -3.965  0.00  0.00    +0.000 A 
ATOM     18  C   UNL     1       1.743  -1.970  -3.855  0.00  0.00    +0.000 A 
ATOM     19  C   UNL     1       2.261  -2.267  -2.609  0.00  0.00    +0.000 A 
ATOM     20  C   UNL     1       1.664  -1.756  -1.472  0.00  0.00    +0.004 A 
ENDBRANCH  14  15
ENDBRANCH  12  14
ENDBRANCH   8  12
ENDBRANCH   1   9
BRANCH   5  21
ATOM     21  C   UNL     1      -5.731  -1.635   3.897  0.00  0.00    +0.215 C 
ATOM     22  O   UNL     1      -4.805  -1.865   4.645  0.00  0.00    -0.276 OA
ATOM     23  N   UNL     1      -6.952  -2.140   4.161  0.00  0.00    -0.309 N 
ATOM     24  H   UNL     1      -7.693  -1.956   3.562  0.00  0.00    +0.149 HD
BRANCH  23  25
ATOM     25  C   UNL     1      -7.161  -2.968   5.351  0.00  0.00    +0.101 C 
ATOM     26  C   UNL     1      -6.843  -4.428   5.020  0.00  0.00    +0.033 C 
BRANCH  25  27
ATOM     27  C   UNL     1      -8.596  -2.856   5.797  0.00  0.00    -0.020 A 
ATOM     28  C   UNL     1      -9.572  -2.564   4.894  0.00  0.00    +0.006 A 
ATOM     29  C   UNL     1     -10.904  -2.456   5.287  0.00  0.00    +0.001 A 
ATOM     30  C   UNL     1     -11.268  -2.638   6.586  0.00  0.00    +0.008 A 
ATOM     31  C   UNL     1     -10.289  -2.940   7.547  0.00  0.00    -0.018 A 
ATOM     32  C   UNL     1      -8.934  -3.056   7.146  0.00  0.00    -0.013 A 
ATOM     33  C   UNL     1      -7.956  -3.365   8.106  0.00  0.00    +0.009 A 
ATOM     34  C   UNL     1      -8.321  -3.552   9.403  0.00  0.00    +0.001 A 
ATOM     35  C   UNL     1      -9.654  -3.444   9.797  0.00  0.00    +0.001 A 
ATOM     36  C   UNL     1     -10.627  -3.134   8.897  0.00  0.00    +0.008 A 
ENDBRANCH  25  27
ENDBRANCH  23  25
ENDBRANCH   5  21
TORSDOF 7
