REMARK  Name = ZINC59385402
REMARK  10 active torsions:
REMARK  status: ('A' for Active; 'I' for Inactive)
REMARK    1  A    between atoms: C_1  and  C_2
REMARK    2  A    between atoms: C_2  and  O_3
REMARK    3  A    between atoms: O_3  and  C_4
REMARK    4  A    between atoms: C_7  and  C_10
REMARK    5  A    between atoms: C_12  and  C_19
REMARK    6  A    between atoms: C_13  and  C_18
REMARK    7  A    between atoms: N_21  and  N_22
REMARK    8  A    between atoms: C_23  and  C_24
REMARK    9  A    between atoms: C_27  and  O_30
REMARK   10  A    between atoms: O_30  and  C_31
REMARK                            x       y       z     vdW  Elec       q    Type
REMARK                         _______ _______ _______ _____ _____    ______ ____
ROOT
ATOM      1  C   UNL     1       1.022  -5.782  -2.063  0.00  0.00    +0.139 C 
ATOM      2  C   UNL     1      -0.101  -6.520  -2.764  0.00  0.00    +0.057 C 
ATOM      3  C   UNL     1       0.229  -7.349  -3.777  0.00  0.00    +0.017 C 
ATOM      4  N   UNL     1       1.531  -7.517  -4.156  0.00  0.00    -0.300 N 
ATOM      5  C   UNL     1       2.560  -6.891  -3.572  0.00  0.00    +0.135 C 
ATOM      6  S   UNL     1       4.145  -7.191  -4.146  0.00  0.00    -0.019 S 
ATOM      7  N   UNL     1       2.389  -6.032  -2.549  0.00  0.00    -0.315 N 
ATOM      8  C   UNL     1      -0.856  -8.103  -4.502  0.00  0.00    +0.061 C 
ATOM      9  H   UNL     1       1.720  -8.123  -4.889  0.00  0.00    +0.154 HD
ATOM     10  H   UNL     1       3.150  -5.588  -2.141  0.00  0.00    +0.149 HD
ENDROOT
BRANCH   1  14
ATOM     11  C   UNL     1       0.251  -1.592  -2.394  0.00  0.00    +0.121 A 
ATOM     12  C   UNL     1      -0.153  -2.285  -1.262  0.00  0.00    +0.046 A 
ATOM     13  C   UNL     1       0.097  -3.640  -1.158  0.00  0.00    +0.009 A 
ATOM     14  C   UNL     1       0.750  -4.304  -2.180  0.00  0.00    -0.022 A 
ATOM     15  C   UNL     1       1.154  -3.615  -3.309  0.00  0.00    +0.009 A 
ATOM     16  C   UNL     1       0.900  -2.262  -3.421  0.00  0.00    +0.046 A 
BRANCH  11  17
ATOM     17  O   UNL     1       0.005  -0.259  -2.499  0.00  0.00    -0.492 OA
BRANCH  17  19
ATOM     18  C   UNL     1      -0.854   1.854  -1.702  0.00  0.00    +0.048 C 
ATOM     19  C   UNL     1      -0.667   0.365  -1.404  0.00  0.00    +0.225 C 
ENDBRANCH  17  19
ENDBRANCH  11  17
ENDBRANCH   1  14
BRANCH   2  20
ATOM     20  C   UNL     1      -1.450  -6.347  -2.370  0.00  0.00    +0.263 C 
ATOM     21  O   UNL     1      -1.877  -6.930  -1.390  0.00  0.00    -0.269 OA
ATOM     22  N   UNL     1      -2.260  -5.536  -3.079  0.00  0.00    -0.203 N 
ATOM     23  H   UNL     1      -1.902  -5.016  -3.816  0.00  0.00    +0.178 HD
BRANCH  22  24
ATOM     24  N   UNL     1      -3.619  -5.444  -2.752  0.00  0.00    -0.187 NA
ATOM     25  C   UNL     1      -4.400  -4.664  -3.435  0.00  0.00    +0.138 C 
BRANCH  25  26
ATOM     26  C   UNL     1      -5.830  -4.567  -3.091  0.00  0.00    -0.005 A 
ATOM     27  C   UNL     1      -6.346  -5.311  -2.026  0.00  0.00    +0.013 A 
ATOM     28  C   UNL     1      -7.684  -5.217  -1.708  0.00  0.00    +0.046 A 
ATOM     29  C   UNL     1      -8.519  -4.386  -2.444  0.00  0.00    +0.120 A 
ATOM     30  C   UNL     1      -8.010  -3.645  -3.503  0.00  0.00    +0.046 A 
ATOM     31  C   UNL     1      -6.672  -3.728  -3.824  0.00  0.00    +0.013 A 
BRANCH  29  32
ATOM     32  O   UNL     1      -9.837  -4.298  -2.127  0.00  0.00    -0.495 OA
ATOM     33  C   UNL     1     -10.639  -3.424  -2.925  0.00  0.00    +0.277 C 
ENDBRANCH  29  32
ENDBRANCH  25  26
ENDBRANCH  22  24
ENDBRANCH   2  20
TORSDOF 7
