REMARK  Name = ZINC02857559
REMARK  10 active torsions:
REMARK  status: ('A' for Active; 'I' for Inactive)
REMARK    1  A    between atoms: C_1  and  C_2
REMARK    2  A    between atoms: C_3  and  C_32
REMARK    3  A    between atoms: N_4  and  C_25
REMARK    4  A    between atoms: C_8  and  C_11
REMARK    5  A    between atoms: N_13  and  N_14
REMARK    6  A    between atoms: N_14  and  C_15
REMARK    7  A    between atoms: C_15  and  N_17
REMARK    8  A    between atoms: N_17  and  C_18
REMARK    9  A    between atoms: C_18  and  C_19
REMARK   10  A    between atoms: C_25  and  C_26
REMARK                            x       y       z     vdW  Elec       q    Type
REMARK                         _______ _______ _______ _____ _____    ______ ____
ROOT
ATOM      1  C   UNL     1      -0.018   1.503   0.010  0.00  0.00    +0.046 C 
ATOM      2  C   UNL     1       0.002  -0.004   0.002  0.00  0.00    -0.022 A 
ATOM      3  C   UNL     1       0.008  -0.797  -1.081  0.00  0.00    +0.020 A 
ATOM      4  N   UNL     1       0.028  -2.111  -0.697  0.00  0.00    -0.339 N 
ATOM      5  C   UNL     1       0.035  -2.200   0.674  0.00  0.00    +0.050 A 
ATOM      6  C   UNL     1       0.026  -0.883   1.175  0.00  0.00    +0.004 A 
ATOM      7  C   UNL     1       0.036  -0.661   2.549  0.00  0.00    +0.023 A 
ATOM      8  C   UNL     1       0.059  -1.749   3.417  0.00  0.00    +0.039 A 
ATOM      9  C   UNL     1       0.072  -3.054   2.906  0.00  0.00    +0.015 A 
ATOM     10  C   UNL     1       0.053  -3.275   1.561  0.00  0.00    +0.027 A 
ATOM     11  C   UNL     1      -0.006  -0.313  -2.507  0.00  0.00    +0.064 C 
ENDROOT
BRANCH   8  12
ATOM     12  C   UNL     1       0.070  -1.528   4.877  0.00  0.00    +0.260 C 
ATOM     13  O   UNL     1       0.059  -0.396   5.321  0.00  0.00    -0.269 OA
ATOM     14  N   UNL     1       0.092  -2.581   5.718  0.00  0.00    -0.231 N 
ATOM     15  H   UNL     1       0.101  -3.484   5.364  0.00  0.00    +0.173 HD
BRANCH  14  16
ATOM     16  N   UNL     1       0.103  -2.371   7.103  0.00  0.00    -0.246 N 
ATOM     17  H   UNL     1       0.094  -1.468   7.457  0.00  0.00    +0.172 HD
BRANCH  16  18
ATOM     18  C   UNL     1       0.125  -3.425   7.944  0.00  0.00    +0.147 C 
ATOM     19  S   UNL     1       0.138  -3.168   9.636  0.00  0.00    -0.017 S 
BRANCH  18  20
ATOM     20  N   UNL     1       0.137  -4.679   7.452  0.00  0.00    -0.323 N 
ATOM     21  H   UNL     1       0.130  -4.824   6.493  0.00  0.00    +0.148 HD
BRANCH  20  22
ATOM     22  C   UNL     1       0.162  -5.824   8.366  0.00  0.00    +0.134 C 
BRANCH  22  23
ATOM     23  C   UNL     1       0.171  -7.122   7.556  0.00  0.00    +0.135 C 
ATOM     24  C   UNL     1       0.162  -8.348   8.505  0.00  0.00    +0.035 C 
ATOM     25  C   UNL     1      -0.463  -9.430   7.583  0.00  0.00    +0.031 C 
ATOM     26  C   UNL     1      -1.457  -8.605   6.737  0.00  0.00    +0.160 C 
ATOM     27  O   UNL     1      -1.033  -7.236   6.782  0.00  0.00    -0.375 OA
ENDBRANCH  22  23
ENDBRANCH  20  22
ENDBRANCH  18  20
ENDBRANCH  16  18
ENDBRANCH  14  16
ENDBRANCH   8  12
BRANCH   4  28
ATOM     28  C   UNL     1       0.039  -3.254  -1.614  0.00  0.00    +0.157 C 
BRANCH  28  29
ATOM     29  C   UNL     1       1.464  -3.627  -1.934  0.00  0.00    -0.028 A 
ATOM     30  C   UNL     1       2.105  -3.044  -3.011  0.00  0.00    +0.005 A 
ATOM     31  C   UNL     1       3.412  -3.386  -3.305  0.00  0.00    +0.000 A 
ATOM     32  C   UNL     1       4.077  -4.310  -2.521  0.00  0.00    +0.000 A 
ATOM     33  C   UNL     1       3.436  -4.892  -1.443  0.00  0.00    +0.000 A 
ATOM     34  C   UNL     1       2.131  -4.546  -1.147  0.00  0.00    +0.005 A 
ENDBRANCH  28  29
ENDBRANCH   4  28
TORSDOF 8
