REMARK  Name = ZINC19961879
REMARK  8 active torsions:
REMARK  status: ('A' for Active; 'I' for Inactive)
REMARK    1  A    between atoms: C_1  and  C_2
REMARK    2  A    between atoms: C_2  and  C_3
REMARK    3  A    between atoms: C_8  and  N_9
REMARK    4  A    between atoms: C_10  and  C_12
REMARK    5  A    between atoms: C_12  and  C_13
REMARK    6  A    between atoms: C_21  and  C_23
REMARK    7  A    between atoms: C_23  and  N_24
REMARK    8  A    between atoms: N_27  and  C_30
REMARK                            x       y       z     vdW  Elec       q    Type
REMARK                         _______ _______ _______ _____ _____    ______ ____
ROOT
ATOM      1  C   UNL     1      -0.719   1.997   1.277  0.00  0.00    +0.170 C 
ATOM      2  C   UNL     1      -0.636   3.497   1.348  0.00  0.00    +0.234 C 
ATOM      3  O   UNL     1       0.428   4.005   1.629  0.00  0.00    -0.274 OA
ATOM      4  N   UNL     1      -1.680   4.295   1.115  0.00  0.00    -0.312 N 
ATOM      5  C   UNL     1      -3.035   3.829   0.857  0.00  0.00    +0.123 C 
ATOM      6  C   UNL     1      -3.026   2.383   0.355  0.00  0.00    +0.127 C 
ATOM      7  N   UNL     1      -2.135   1.600   1.228  0.00  0.00    -0.289 N 
ATOM      8  C   UNL     1      -2.597   0.562   1.952  0.00  0.00    +0.200 C 
ATOM      9  O   UNL     1      -1.842  -0.066   2.663  0.00  0.00    -0.278 OA
ATOM     10  H   UNL     1      -1.462   5.373   1.129  0.00  0.00    +0.149 HD
ENDROOT
BRANCH   1  11
ATOM     11  C   UNL     1      -0.005   1.503   0.017  0.00  0.00    +0.128 C 
BRANCH  11  13
ATOM     12  N   UNL     1       0.585  -0.664  -1.018  0.00  0.00    -0.285 N 
ATOM     13  C   UNL     1       0.005  -0.004   0.004  0.00  0.00    +0.219 C 
ATOM     14  O   UNL     1      -0.509  -0.622   0.912  0.00  0.00    -0.275 OA
ATOM     15  H   UNL     1       0.970  -0.108  -1.885  0.00  0.00    +0.155 HD
BRANCH  12  21
ATOM     16  C   UNL     1       0.790  -2.785  -2.155  0.00  0.00    -0.026 A 
ATOM     17  C   UNL     1       0.907  -4.161  -2.110  0.00  0.00    +0.005 A 
ATOM     18  C   UNL     1       0.919  -4.815  -0.892  0.00  0.00    +0.000 A 
ATOM     19  C   UNL     1       0.821  -4.095   0.284  0.00  0.00    +0.002 A 
ATOM     20  C   UNL     1       0.710  -2.719   0.246  0.00  0.00    +0.023 A 
ATOM     21  C   UNL     1       0.697  -2.059  -0.976  0.00  0.00    +0.037 A 
BRANCH  16  23
ATOM     22  C   UNL     1       2.184  -1.605  -3.833  0.00  0.00    +0.009 C 
ATOM     23  C   UNL     1       0.770  -2.073  -3.483  0.00  0.00    +0.033 C 
ENDBRANCH  16  23
ENDBRANCH  12  21
ENDBRANCH  11  13
ENDBRANCH   1  11
BRANCH   8  24
ATOM     24  C   UNL     1      -4.054   0.182   1.879  0.00  0.00    +0.019 C 
BRANCH  24  25
ATOM     25  N   UNL     1      -4.303  -0.971   2.754  0.00  0.00    +0.387 N 
ATOM     26  C   UNL     1      -3.608  -2.168   2.259  0.00  0.00    -0.059 C 
ATOM     27  C   UNL     1      -3.827  -3.324   3.238  0.00  0.00    +0.086 C 
ATOM     28  N   UNL     1      -5.268  -3.576   3.379  0.00  0.00    -0.333 N 
ATOM     29  C   UNL     1      -5.964  -2.380   3.873  0.00  0.00    +0.086 C 
ATOM     30  C   UNL     1      -5.744  -1.224   2.894  0.00  0.00    -0.059 C 
ATOM     31  H   UNL     1      -3.902  -0.732   3.749  0.00  0.00    -0.081 HD
BRANCH  28  32
ATOM     32  C   UNL     1      -5.506  -4.673   4.211  0.00  0.00    +0.030 A 
ATOM     33  C   UNL     1      -6.308  -4.532   5.336  0.00  0.00    +0.024 A 
ATOM     34  C   UNL     1      -6.546  -5.620   6.154  0.00  0.00    +0.022 A 
ATOM     35  C   UNL     1      -5.976  -6.846   5.859  0.00  0.00    +0.041 A 
ATOM     36  C   UNL     1      -5.173  -6.988   4.741  0.00  0.00    +0.022 A 
ATOM     37  C   UNL     1      -4.936  -5.905   3.917  0.00  0.00    +0.024 A 
ATOM     38 CL   UNL     1      -6.271  -8.209   6.893  0.00  0.00    -0.084 Cl
ENDBRANCH  28  32
ENDBRANCH  24  25
ENDBRANCH   8  24
TORSDOF 7
