REMARK  Name = ZINC20152073
REMARK  7 active torsions:
REMARK  status: ('A' for Active; 'I' for Inactive)
REMARK    1  A    between atoms: C_3  and  C_22
REMARK    2  A    between atoms: C_6  and  N_7
REMARK    3  A    between atoms: N_7  and  C_8
REMARK    4  A    between atoms: C_8  and  N_10
REMARK    5  A    between atoms: C_11  and  C_13
REMARK    6  A    between atoms: C_25  and  C_27
REMARK    7  A    between atoms: C_27  and  O_28
REMARK                            x       y       z     vdW  Elec       q    Type
REMARK                         _______ _______ _______ _____ _____    ______ ____
ROOT
ATOM      1  N   UNL     1      -1.200  -0.718   0.010  0.00  0.00    -0.297 N 
ATOM      2  H   UNL     1      -1.361  -1.389   0.691  0.00  0.00    +0.154 HD
ENDROOT
BRANCH   1   8
ATOM      3  C   UNL     1      -0.017   1.370  -0.247  0.00  0.00    +0.024 A 
ATOM      4  C   UNL     1       1.161   2.085  -0.248  0.00  0.00    +0.015 A 
ATOM      5  C   UNL     1       2.371   1.436   0.006  0.00  0.00    +0.036 A 
ATOM      6  C   UNL     1       2.382   0.062   0.263  0.00  0.00    +0.053 A 
ATOM      7  C   UNL     1       1.199  -0.647   0.263  0.00  0.00    +0.044 A 
ATOM      8  C   UNL     1      -0.003   0.004   0.009  0.00  0.00    +0.034 A 
ATOM      9 CL   UNL     1       3.883  -0.751   0.579  0.00  0.00    -0.083 Cl
BRANCH   5  10
ATOM     10  C   UNL     1       3.636   2.200   0.004  0.00  0.00    +0.137 A 
ATOM     11  C   UNL     1       4.588   2.169   0.975  0.00  0.00    +0.050 A 
ATOM     12  C   UNL     1       5.615   3.043   0.564  0.00  0.00    +0.047 A 
ATOM     13  C   UNL     1       5.243   3.558  -0.624  0.00  0.00    +0.131 A 
ATOM     14  O   UNL     1       4.049   3.042  -0.961  0.00  0.00    -0.457 OA
BRANCH  13  15
ATOM     15  C   UNL     1       6.037   4.544  -1.441  0.00  0.00    +0.230 C 
BRANCH  15  16
ATOM     16  O   UNL     1       6.901   3.837  -2.333  0.00  0.00    -0.387 OA
ATOM     17  H   UNL     1       7.444   4.410  -2.892  0.00  0.00    +0.210 HD
ENDBRANCH  15  16
ENDBRANCH  13  15
ENDBRANCH   5  10
ENDBRANCH   1   8
BRANCH   1  18
ATOM     18  C   UNL     1      -2.130  -0.481  -0.936  0.00  0.00    +0.141 C 
ATOM     19  S   UNL     1      -1.790   0.599  -2.220  0.00  0.00    -0.018 S 
BRANCH  18  20
ATOM     20  N   UNL     1      -3.329  -1.095  -0.872  0.00  0.00    -0.264 N 
ATOM     21  C   UNL     1      -4.259  -0.858  -1.818  0.00  0.00    +0.251 C 
ATOM     22  O   UNL     1      -4.017  -0.091  -2.729  0.00  0.00    -0.270 OA
ATOM     23  H   UNL     1      -3.521  -1.707  -0.144  0.00  0.00    +0.157 HD
BRANCH  21  24
ATOM     24  C   UNL     1      -5.571  -1.530  -1.747  0.00  0.00    +0.055 A 
ATOM     25  C   UNL     1      -5.854  -2.408  -0.697  0.00  0.00    +0.016 A 
ATOM     26  C   UNL     1      -7.082  -3.032  -0.636  0.00  0.00    +0.021 A 
ATOM     27  C   UNL     1      -8.035  -2.791  -1.613  0.00  0.00    +0.042 A 
ATOM     28  C   UNL     1      -7.762  -1.923  -2.656  0.00  0.00    +0.040 A 
ATOM     29  C   UNL     1      -6.538  -1.287  -2.726  0.00  0.00    +0.054 A 
ATOM     30 CL   UNL     1      -6.200  -0.193  -4.031  0.00  0.00    -0.083 Cl
ATOM     31 CL   UNL     1      -9.578  -3.583  -1.529  0.00  0.00    -0.083 Cl
ENDBRANCH  21  24
ENDBRANCH  18  20
ENDBRANCH   1  18
TORSDOF 7
