REMARK  Name = ZINC06418966
REMARK  11 active torsions:
REMARK  status: ('A' for Active; 'I' for Inactive)
REMARK    1  A    between atoms: C_1  and  C_2
REMARK    2  A    between atoms: C_4  and  O_30
REMARK    3  A    between atoms: C_7  and  C_8
REMARK    4  A    between atoms: C_9  and  O_23
REMARK    5  A    between atoms: C_11  and  O_21
REMARK    6  A    between atoms: C_15  and  C_20
REMARK    7  A    between atoms: C_17  and  C_19
REMARK    8  A    between atoms: O_21  and  C_22
REMARK    9  A    between atoms: C_27  and  O_28
REMARK   10  A    between atoms: O_28  and  C_29
REMARK   11  A    between atoms: O_30  and  C_31
REMARK                            x       y       z     vdW  Elec       q    Type
REMARK                         _______ _______ _______ _____ _____    ______ ____
ROOT
ATOM      1  C   UNL     1       0.930  -1.968   2.689  0.00  0.00    +0.028 A 
ATOM      2  C   UNL     1       0.725  -3.318   2.391  0.00  0.00    +0.128 A 
ATOM      3  C   UNL     1      -0.390  -3.696   1.663  0.00  0.00    +0.091 A 
ATOM      4  C   UNL     1      -1.292  -2.737   1.234  0.00  0.00    +0.125 A 
ATOM      5  C   UNL     1      -1.089  -1.390   1.527  0.00  0.00    -0.016 A 
ATOM      6  C   UNL     1       0.015  -1.005   2.252  0.00  0.00    -0.033 A 
ATOM      7  C   UNL     1       0.272   0.439   2.598  0.00  0.00    +0.020 C 
ATOM      8  C   UNL     1      -0.573   1.348   1.705  0.00  0.00    -0.070 C 
ATOM      9  C   UNL     1      -2.098  -0.389   1.025  0.00  0.00    -0.040 C 
ATOM     10  C   UNL     1      -3.507  -0.946   1.233  0.00  0.00    -0.009 C 
ATOM     11  C   UNL     1      -0.053   1.285   0.268  0.00  0.00    -0.013 C 
ATOM     12  N   UNL     1      -1.971   0.882   1.750  0.00  0.00    +0.385 N 
ATOM     13  H   UNL     1      -2.579   1.585   1.314  0.00  0.00    -0.085 HD
ATOM     14  H   UNL     1      -2.253   0.745   2.728  0.00  0.00    -0.085 HD
ENDROOT
BRANCH   1  21
ATOM     15  C   UNL     1       3.370  -1.315   1.316  0.00  0.00    +0.044 C 
ATOM     16  C   UNL     1       3.301  -1.238   2.819  0.00  0.00    -0.039 A 
ATOM     17  C   UNL     1       4.423  -0.846   3.539  0.00  0.00    +0.050 A 
ATOM     18  C   UNL     1       4.391  -0.772   4.914  0.00  0.00    +0.132 A 
ATOM     19  C   UNL     1       3.207  -1.093   5.607  0.00  0.00    +0.066 A 
ATOM     20  C   UNL     1       2.059  -1.489   4.881  0.00  0.00    -0.003 A 
ATOM     21  C   UNL     1       2.120  -1.556   3.467  0.00  0.00    -0.003 A 
ATOM     22  C   UNL     1       0.881  -1.810   5.571  0.00  0.00    +0.009 A 
ATOM     23  C   UNL     1       0.848  -1.739   6.931  0.00  0.00    +0.004 A 
ATOM     24  C   UNL     1       1.971  -1.351   7.655  0.00  0.00    +0.046 A 
ATOM     25  C   UNL     1       3.146  -1.028   7.013  0.00  0.00    +0.131 A 
BRANCH  25  26
ATOM     26  O   UNL     1       4.236  -0.649   7.729  0.00  0.00    -0.494 OA
ATOM     27  C   UNL     1       4.096  -0.607   9.150  0.00  0.00    +0.277 C 
ENDBRANCH  25  26
BRANCH  18  28
ATOM     28  O   UNL     1       5.499  -0.391   5.601  0.00  0.00    -0.494 OA
ATOM     29  C   UNL     1       6.664  -0.080   4.833  0.00  0.00    +0.277 C 
ENDBRANCH  18  28
ENDBRANCH   1  21
BRANCH   4  30
ATOM     30  O   UNL     1      -2.385  -3.113   0.520  0.00  0.00    -0.495 OA
ATOM     31  C   UNL     1      -2.537  -4.509   0.253  0.00  0.00    +0.277 C 
ENDBRANCH   4  30
BRANCH   2  32
ATOM     32  O   UNL     1       1.614  -4.254   2.814  0.00  0.00    -0.506 OA
ATOM     33  H   UNL     1       1.414  -4.621   3.687  0.00  0.00    +0.292 HD
ENDBRANCH   2  32
TORSDOF 5
