REMARK  Name = ZINC04590485
REMARK  6 active torsions:
REMARK  status: ('A' for Active; 'I' for Inactive)
REMARK    1  A    between atoms: C_1  and  C_2
REMARK    2  A    between atoms: C_2  and  C_26
REMARK    3  A    between atoms: C_6  and  C_14
REMARK    4  A    between atoms: C_8  and  C_12
REMARK    5  A    between atoms: C_9  and  N_11
REMARK    6  A    between atoms: C_16  and  N_20
REMARK                            x       y       z     vdW  Elec       q    Type
REMARK                         _______ _______ _______ _____ _____    ______ ____
ROOT
ATOM      1  C   UNL     1       1.648  -1.286   5.800  0.00  0.00    +0.012 C 
ATOM      2  C   UNL     1       3.001  -1.397   5.094  0.00  0.00    -0.021 C 
ATOM      3  C   UNL     1       3.678  -0.026   5.063  0.00  0.00    +0.081 C 
ATOM      4  C   UNL     1       2.818   0.950   4.294  0.00  0.00    +0.115 C 
ATOM      5  C   UNL     1       2.040   0.528   3.281  0.00  0.00    +0.046 C 
ATOM      6  C   UNL     1       1.190   1.506   2.506  0.00  0.00    +0.105 C 
ATOM      7  C   UNL     1       1.013   2.773   3.294  0.00  0.00    +0.098 C 
ATOM      8  C   UNL     1       1.852   3.066   4.318  0.00  0.00    +0.198 C 
ATOM      9  O   UNL     1       2.861   2.247   4.652  0.00  0.00    -0.445 OA
ATOM     10  C   UNL     1       1.991  -0.831   2.912  0.00  0.00    +0.164 C 
ATOM     11  O   UNL     1       1.289  -1.171   1.981  0.00  0.00    -0.292 OA
ATOM     12  C   UNL     1       2.792  -1.868   3.651  0.00  0.00    +0.086 C 
ATOM     13  C   UNL     1       3.889  -2.397   5.837  0.00  0.00    +0.012 C 
ENDROOT
BRANCH   6  14
ATOM     14  C   UNL     1       1.863   1.822   1.195  0.00  0.00    +0.014 A 
ATOM     15  C   UNL     1       3.119   2.397   1.183  0.00  0.00    +0.041 A 
ATOM     16  C   UNL     1       3.734   2.692  -0.019  0.00  0.00    +0.127 A 
ATOM     17  C   UNL     1       3.096   2.409  -1.213  0.00  0.00    +0.036 A 
ATOM     18  C   UNL     1       1.842   1.830  -1.207  0.00  0.00    +0.053 A 
ATOM     19  C   UNL     1       1.223   1.532  -0.001  0.00  0.00    +0.183 A 
ATOM     20  O   UNL     1      -0.011   0.963   0.007  0.00  0.00    -0.288 OA
BRANCH  16  21
ATOM     21  N   UNL     1       5.078   3.312  -0.029  0.00  0.00    +0.056 N 
ATOM     22  O   UNL     1       5.621   3.573  -1.087  0.00  0.00    -0.126 OA
ATOM     23  O   UNL     1       5.641   3.562   1.022  0.00  0.00    -0.126 OA
ENDBRANCH  16  21
ENDBRANCH   6  14
BRANCH   8  24
ATOM     24  N   UNL     1       1.666   4.226   5.027  0.00  0.00    -0.328 N 
ATOM     25  H   UNL     1       0.940   4.826   4.795  0.00  0.00    +0.145 HD
ATOM     26  H   UNL     1       2.260   4.446   5.762  0.00  0.00    +0.145 HD
ENDBRANCH   8  24
BRANCH   7  27
ATOM     27  C   UNL     1      -0.048   3.676   2.963  0.00  0.00    +0.101 C 
ATOM     28  N   UNL     1      -0.890   4.392   2.700  0.00  0.00    -0.191 NA
ENDBRANCH   7  27
TORSDOF 4
