REMARK  Name = ZINC03285698
REMARK  9 active torsions:
REMARK  status: ('A' for Active; 'I' for Inactive)
REMARK    1  A    between atoms: C_1  and  C_2
REMARK    2  A    between atoms: C_2  and  O_3
REMARK    3  A    between atoms: O_3  and  C_4
REMARK    4  A    between atoms: C_4  and  C_6
REMARK    5  A    between atoms: N_11  and  C_13
REMARK    6  A    between atoms: C_13  and  C_14
REMARK    7  A    between atoms: N_16  and  C_17
REMARK    8  A    between atoms: C_18  and  C_26
REMARK    9  A    between atoms: N_28  and  C_29
REMARK                            x       y       z     vdW  Elec       q    Type
REMARK                         _______ _______ _______ _____ _____    ______ ____
ROOT
ATOM      1  C   UNL     1       7.178   5.305   2.277  0.00  0.00    +0.084 A 
ATOM      2  C   UNL     1       8.559   5.350   2.407  0.00  0.00    +0.069 A 
ATOM      3  C   UNL     1       9.162   4.537   3.449  0.00  0.00    -0.023 A 
ATOM      4  C   UNL     1       8.294   3.813   4.189  0.00  0.00    -0.004 A 
ATOM      5  S   UNL     1       6.700   4.204   3.526  0.00  0.00    -0.077 S 
ATOM      6  C   UNL     1       8.623   2.890   5.322  0.00  0.00    +0.043 C 
ATOM      7  C   UNL     1      10.130   2.595   5.283  0.00  0.00    +0.005 C 
ATOM      8  C   UNL     1      10.887   3.916   5.122  0.00  0.00    +0.005 C 
ATOM      9  C   UNL     1      10.661   4.478   3.718  0.00  0.00    +0.037 C 
ENDROOT
BRANCH   1  12
ATOM     10  C   UNL     1       5.039   5.810   1.395  0.00  0.00    +0.201 C 
ATOM     11  O   UNL     1       4.538   5.064   2.210  0.00  0.00    -0.278 OA
ATOM     12  N   UNL     1       6.376   5.981   1.371  0.00  0.00    -0.281 N 
ATOM     13  H   UNL     1       6.830   6.658   0.632  0.00  0.00    +0.155 HD
BRANCH  10  14
ATOM     14  C   UNL     1       4.167   6.545   0.411  0.00  0.00    +0.019 C 
BRANCH  14  19
ATOM     15  C   UNL     1       1.061   4.426   0.621  0.00  0.00    +0.081 C 
ATOM     16  C   UNL     1       0.531   4.921   1.970  0.00  0.00    +0.011 C 
ATOM     17  C   UNL     1       0.801   6.423   2.095  0.00  0.00    -0.018 C 
ATOM     18  C   UNL     1       2.302   6.681   1.949  0.00  0.00    -0.078 C 
ATOM     19  N   UNL     1       2.760   6.191   0.643  0.00  0.00    +0.386 N 
ATOM     20  C   UNL     1       2.555   4.742   0.518  0.00  0.00    -0.064 C 
ATOM     21  H   UNL     1       2.154   6.683  -0.132  0.00  0.00    -0.081 HD
BRANCH  15  22
ATOM     22  C   UNL     1       0.853   2.938   0.515  0.00  0.00    +0.308 C 
ATOM     23  O   UNL     1       1.802   2.204   0.368  0.00  0.00    -0.251 OA
BRANCH  22  24
ATOM     24  O   UNL     1      -0.387   2.426   0.583  0.00  0.00    -0.465 OA
BRANCH  24  26
ATOM     25  C   UNL     1      -1.987   0.591   0.573  0.00  0.00    +0.048 C 
ATOM     26  C   UNL     1      -0.512   0.984   0.473  0.00  0.00    +0.229 C 
ENDBRANCH  24  26
ENDBRANCH  22  24
ENDBRANCH  15  22
ENDBRANCH  14  19
ENDBRANCH  10  14
ENDBRANCH   1  12
BRANCH   2  27
ATOM     27  C   UNL     1       9.379   6.188   1.526  0.00  0.00    +0.251 C 
ATOM     28  O   UNL     1       9.629   7.337   1.839  0.00  0.00    -0.270 OA
ATOM     29  N   UNL     1       9.856   5.685   0.370  0.00  0.00    -0.281 N 
ATOM     30  H   UNL     1       9.704   4.623   0.128  0.00  0.00    +0.155 HD
BRANCH  29  31
ATOM     31  C   UNL     1      10.544   6.514  -0.522  0.00  0.00    +0.034 A 
ATOM     32  C   UNL     1      11.584   6.002  -1.287  0.00  0.00    +0.025 A 
ATOM     33  C   UNL     1      12.258   6.821  -2.171  0.00  0.00    +0.022 A 
ATOM     34  C   UNL     1      11.905   8.155  -2.287  0.00  0.00    +0.041 A 
ATOM     35  C   UNL     1      10.873   8.669  -1.522  0.00  0.00    +0.022 A 
ATOM     36  C   UNL     1      10.192   7.852  -0.641  0.00  0.00    +0.025 A 
ATOM     37 CL   UNL     1      12.759   9.184  -3.394  0.00  0.00    -0.084 Cl
ENDBRANCH  29  31
ENDBRANCH   2  27
TORSDOF 8
