REMARK  Name = ZINC12249691
REMARK  4 active torsions:
REMARK  status: ('A' for Active; 'I' for Inactive)
REMARK    1  A    between atoms: C_3  and  C_9
REMARK    2  A    between atoms: C_6  and  C_7
REMARK    3  A    between atoms: C_10  and  N_27
REMARK    4  A    between atoms: C_14  and  C_18
REMARK                            x       y       z     vdW  Elec       q    Type
REMARK                         _______ _______ _______ _____ _____    ______ ____
ROOT
ATOM      1  C   UNL     1      -2.407   0.969  -0.083  0.00  0.00    +0.043 A 
ATOM      2  C   UNL     1      -1.245   1.639   0.151  0.00  0.00    +0.049 A 
ATOM      3  C   UNL     1      -1.280   3.090   0.244  0.00  0.00    +0.029 A 
ATOM      4  C   UNL     1      -0.208   3.990   0.473  0.00  0.00    +0.014 A 
ATOM      5  C   UNL     1      -0.461   5.327   0.517  0.00  0.00    +0.029 A 
ATOM      6  C   UNL     1      -1.761   5.809   0.333  0.00  0.00    +0.072 A 
ATOM      7  N   UNL     1      -2.762   4.965   0.114  0.00  0.00    -0.239 NA
ATOM      8  C   UNL     1      -2.559   3.668   0.064  0.00  0.00    +0.111 A 
ATOM      9  S   UNL     1      -3.620   2.269  -0.200  0.00  0.00    -0.067 S 
ENDROOT
BRANCH   6  10
ATOM     10  C   UNL     1      -2.022   7.267   0.383  0.00  0.00    +0.004 A 
ATOM     11  C   UNL     1      -0.960   8.163   0.509  0.00  0.00    +0.014 A 
ATOM     12  C   UNL     1      -1.204   9.520   0.555  0.00  0.00    +0.050 A 
ATOM     13  C   UNL     1      -2.504   9.998   0.476  0.00  0.00    +0.166 A 
ATOM     14  C   UNL     1      -3.569   9.107   0.350  0.00  0.00    +0.167 A 
ATOM     15  C   UNL     1      -3.329   7.746   0.299  0.00  0.00    +0.059 A 
ATOM     16  O   UNL     1      -4.731   9.822   0.293  0.00  0.00    -0.453 OA
ATOM     17  C   UNL     1      -4.338  11.169  -0.027  0.00  0.00    +0.466 C 
ATOM     18  O   UNL     1      -3.001  11.269   0.498  0.00  0.00    -0.453 OA
ENDBRANCH   6  10
BRANCH   1  21
ATOM     19  C   UNL     1      -3.849  -2.452   0.366  0.00  0.00    +0.019 A 
ATOM     20  C   UNL     1      -3.659  -1.106   0.483  0.00  0.00    +0.010 A 
ATOM     21  C   UNL     1      -2.613  -0.484  -0.209  0.00  0.00    -0.009 A 
ATOM     22  C   UNL     1      -1.766  -1.242  -1.026  0.00  0.00    +0.010 A 
ATOM     23  C   UNL     1      -1.953  -2.590  -1.138  0.00  0.00    +0.019 A 
ATOM     24  C   UNL     1      -2.999  -3.211  -0.446  0.00  0.00    +0.052 A 
BRANCH  24  25
ATOM     25  C   UNL     1      -3.199  -4.624  -0.569  0.00  0.00    +0.099 C 
ATOM     26  N   UNL     1      -3.358  -5.744  -0.666  0.00  0.00    -0.191 NA
ENDBRANCH  24  25
ENDBRANCH   1  21
BRANCH   2  27
ATOM     27  N   UNL     1      -0.041   0.944   0.306  0.00  0.00    -0.357 N 
ATOM     28  H   UNL     1      -0.041  -0.025   0.338  0.00  0.00    +0.142 HD
ATOM     29  H   UNL     1       0.794   1.432   0.377  0.00  0.00    +0.142 HD
ENDBRANCH   2  27
TORSDOF 4
