REMARK  Name = ZINC37943933
REMARK  3 active torsions:
REMARK  status: ('A' for Active; 'I' for Inactive)
REMARK    1  A    between atoms: C_2  and  C_11
REMARK    2  A    between atoms: C_11  and  C_13
REMARK    3  A    between atoms: C_11  and  N_16
REMARK                            x       y       z     vdW  Elec       q    Type
REMARK                         _______ _______ _______ _____ _____    ______ ____
ROOT
ATOM      1  C   UNL     1       1.147   3.596   0.010  0.00  0.00    +0.174 C 
ENDROOT
BRANCH   1   3
ATOM      2  C   UNL     1      -0.017   1.381   0.010  0.00  0.00    +0.055 A 
ATOM      3  C   UNL     1       1.171   2.090   0.002  0.00  0.00    -0.017 A 
ATOM      4  C   UNL     1       2.379   1.419  -0.013  0.00  0.00    +0.024 A 
ATOM      5  C   UNL     1       2.406   0.036  -0.021  0.00  0.00    +0.064 A 
ATOM      6  C   UNL     1       1.220  -0.680  -0.014  0.00  0.00    +0.180 A 
ATOM      7  C   UNL     1       0.002  -0.004   0.002  0.00  0.00    +0.168 A 
ATOM      8  O   UNL     1      -1.007  -0.923   0.006  0.00  0.00    -0.453 OA
ATOM      9  C   UNL     1      -0.404  -2.159  -0.419  0.00  0.00    +0.466 C 
ATOM     10  O   UNL     1       0.973  -2.023  -0.020  0.00  0.00    -0.451 OA
ATOM     11 BR   UNL     1       4.061  -0.877  -0.043  0.00  0.00    -0.046 Br
ENDBRANCH   1   3
BRANCH   1  12
ATOM     12  N   UNL     1       2.192   4.107  -0.887  0.00  0.00    -0.290 NA
ATOM     13  C   UNL     1       2.024   3.589  -2.224  0.00  0.00    +0.083 C 
ATOM     14  C   UNL     1       3.364   3.290  -2.925  0.00  0.00    -0.004 C 
ATOM     15  C   UNL     1       4.413   4.389  -2.666  0.00  0.00    -0.081 C 
ATOM     16  N   UNL     1       3.834   5.710  -2.725  0.00  0.00    +0.380 N 
ATOM     17  C   UNL     1       3.486   6.120  -1.351  0.00  0.00    -0.067 C 
ATOM     18  C   UNL     1       2.198   5.592  -0.905  0.00  0.00    +0.066 C 
ATOM     19  H   UNL     1       4.502   6.357  -3.115  0.00  0.00    -0.086 HD
ATOM     20  H   UNL     1       3.002   5.692  -3.296  0.00  0.00    -0.086 HD
ENDBRANCH   1  12
BRANCH   1  21
ATOM     21  C   UNL     1       1.399   4.095   1.410  0.00  0.00    +0.232 C 
ATOM     22  O   UNL     1       2.355   4.806   1.637  0.00  0.00    -0.274 OA
ATOM     23  N   UNL     1       0.562   3.751   2.409  0.00  0.00    -0.328 N 
ATOM     24  H   UNL     1      -0.202   3.182   2.227  0.00  0.00    +0.145 HD
ATOM     25  H   UNL     1       0.725   4.072   3.310  0.00  0.00    +0.145 HD
ENDBRANCH   1  21
TORSDOF 3
