REMARK  Name = ZINC51855654
REMARK  10 active torsions:
REMARK  status: ('A' for Active; 'I' for Inactive)
REMARK    1  A    between atoms: C_1  and  C_2
REMARK    2  A    between atoms: C_2  and  C_4
REMARK    3  A    between atoms: C_2  and  N_15
REMARK    4  A    between atoms: C_7  and  N_10
REMARK    5  A    between atoms: N_15  and  C_16
REMARK    6  A    between atoms: N_15  and  C_17
REMARK    7  A    between atoms: C_17  and  C_18
REMARK    8  A    between atoms: N_20  and  C_21
REMARK    9  A    between atoms: C_21  and  C_23
REMARK   10  A    between atoms: C_21  and  C_24
REMARK                            x       y       z     vdW  Elec       q    Type
REMARK                         _______ _______ _______ _____ _____    ______ ____
ROOT
ATOM      1  N   UNL     1       1.206  -1.314   1.248  0.00  0.00    +0.388 N 
ATOM      2  C   UNL     1       1.436  -2.745   1.491  0.00  0.00    -0.095 C 
ATOM      3  H   UNL     1       2.088  -0.826   1.253  0.00  0.00    -0.081 HD
ENDROOT
BRANCH   1   5
ATOM      4  C   UNL     1       0.315   0.352  -0.309  0.00  0.00    -0.008 C 
ATOM      5  C   UNL     1       0.555  -1.137  -0.057  0.00  0.00    -0.041 C 
BRANCH   5   6
ATOM      6  C   UNL     1       1.443  -1.694  -1.140  0.00  0.00    -0.061 A 
ATOM      7  C   UNL     1       2.811  -1.502  -1.077  0.00  0.00    +0.004 A 
ATOM      8  C   UNL     1       3.627  -2.011  -2.068  0.00  0.00    +0.028 A 
ATOM      9  C   UNL     1       3.072  -2.715  -3.129  0.00  0.00    +0.067 A 
ATOM     10  C   UNL     1       1.698  -2.905  -3.189  0.00  0.00    +0.028 A 
ATOM     11  C   UNL     1       0.888  -2.399  -2.192  0.00  0.00    +0.004 A 
BRANCH   9  12
ATOM     12  N   UNL     1       3.898  -3.233  -4.137  0.00  0.00    -0.220 N 
ATOM     13  C   UNL     1       3.508  -3.928  -5.223  0.00  0.00    +0.225 A 
ATOM     14  N   UNL     1       4.577  -4.229  -5.916  0.00  0.00    -0.222 NA
ATOM     15  C   UNL     1       5.661  -3.748  -5.308  0.00  0.00    +0.245 A 
ATOM     16  N   UNL     1       5.296  -3.125  -4.218  0.00  0.00    -0.154 NA
ENDBRANCH   9  12
ENDBRANCH   5   6
ENDBRANCH   1   5
BRANCH   1  17
ATOM     17  C   UNL     1       0.340  -0.772   2.304  0.00  0.00    +0.019 C 
BRANCH  17  18
ATOM     18  C   UNL     1       1.059  -0.842   3.627  0.00  0.00    +0.197 C 
ATOM     19  O   UNL     1       2.181  -1.298   3.685  0.00  0.00    -0.278 OA
ATOM     20  N   UNL     1       0.454  -0.397   4.747  0.00  0.00    -0.306 N 
ATOM     21  H   UNL     1      -0.444  -0.032   4.701  0.00  0.00    +0.149 HD
BRANCH  20  22
ATOM     22  C   UNL     1       1.152  -0.465   6.033  0.00  0.00    +0.156 C 
ATOM     23  C   UNL     1       2.039   0.771   6.197  0.00  0.00    +0.038 C 
BRANCH  22  24
ATOM     24  C   UNL     1       0.142  -0.510   7.151  0.00  0.00    +0.236 C 
ATOM     25  O   UNL     1      -0.957  -0.024   6.995  0.00  0.00    -0.274 OA
ATOM     26  N   UNL     1       0.462  -1.092   8.324  0.00  0.00    -0.300 N 
ATOM     27  C   UNL     1       1.825  -1.583   8.570  0.00  0.00    +0.108 C 
ATOM     28  C   UNL     1       2.343  -0.967   9.873  0.00  0.00    +0.019 C 
ATOM     29  C   UNL     1       1.354  -1.266  11.002  0.00  0.00    +0.003 C 
ATOM     30  C   UNL     1      -0.002  -0.635  10.676  0.00  0.00    +0.019 C 
ATOM     31  C   UNL     1      -0.545  -1.242   9.384  0.00  0.00    +0.108 C 
ENDBRANCH  22  24
ENDBRANCH  20  22
ENDBRANCH  17  18
ENDBRANCH   1  17
TORSDOF 7
