REMARK  Name = ZINC58836698
REMARK  5 active torsions:
REMARK  status: ('A' for Active; 'I' for Inactive)
REMARK    1  A    between atoms: C_6  and  C_7
REMARK    2  A    between atoms: N_8  and  C_9
REMARK    3  A    between atoms: C_13  and  C_18
REMARK    4  A    between atoms: C_18  and  C_19
REMARK    5  A    between atoms: N_21  and  C_22
REMARK                            x       y       z     vdW  Elec       q    Type
REMARK                         _______ _______ _______ _____ _____    ______ ____
ROOT
ATOM      1  C   UNL     1      -3.665  -0.895  -0.003  0.00  0.00    +0.227 C 
ATOM      2  C   UNL     1      -4.366  -0.603   1.280  0.00  0.00    +0.056 C 
ATOM      3  N   UNL     1      -3.860  -0.830   2.433  0.00  0.00    -0.305 NA
ATOM      4  C   UNL     1      -5.739  -0.008   1.068  0.00  0.00    +0.109 C 
ATOM      5  S   UNL     1      -5.897   0.076  -0.752  0.00  0.00    -0.076 S 
ATOM      6  C   UNL     1      -4.429  -0.553  -1.250  0.00  0.00    +0.220 C 
ATOM      7  O   UNL     1      -4.056  -0.704  -2.394  0.00  0.00    -0.282 OA
ATOM      8  H   UNL     1      -2.973  -1.214   2.506  0.00  0.00    +0.186 HD
ENDROOT
BRANCH   1  10
ATOM      9  C   UNL     1      -1.277  -0.780  -0.043  0.00  0.00    +0.114 C 
ATOM     10  N   UNL     1      -2.405  -0.147  -0.019  0.00  0.00    -0.273 NA
BRANCH   9  16
ATOM     11  C   UNL     1      -0.023   1.369  -0.047  0.00  0.00    +0.013 A 
ATOM     12  C   UNL     1       1.163   2.070  -0.060  0.00  0.00    +0.050 A 
ATOM     13  C   UNL     1       2.374   1.394  -0.085  0.00  0.00    +0.166 A 
ATOM     14  C   UNL     1       2.396  -0.002  -0.097  0.00  0.00    +0.167 A 
ATOM     15  C   UNL     1       1.211  -0.710  -0.084  0.00  0.00    +0.059 A 
ATOM     16  C   UNL     1      -0.009  -0.028  -0.058  0.00  0.00    -0.004 A 
ATOM     17  O   UNL     1       3.696  -0.417  -0.122  0.00  0.00    -0.453 OA
ATOM     18  C   UNL     1       4.458   0.732  -0.538  0.00  0.00    +0.466 C 
ATOM     19  O   UNL     1       3.660   1.849  -0.102  0.00  0.00    -0.453 OA
ENDBRANCH   9  16
ENDBRANCH   1  10
BRANCH   4  20
ATOM     20  C   UNL     1      -6.816  -0.916   1.664  0.00  0.00    +0.116 C 
BRANCH  20  21
ATOM     21  C   UNL     1      -8.160  -0.243   1.549  0.00  0.00    +0.219 C 
ATOM     22  O   UNL     1      -8.247   0.855   1.041  0.00  0.00    -0.275 OA
ATOM     23  N   UNL     1      -9.265  -0.861   2.011  0.00  0.00    -0.284 N 
ATOM     24  H   UNL     1      -9.205  -1.765   2.359  0.00  0.00    +0.155 HD
BRANCH  23  25
ATOM     25  C   UNL     1     -10.498  -0.199   1.990  0.00  0.00    +0.053 A 
ATOM     26  C   UNL     1     -10.800   0.675   0.955  0.00  0.00    +0.044 A 
ATOM     27  C   UNL     1     -12.019   1.327   0.937  0.00  0.00    +0.043 A 
ATOM     28  C   UNL     1     -12.937   1.109   1.949  0.00  0.00    +0.021 A 
ATOM     29  C   UNL     1     -12.638   0.240   2.982  0.00  0.00    +0.023 A 
ATOM     30  C   UNL     1     -11.424  -0.419   3.003  0.00  0.00    +0.062 A 
ATOM     31 CL   UNL     1     -11.052  -1.516   4.296  0.00  0.00    -0.082 Cl
ATOM     32 CL   UNL     1     -12.399   2.420  -0.357  0.00  0.00    -0.083 Cl
ENDBRANCH  23  25
ENDBRANCH  20  21
ENDBRANCH   4  20
TORSDOF 5
