REMARK  Name = ZINC40870580
REMARK  8 active torsions:
REMARK  status: ('A' for Active; 'I' for Inactive)
REMARK    1  A    between atoms: C_1  and  C_2
REMARK    2  A    between atoms: C_2  and  C_3
REMARK    3  A    between atoms: C_2  and  C_4
REMARK    4  A    between atoms: C_2  and  C_5
REMARK    5  A    between atoms: C_10  and  O_11
REMARK    6  A    between atoms: O_11  and  C_12
REMARK    7  A    between atoms: C_12  and  C_13
REMARK    8  A    between atoms: C_19  and  C_21
REMARK                            x       y       z     vdW  Elec       q    Type
REMARK                         _______ _______ _______ _____ _____    ______ ____
ROOT
ATOM      1  C   UNL     1      -0.069  -4.969   0.222  0.00  0.00    +0.256 C 
ATOM      2  O   UNL     1      -0.608  -4.432   1.167  0.00  0.00    -0.272 OA
ATOM      3  N   UNL     1      -0.015  -6.314   0.151  0.00  0.00    -0.260 N 
ATOM      4  C   UNL     1      -0.577  -7.086   1.162  0.00  0.00    +0.188 A 
ATOM      5  N   UNL     1      -1.204  -6.697   2.254  0.00  0.00    -0.126 NA
ATOM      6  N   UNL     1      -1.666  -7.525   3.090  0.00  0.00    -0.142 NA
ATOM      7  C   UNL     1      -1.517  -8.815   2.864  0.00  0.00    +0.132 A 
ATOM      8  S   UNL     1      -0.641  -8.765   1.307  0.00  0.00    -0.033 S 
ATOM      9  H   UNL     1       0.416  -6.743  -0.604  0.00  0.00    +0.157 HD
ENDROOT
BRANCH   7  10
ATOM     10  C   UNL     1      -1.964  -9.998   3.684  0.00  0.00    +0.175 C 
ATOM     11  C   UNL     1      -1.074 -10.146   4.943  0.00  0.00    +0.041 C 
ATOM     12  C   UNL     1      -2.035 -10.910   5.895  0.00  0.00    +0.031 C 
ATOM     13  C   UNL     1      -3.412 -10.331   5.504  0.00  0.00    +0.161 C 
ATOM     14  O   UNL     1      -3.293  -9.784   4.184  0.00  0.00    -0.370 OA
ENDBRANCH   7  10
BRANCH   1  15
ATOM     15  C   UNL     1       0.540  -4.132  -0.874  0.00  0.00    +0.325 C 
BRANCH  15  16
ATOM     16  O   UNL     1       0.356  -2.747  -0.573  0.00  0.00    -0.482 OA
BRANCH  16  22
ATOM     17  C   UNL     1       0.707  -0.490  -1.238  0.00  0.00    -0.000 A 
ATOM     18  C   UNL     1       1.217   0.419  -2.145  0.00  0.00    +0.008 A 
ATOM     19  C   UNL     1       1.863  -0.026  -3.283  0.00  0.00    +0.001 A 
ATOM     20  C   UNL     1       2.003  -1.382  -3.516  0.00  0.00    +0.004 A 
ATOM     21  C   UNL     1       1.496  -2.295  -2.612  0.00  0.00    +0.046 A 
ATOM     22  C   UNL     1       0.851  -1.851  -1.467  0.00  0.00    +0.125 A 
BRANCH  17  24
ATOM     23  C   UNL     1      -0.019   1.526   0.010  0.00  0.00    +0.015 C 
ATOM     24  C   UNL     1       0.002  -0.004   0.002  0.00  0.00    -0.009 C 
ATOM     25  C   UNL     1       0.742  -0.511   1.242  0.00  0.00    +0.015 C 
ATOM     26  C   UNL     1      -1.433  -0.534   0.013  0.00  0.00    +0.015 C 
ENDBRANCH  17  24
ENDBRANCH  16  22
ENDBRANCH  15  16
ENDBRANCH   1  15
TORSDOF 5
