REMARK  Name = ZINC25786042
REMARK  10 active torsions:
REMARK  status: ('A' for Active; 'I' for Inactive)
REMARK    1  A    between atoms: C_1  and  C_2
REMARK    2  A    between atoms: C_2  and  C_4
REMARK    3  A    between atoms: C_2  and  O_13
REMARK    4  A    between atoms: N_9  and  C_10
REMARK    5  A    between atoms: C_10  and  C_11
REMARK    6  A    between atoms: C_10  and  C_12
REMARK    7  A    between atoms: O_13  and  C_14
REMARK    8  A    between atoms: C_14  and  C_16
REMARK    9  A    between atoms: C_18  and  C_28
REMARK   10  A    between atoms: N_19  and  C_21
REMARK                            x       y       z     vdW  Elec       q    Type
REMARK                         _______ _______ _______ _____ _____    ______ ____
ROOT
ATOM      1  C   UNL     1      -3.240  -1.358   1.376  0.00  0.00    +0.170 A 
ATOM      2  C   UNL     1      -4.007  -1.772   2.487  0.00  0.00    +0.068 A 
ATOM      3  C   UNL     1      -5.274  -1.965   2.004  0.00  0.00    +0.110 A 
ATOM      4  N   UNL     1      -5.235  -1.673   0.668  0.00  0.00    -0.228 N 
ATOM      5  N   UNL     1      -4.047  -1.319   0.332  0.00  0.00    -0.159 NA
ENDROOT
BRANCH   4   6
ATOM      6  C   UNL     1      -6.329  -1.744  -0.203  0.00  0.00    +0.068 A 
ATOM      7  C   UNL     1      -7.561  -1.230   0.184  0.00  0.00    +0.028 A 
ATOM      8  C   UNL     1      -8.638  -1.301  -0.677  0.00  0.00    +0.003 A 
ATOM      9  C   UNL     1      -8.493  -1.883  -1.923  0.00  0.00    +0.020 A 
ATOM     10  C   UNL     1      -7.268  -2.397  -2.311  0.00  0.00    +0.043 A 
ATOM     11  C   UNL     1      -6.184  -2.324  -1.456  0.00  0.00    +0.047 A 
ATOM     12 CL   UNL     1      -7.090  -3.127  -3.876  0.00  0.00    -0.083 Cl
ENDBRANCH   4   6
BRANCH   3  13
ATOM     13  C   UNL     1      -6.451  -2.404   2.774  0.00  0.00    +0.153 A 
ATOM     14  C   UNL     1      -6.552  -2.434   4.132  0.00  0.00    +0.051 A 
ATOM     15  C   UNL     1      -7.840  -2.917   4.432  0.00  0.00    +0.042 A 
ATOM     16  C   UNL     1      -8.457  -3.155   3.257  0.00  0.00    +0.196 A 
ATOM     17  O   UNL     1      -7.617  -2.839   2.258  0.00  0.00    -0.461 OA
ENDBRANCH   3  13
BRANCH   1  18
ATOM     18  C   UNL     1      -1.803  -1.024   1.382  0.00  0.00    +0.360 C 
ATOM     19  O   UNL     1      -1.166  -1.100   2.414  0.00  0.00    -0.243 OA
BRANCH  18  20
ATOM     20  O   UNL     1      -1.197  -0.636   0.243  0.00  0.00    -0.448 OA
BRANCH  20  22
ATOM     21  C   UNL     1       0.373   1.156   0.649  0.00  0.00    +0.062 C 
ATOM     22  C   UNL     1       0.197  -0.328   0.322  0.00  0.00    +0.259 C 
BRANCH  22  23
ATOM     23  C   UNL     1       0.854  -0.633  -0.999  0.00  0.00    +0.261 C 
ATOM     24  O   UNL     1       0.181  -0.985  -1.944  0.00  0.00    -0.271 OA
ATOM     25  N   UNL     1       2.190  -0.516  -1.130  0.00  0.00    -0.237 N 
ATOM     26  C   UNL     1       2.778  -0.789  -2.312  0.00  0.00    +0.306 C 
ATOM     27  O   UNL     1       2.103  -1.141  -3.259  0.00  0.00    -0.252 OA
ATOM     28  N   UNL     1       4.114  -0.672  -2.442  0.00  0.00    -0.297 N 
ATOM     29  H   UNL     1       2.729  -0.235  -0.374  0.00  0.00    +0.159 HD
ATOM     30  H   UNL     1       4.653  -0.391  -1.686  0.00  0.00    +0.151 HD
BRANCH  28  31
ATOM     31  C   UNL     1       4.754  -0.968  -3.727  0.00  0.00    +0.068 C 
ATOM     32  C   UNL     1       6.076  -0.205  -3.827  0.00  0.00    +0.027 C 
ATOM     33  C   UNL     1       5.023  -2.471  -3.827  0.00  0.00    +0.027 C 
ENDBRANCH  28  31
ENDBRANCH  22  23
ENDBRANCH  20  22
ENDBRANCH  18  20
ENDBRANCH   1  18
TORSDOF 7
