REMARK  Name = ZINC38684854
REMARK  11 active torsions:
REMARK  status: ('A' for Active; 'I' for Inactive)
REMARK    1  A    between atoms: C_1  and  C_2
REMARK    2  A    between atoms: C_2  and  O_3
REMARK    3  A    between atoms: O_3  and  C_4
REMARK    4  A    between atoms: C_8  and  C_10
REMARK    5  A    between atoms: C_15  and  O_24
REMARK    6  A    between atoms: C_19  and  N_23
REMARK    7  A    between atoms: C_20  and  C_21
REMARK    8  A    between atoms: O_24  and  C_25
REMARK    9  A    between atoms: C_25  and  C_27
REMARK   10  A    between atoms: C_27  and  O_28
REMARK   11  A    between atoms: O_28  and  C_29
REMARK                            x       y       z     vdW  Elec       q    Type
REMARK                         _______ _______ _______ _____ _____    ______ ____
ROOT
ATOM      1  C   UNL     1      -4.283  -4.415   0.035  0.00  0.00    +0.098 C 
ATOM      2  C   UNL     1      -4.476  -5.240  -1.209  0.00  0.00    +0.008 A 
ATOM      3  C   UNL     1      -4.800  -4.612  -2.399  0.00  0.00    +0.012 A 
ATOM      4  C   UNL     1      -4.980  -5.353  -3.550  0.00  0.00    +0.047 A 
ATOM      5  C   UNL     1      -4.837  -6.733  -3.517  0.00  0.00    +0.135 A 
ATOM      6  C   UNL     1      -4.512  -7.365  -2.328  0.00  0.00    +0.093 A 
ATOM      7  C   UNL     1      -4.330  -6.618  -1.170  0.00  0.00    +0.138 A 
ATOM      8  O   UNL     1      -4.013  -7.252  -0.014  0.00  0.00    -0.441 OA
ATOM      9  C   UNL     1      -4.210  -6.636   1.163  0.00  0.00    +0.199 C 
ATOM     10  C   UNL     1      -4.344  -5.295   1.253  0.00  0.00    +0.098 C 
ENDROOT
BRANCH   1  15
ATOM     11  C   UNL     1      -1.629  -1.726  -0.045  0.00  0.00    +0.121 A 
ATOM     12  C   UNL     1      -0.471  -2.486  -0.125  0.00  0.00    +0.045 A 
ATOM     13  C   UNL     1      -0.552  -3.865  -0.152  0.00  0.00    +0.004 A 
ATOM     14  C   UNL     1      -1.785  -4.488  -0.100  0.00  0.00    +0.005 A 
ATOM     15  C   UNL     1      -2.941  -3.733  -0.021  0.00  0.00    -0.031 A 
ATOM     16  C   UNL     1      -2.865  -2.354   0.012  0.00  0.00    +0.050 A 
BRANCH  11  17
ATOM     17  O   UNL     1      -1.553  -0.370  -0.018  0.00  0.00    -0.492 OA
BRANCH  17  19
ATOM     18  C   UNL     1      -0.362   1.733  -0.039  0.00  0.00    +0.048 C 
ATOM     19  C   UNL     1      -0.247   0.208  -0.081  0.00  0.00    +0.225 C 
ENDBRANCH  17  19
ENDBRANCH  11  17
ENDBRANCH   1  15
BRANCH   9  20
ATOM     20  N   UNL     1      -4.276  -7.391   2.307  0.00  0.00    -0.328 N 
ATOM     21  H   UNL     1      -4.180  -8.355   2.258  0.00  0.00    +0.145 HD
ATOM     22  H   UNL     1      -4.417  -6.961   3.165  0.00  0.00    +0.145 HD
ENDBRANCH   9  20
BRANCH  10  23
ATOM     23  C   UNL     1      -4.550  -4.699   2.539  0.00  0.00    +0.101 C 
ATOM     24  N   UNL     1      -4.713  -4.227   3.559  0.00  0.00    -0.191 NA
ENDBRANCH  10  23
BRANCH   5  25
ATOM     25  O   UNL     1      -5.014  -7.463  -4.649  0.00  0.00    -0.423 OA
BRANCH  25  26
ATOM     26  C   UNL     1      -6.092  -8.261  -4.722  0.00  0.00    +0.350 C 
ATOM     27  O   UNL     1      -6.923  -8.236  -3.845  0.00  0.00    -0.247 OA
BRANCH  26  28
ATOM     28  C   UNL     1      -6.266  -9.187  -5.899  0.00  0.00    +0.349 C 
BRANCH  28  29
ATOM     29  O   UNL     1      -7.480  -9.925  -5.748  0.00  0.00    -0.481 OA
BRANCH  29  30
ATOM     30  C   UNL     1      -7.789 -10.812  -6.731  0.00  0.00    +0.121 A 
ATOM     31  C   UNL     1      -6.938 -10.972  -7.814  0.00  0.00    +0.047 A 
ATOM     32  C   UNL     1      -7.253 -11.873  -8.812  0.00  0.00    +0.023 A 
ATOM     33  C   UNL     1      -8.418 -12.617  -8.731  0.00  0.00    +0.041 A 
ATOM     34  C   UNL     1      -9.268 -12.459  -7.651  0.00  0.00    +0.023 A 
ATOM     35  C   UNL     1      -8.953 -11.563  -6.648  0.00  0.00    +0.047 A 
ATOM     36 CL   UNL     1      -8.812 -13.749  -9.987  0.00  0.00    -0.084 Cl
ENDBRANCH  29  30
ENDBRANCH  28  29
ENDBRANCH  26  28
ENDBRANCH  25  26
ENDBRANCH   5  25
TORSDOF 10
