REMARK  Name = ZINC16206701
REMARK  8 active torsions:
REMARK  status: ('A' for Active; 'I' for Inactive)
REMARK    1  A    between atoms: C_1  and  C_2
REMARK    2  A    between atoms: C_7  and  N_8
REMARK    3  A    between atoms: C_9  and  C_11
REMARK    4  A    between atoms: C_11  and  N_12
REMARK    5  A    between atoms: C_13  and  C_15
REMARK    6  A    between atoms: C_16  and  C_17
REMARK    7  A    between atoms: C_20  and  C_22
REMARK    8  A    between atoms: C_25  and  C_27
REMARK                            x       y       z     vdW  Elec       q    Type
REMARK                         _______ _______ _______ _____ _____    ______ ____
ROOT
ATOM      1  N   UNL     1       4.647   5.186   0.000  0.00  0.00    -0.303 N 
ATOM      2  C   UNL     1       3.340   4.857   0.021  0.00  0.00    +0.237 C 
ATOM      3  O   UNL     1       2.493   5.732   0.041  0.00  0.00    -0.271 OA
ATOM      4  H   UNL     1       5.322   4.489  -0.015  0.00  0.00    +0.149 HD
ENDROOT
BRANCH   2   5
ATOM      5  C   UNL     1       2.952   3.496   0.020  0.00  0.00    +0.071 C 
ATOM      6  C   UNL     1       1.637   3.165   0.040  0.00  0.00    +0.051 C 
BRANCH   6   7
ATOM      7  C   UNL     1       1.249   1.803   0.039  0.00  0.00    +0.128 A 
ATOM      8  C   UNL     1       2.098   0.716   0.017  0.00  0.00    +0.049 A 
ATOM      9  C   UNL     1       1.284  -0.426   0.024  0.00  0.00    +0.045 A 
ATOM     10  C   UNL     1       0.001  -0.003   0.049  0.00  0.00    +0.109 A 
ATOM     11  O   UNL     1      -0.017   1.337   0.058  0.00  0.00    -0.460 OA
BRANCH  10  12
ATOM     12  C   UNL     1      -1.214  -0.894   0.064  0.00  0.00    +0.058 C 
ATOM     13  C   UNL     1      -2.574  -0.231   0.295  0.00  0.00    +0.015 C 
ATOM     14  C   UNL     1      -2.205  -0.757  -1.093  0.00  0.00    -0.003 C 
ATOM     15  C   UNL     1      -2.907  -2.028  -1.576  0.00  0.00    +0.008 C 
ENDBRANCH  10  12
ENDBRANCH   6   7
ENDBRANCH   2   5
BRANCH   1  16
ATOM     16  C   UNL     1       5.048   6.595   0.002  0.00  0.00    +0.200 C 
BRANCH  16  18
ATOM     17  N   UNL     1       7.152   7.896  -0.027  0.00  0.00    -0.284 N 
ATOM     18  C   UNL     1       6.552   6.689  -0.024  0.00  0.00    +0.234 C 
ATOM     19  O   UNL     1       7.223   5.678  -0.041  0.00  0.00    -0.274 OA
ATOM     20  H   UNL     1       6.618   8.703  -0.094  0.00  0.00    +0.155 HD
BRANCH  17  27
ATOM     21  C   UNL     1       8.425  10.207  -1.092  0.00  0.00    +0.046 C 
ATOM     22  C   UNL     1       9.207   9.095  -0.441  0.00  0.00    -0.028 A 
ATOM     23  C   UNL     1      10.582   9.183  -0.343  0.00  0.00    +0.020 A 
ATOM     24  C   UNL     1      11.301   8.161   0.250  0.00  0.00    +0.018 A 
ATOM     25  C   UNL     1      10.645   7.050   0.751  0.00  0.00    +0.017 A 
ATOM     26  C   UNL     1       9.270   6.960   0.661  0.00  0.00    +0.024 A 
ATOM     27  C   UNL     1       8.546   7.985   0.066  0.00  0.00    +0.036 A 
ATOM     28 BR   UNL     1      13.184   8.281   0.375  0.00  0.00    -0.050 Br
ENDBRANCH  17  27
ENDBRANCH  16  18
ENDBRANCH   1  16
TORSDOF 6
