REMARK  Name = ZINC44786385
REMARK  8 active torsions:
REMARK  status: ('A' for Active; 'I' for Inactive)
REMARK    1  A    between atoms: C_1  and  C_2
REMARK    2  A    between atoms: C_2  and  C_3
REMARK    3  A    between atoms: C_2  and  C_4
REMARK    4  A    between atoms: C_4  and  C_6
REMARK    5  A    between atoms: C_4  and  N_11
REMARK    6  A    between atoms: C_12  and  C_14
REMARK    7  A    between atoms: C_14  and  C_19
REMARK    8  A    between atoms: N_20  and  O_21
REMARK                            x       y       z     vdW  Elec       q    Type
REMARK                         _______ _______ _______ _____ _____    ______ ____
ROOT
ATOM      1  N   UNL     1      -2.116  -0.064   1.224  0.00  0.00    -0.307 N 
ATOM      2  C   UNL     1      -2.702   1.151   1.231  0.00  0.00    +0.227 C 
ATOM      3  O   UNL     1      -2.582   1.887   0.275  0.00  0.00    -0.275 OA
ATOM      4  H   UNL     1      -2.158  -0.627   2.013  0.00  0.00    +0.149 HD
ENDROOT
BRANCH   2   5
ATOM      5  C   UNL     1      -3.505   1.593   2.427  0.00  0.00    +0.105 C 
ATOM      6  C   UNL     1      -4.111   2.984   2.169  0.00  0.00    +0.024 C 
ATOM      7  C   UNL     1      -3.539   3.921   3.253  0.00  0.00    +0.001 C 
ATOM      8  C   UNL     1      -2.219   3.238   3.688  0.00  0.00    +0.001 C 
ATOM      9  C   UNL     1      -2.586   1.734   3.658  0.00  0.00    +0.024 C 
BRANCH   5  10
ATOM     10  C   UNL     1      -4.599   0.596   2.710  0.00  0.00    +0.147 C 
ATOM     11  N   UNL     1      -4.703   0.068   3.885  0.00  0.00    -0.076 NA
ATOM     12  N   UNL     1      -5.488   0.249   1.718  0.00  0.00    -0.343 N 
ATOM     13  H   UNL     1      -5.456   0.698   0.859  0.00  0.00    +0.144 HD
ATOM     14  H   UNL     1      -6.147  -0.446   1.878  0.00  0.00    +0.144 HD
BRANCH  11  15
ATOM     15  O   UNL     1      -5.731  -0.868   4.152  0.00  0.00    -0.408 OA
ATOM     16  H   UNL     1      -5.729  -1.208   5.057  0.00  0.00    +0.328 HD
ENDBRANCH  11  15
ENDBRANCH   5  10
ENDBRANCH   2   5
BRANCH   1  17
ATOM     17  C   UNL     1      -1.417  -0.533   0.025  0.00  0.00    +0.112 C 
BRANCH  17  18
ATOM     18  C   UNL     1      -1.396  -2.039   0.013  0.00  0.00    +0.010 A 
ATOM     19  C   UNL     1      -1.559  -2.887  -1.032  0.00  0.00    +0.013 A 
ATOM     20  C   UNL     1      -1.500  -4.249  -0.806  0.00  0.00    +0.008 A 
ATOM     21  C   UNL     1      -1.280  -4.697   0.454  0.00  0.00    +0.045 A 
ATOM     22  S   UNL     1      -1.142  -3.171   1.370  0.00  0.00    -0.100 S 
ENDBRANCH  17  18
BRANCH  17  24
ATOM     23  C   UNL     1      -0.002   1.527   0.045  0.00  0.00    +0.009 C 
ATOM     24  C   UNL     1       0.019  -0.003   0.033  0.00  0.00    +0.008 C 
ATOM     25  C   UNL     1       0.744  -0.513   1.280  0.00  0.00    +0.009 C 
ENDBRANCH  17  24
ENDBRANCH   1  17
TORSDOF 6
