REMARK  Name = ZINC33115468
REMARK  7 active torsions:
REMARK  status: ('A' for Active; 'I' for Inactive)
REMARK    1  A    between atoms: C_1  and  C_2
REMARK    2  A    between atoms: C_5  and  N_8
REMARK    3  A    between atoms: C_9  and  C_11
REMARK    4  A    between atoms: C_11  and  C_14
REMARK    5  A    between atoms: C_17  and  N_20
REMARK    6  A    between atoms: N_20  and  S_21
REMARK    7  A    between atoms: S_21  and  C_24
REMARK                            x       y       z     vdW  Elec       q    Type
REMARK                         _______ _______ _______ _____ _____    ______ ____
ROOT
ATOM      1  C   UNL     1       2.320  -0.348   0.213  0.00  0.00    -0.032 A 
ATOM      2  C   UNL     1       1.082  -0.964   0.193  0.00  0.00    +0.006 A 
ATOM      3  C   UNL     1      -0.070  -0.203   0.173  0.00  0.00    +0.025 A 
ATOM      4  C   UNL     1       0.016   1.184   0.174  0.00  0.00    +0.048 A 
ATOM      5  C   UNL     1       1.261   1.800   0.195  0.00  0.00    +0.025 A 
ATOM      6  C   UNL     1       2.409   1.032   0.214  0.00  0.00    +0.006 A 
ENDROOT
BRANCH   1   7
ATOM      7  C   UNL     1       3.575  -1.182   0.235  0.00  0.00    +0.072 C 
ATOM      8  C   UNL     1       4.338  -1.274   1.558  0.00  0.00    +0.022 C 
ATOM      9  C   UNL     1       4.907  -0.449   0.402  0.00  0.00    +0.022 C 
BRANCH   7  11
ATOM     10  N   UNL     1       3.493  -2.269  -1.985  0.00  0.00    -0.312 N 
ATOM     11  C   UNL     1       3.558  -2.405  -0.646  0.00  0.00    +0.224 C 
ATOM     12  O   UNL     1       3.603  -3.510  -0.150  0.00  0.00    -0.275 OA
ATOM     13  H   UNL     1       3.371  -1.271  -2.432  0.00  0.00    +0.149 HD
BRANCH  10  18
ATOM     14  C   UNL     1       4.556  -5.966  -6.231  0.00  0.00    +0.007 C 
ATOM     15  C   UNL     1       4.460  -4.732  -5.331  0.00  0.00    -0.014 C 
ATOM     16  C   UNL     1       2.988  -4.399  -5.079  0.00  0.00    +0.005 C 
ATOM     17  C   UNL     1       2.892  -3.165  -4.180  0.00  0.00    +0.022 C 
ATOM     18  C   UNL     1       3.585  -3.450  -2.846  0.00  0.00    +0.073 C 
ATOM     19  C   UNL     1       5.057  -3.784  -3.099  0.00  0.00    +0.022 C 
ATOM     20  C   UNL     1       5.154  -5.018  -3.998  0.00  0.00    +0.005 C 
ENDBRANCH  10  18
ENDBRANCH   7  11
ENDBRANCH   1   7
BRANCH   4  21
ATOM     21  N   UNL     1      -1.147   1.957   0.148  0.00  0.00    -0.216 N 
ATOM     22  H   UNL     1      -1.760   2.059   1.056  0.00  0.00    +0.174 HD
BRANCH  21  23
ATOM     23  S   UNL     1      -1.604   2.720  -1.249  0.00  0.00    +0.079 S 
ATOM     24  O   UNL     1      -2.832   3.378  -0.970  0.00  0.00    -0.149 OA
ATOM     25  O   UNL     1      -0.459   3.414  -1.725  0.00  0.00    -0.149 OA
BRANCH  23  26
ATOM     26  C   UNL     1      -1.962   1.466  -2.434  0.00  0.00    +0.147 A 
ATOM     27  C   UNL     1      -3.155   0.906  -2.750  0.00  0.00    +0.038 A 
ATOM     28  C   UNL     1      -3.199  -0.073  -3.724  0.00  0.00    +0.025 A 
ATOM     29  C   UNL     1      -2.046  -0.445  -4.335  0.00  0.00    +0.057 A 
ATOM     30  S   UNL     1      -0.848   0.610  -3.535  0.00  0.00    -0.061 S 
ATOM     31 BR   UNL     1      -1.779  -1.738  -5.689  0.00  0.00    -0.043 Br
ENDBRANCH  23  26
ENDBRANCH  21  23
ENDBRANCH   4  21
TORSDOF 6
