REMARK  Name = ZINC64166858
REMARK  9 active torsions:
REMARK  status: ('A' for Active; 'I' for Inactive)
REMARK    1  A    between atoms: C_6  and  C_11
REMARK    2  A    between atoms: N_13  and  C_14
REMARK    3  A    between atoms: C_14  and  C_15
REMARK    4  A    between atoms: N_20  and  C_22
REMARK    5  A    between atoms: C_22  and  C_23
REMARK    6  A    between atoms: C_26  and  C_29
REMARK    7  A    between atoms: C_30  and  C_31
REMARK    8  A    between atoms: C_31  and  C_32
REMARK    9  A    between atoms: C_32  and  O_33
REMARK                            x       y       z     vdW  Elec       q    Type
REMARK                         _______ _______ _______ _____ _____    ______ ____
ROOT
ATOM      1  C   UNL     1       3.391  -6.211   2.553  0.00  0.00    -0.011 C 
ATOM      2  C   UNL     1       4.030  -6.940   1.367  0.00  0.00    +0.001 C 
ATOM      3  C   UNL     1       3.615  -8.413   1.402  0.00  0.00    -0.018 C 
ATOM      4  C   UNL     1       4.023  -9.022   2.745  0.00  0.00    -0.078 C 
ATOM      5  N   UNL     1       3.358  -8.299   3.836  0.00  0.00    +0.383 N 
ATOM      6  C   UNL     1       3.806  -6.901   3.854  0.00  0.00    -0.073 C 
ATOM      7  H   UNL     1       2.359  -8.328   3.698  0.00  0.00    -0.081 HD
ENDROOT
BRANCH   1   8
ATOM      8  C   UNL     1       3.862  -4.756   2.573  0.00  0.00    +0.106 C 
BRANCH   8  11
ATOM      9  C   UNL     1       3.656  -2.764   1.185  0.00  0.00    +0.239 C 
ATOM     10  O   UNL     1       4.332  -2.165   1.995  0.00  0.00    -0.273 OA
ATOM     11  N   UNL     1       3.363  -4.065   1.381  0.00  0.00    -0.313 N 
ATOM     12  H   UNL     1       2.823  -4.543   0.734  0.00  0.00    +0.149 HD
BRANCH   9  18
ATOM     13  C   UNL     1      -0.016   1.348   0.009  0.00  0.00    +0.001 A 
ATOM     14  C   UNL     1       1.166   2.101   0.002  0.00  0.00    +0.002 A 
ATOM     15  C   UNL     1       2.391   1.535  -0.013  0.00  0.00    +0.026 A 
ATOM     16  C   UNL     1       2.529   0.120  -0.022  0.00  0.00    +0.043 A 
ATOM     17  N   UNL     1       3.587  -0.654  -0.037  0.00  0.00    -0.370 N 
ATOM     18  C   UNL     1       3.143  -2.053  -0.041  0.00  0.00    +0.190 C 
ATOM     19  C   UNL     1       1.631  -2.008  -0.025  0.00  0.00    +0.016 C 
ATOM     20  C   UNL     1       1.295  -0.698  -0.014  0.00  0.00    -0.004 A 
ATOM     21  C   UNL     1       0.002  -0.004   0.002  0.00  0.00    +0.010 A 
ATOM     22  H   UNL     1       4.509  -0.353  -0.045  0.00  0.00    +0.161 HD
ENDBRANCH   9  18
ENDBRANCH   8  11
ENDBRANCH   1   8
BRANCH   5  23
ATOM     23  C   UNL     1       3.691  -8.935   5.118  0.00  0.00    -0.043 C 
BRANCH  23  24
ATOM     24  C   UNL     1       3.116 -10.327   5.152  0.00  0.00    -0.064 A 
ATOM     25  C   UNL     1       1.837 -10.532   5.640  0.00  0.00    +0.003 A 
ATOM     26  C   UNL     1       1.304 -11.804   5.674  0.00  0.00    +0.017 A 
ATOM     27  C   UNL     1       2.058 -12.885   5.215  0.00  0.00    +0.025 A 
ATOM     28  C   UNL     1       3.346 -12.672   4.724  0.00  0.00    +0.017 A 
ATOM     29  C   UNL     1       3.866 -11.394   4.691  0.00  0.00    +0.003 A 
BRANCH  27  30
ATOM     30  C   UNL     1       1.511 -14.208   5.247  0.00  0.00    -0.066 C 
ATOM     31  C   UNL     1       1.062 -15.293   5.274  0.00  0.00    -0.095 C 
BRANCH  31  32
ATOM     32  C   UNL     1       0.500 -16.653   5.308  0.00  0.00    +0.117 C 
BRANCH  32  33
ATOM     33  C   UNL     1       1.526 -17.643   4.752  0.00  0.00    +0.168 C 
BRANCH  33  34
ATOM     34  O   UNL     1       0.980 -18.963   4.785  0.00  0.00    -0.394 OA
ATOM     35  H   UNL     1       1.577 -19.644   4.446  0.00  0.00    +0.209 HD
ENDBRANCH  33  34
ENDBRANCH  32  33
ENDBRANCH  31  32
ENDBRANCH  27  30
ENDBRANCH  23  24
ENDBRANCH   5  23
TORSDOF 9
