REMARK  Name = ZINC32016596
REMARK  7 active torsions:
REMARK  status: ('A' for Active; 'I' for Inactive)
REMARK    1  A    between atoms: C_6  and  N_7
REMARK    2  A    between atoms: N_7  and  C_8
REMARK    3  A    between atoms: N_17  and  C1*_18
REMARK    4  A    between atoms: C2*_20  and  O2*_30
REMARK    5  A    between atoms: C3*_22  and  O3*_29
REMARK    6  A    between atoms: C4*_24  and  C5*_27
REMARK    7  A    between atoms: C5*_27  and  O5*_28
REMARK                            x       y       z     vdW  Elec       q    Type
REMARK                         _______ _______ _______ _____ _____    ______ ____
ROOT
ATOM      1  C   UNL     1      -0.329   7.458   4.630  0.00  0.00    +0.045 A 
ATOM      2  C   UNL     1      -0.239   7.436   3.250  0.00  0.00    +0.115 A 
ATOM      3  N   UNL     1      -0.198   6.301   2.582  0.00  0.00    -0.236 NA
ATOM      4  C   UNL     1      -0.237   5.127   3.198  0.00  0.00    +0.164 A 
ATOM      5  C   UNL     1      -0.334   5.061   4.596  0.00  0.00    +0.129 A 
ATOM      6  C   UNL     1      -0.379   6.259   5.331  0.00  0.00    +0.058 A 
ATOM      7  N   UNL     1      -0.359   3.748   4.936  0.00  0.00    -0.232 NA
ATOM      8  C   UNL     1      -0.290   3.021   3.860  0.00  0.00    +0.203 A 
ATOM      9  N   UNL     1      -0.216   3.821   2.760  0.00  0.00    -0.286 N 
ENDROOT
BRANCH   9  10
ATOM     10  C1* UNL     1      -0.126   3.374   1.368  0.00  0.00    +0.253 C 
ATOM     11  C2* UNL     1       1.350   3.327   0.913  0.00  0.00    +0.195 C 
ATOM     12  C3* UNL     1       1.422   2.083  -0.000  0.00  0.00    +0.178 C 
ATOM     13  C4* UNL     1      -0.019   1.526   0.010  0.00  0.00    +0.177 C 
ATOM     14  O4* UNL     1      -0.594   2.014   1.242  0.00  0.00    -0.346 OA
BRANCH  12  15
ATOM     15  O3* UNL     1       1.806   2.454  -1.326  0.00  0.00    -0.386 OA
ATOM     16  H3* UNL     1       1.905   1.683  -2.105  0.00  0.00    +0.210 HD
ENDBRANCH  12  15
BRANCH  11  17
ATOM     17  O2* UNL     1       1.686   4.507   0.180  0.00  0.00    -0.385 OA
ATOM     18  H2* UNL     1       2.703   4.636  -0.219  0.00  0.00    +0.210 HD
ENDBRANCH  11  17
BRANCH  13  19
ATOM     19  C5* UNL     1       0.002  -0.004   0.002  0.00  0.00    +0.190 C 
BRANCH  19  20
ATOM     20  O5* UNL     1      -1.335  -0.498  -0.105  0.00  0.00    -0.392 OA
ATOM     21  H5* UNL     1      -1.520  -1.582  -0.127  0.00  0.00    +0.210 HD
ENDBRANCH  19  20
ENDBRANCH  13  19
ENDBRANCH   9  10
BRANCH   6  22
ATOM     22  N   UNL     1      -0.470   6.244   6.719  0.00  0.00    -0.339 N 
ATOM     23  H   UNL     1      -0.508   5.285   7.257  0.00  0.00    +0.146 HD
BRANCH  22  24
ATOM     24  C   UNL     1      -0.515   7.504   7.464  0.00  0.00    +0.070 C 
ATOM     25  C   UNL     1       0.926   8.013   7.673  0.00  0.00    +0.022 C 
ATOM     26  C   UNL     1       0.874   9.491   7.957  0.00  0.00    +0.002 C 
ATOM     27  C   UNL     1       0.853   9.799   9.466  0.00  0.00    +0.000 C 
ATOM     28  C   UNL     1      -0.067   8.849  10.257  0.00  0.00    +0.000 C 
ATOM     29  C   UNL     1      -1.365   8.579   9.545  0.00  0.00    +0.002 C 
ATOM     30  C   UNL     1      -1.212   7.284   8.722  0.00  0.00    +0.022 C 
ENDBRANCH  22  24
ENDBRANCH   6  22
TORSDOF 7
