REMARK  Name = ZINC36581386
REMARK  16 active torsions:
REMARK  status: ('A' for Active; 'I' for Inactive)
REMARK    1  A    between atoms: C_1  and  C_2
REMARK    2  A    between atoms: C_4  and  C_15
REMARK    3  A    between atoms: C_12  and  C_13
REMARK    4  A    between atoms: C_12  and  C_14
REMARK    5  A    between atoms: N_17  and  C_18
REMARK    6  A    between atoms: N_17  and  C_34
REMARK    7  A    between atoms: C_18  and  C_20
REMARK    8  A    between atoms: C_18  and  C_27
REMARK    9  A    between atoms: C_23  and  O_26
REMARK   10  A    between atoms: N_29  and  C_30
REMARK   11  A    between atoms: C_30  and  C_31
REMARK   12  A    between atoms: C_30  and  C_32
REMARK   13  A    between atoms: C_30  and  C_33
REMARK   14  A    between atoms: C_34  and  C_35
REMARK   15  A    between atoms: C_34  and  C_36
REMARK   16  A    between atoms: C_34  and  C_37
REMARK                            x       y       z     vdW  Elec       q    Type
REMARK                         _______ _______ _______ _____ _____    ______ ____
ROOT
ATOM      1  C   UNL     1      -1.130  -1.582  -2.070  0.00  0.00    +0.220 C 
ATOM      2  O   UNL     1      -2.178  -2.156  -1.860  0.00  0.00    -0.275 OA
ATOM      3  N   UNL     1      -0.384  -1.912  -3.142  0.00  0.00    -0.281 N 
ENDROOT
BRANCH   1   6
ATOM      4  C   UNL     1      -1.771   1.739  -0.752  0.00  0.00    +0.008 C 
ATOM      5  C   UNL     1      -1.847   0.234  -0.515  0.00  0.00    +0.001 C 
ATOM      6  C   UNL     1      -0.662  -0.499  -1.130  0.00  0.00    +0.079 C 
ATOM      7  C   UNL     1       0.297  -1.065  -0.090  0.00  0.00    +0.017 C 
ATOM      8  C   UNL     1      -0.394  -1.326   1.250  0.00  0.00    -0.004 C 
ATOM      9  C   UNL     1      -1.887  -1.666   1.118  0.00  0.00    +0.008 C 
ATOM     10  C   UNL     1      -2.068  -0.134   0.947  0.00  0.00    -0.001 C 
ATOM     11  C   UNL     1      -0.878  -0.013   1.897  0.00  0.00    -0.029 C 
ATOM     12  C   UNL     1      -1.256  -0.181   3.381  0.00  0.00    +0.011 C 
ATOM     13  C   UNL     1       0.060   1.175   1.706  0.00  0.00    +0.011 C 
ENDBRANCH   1   6
BRANCH   3  14
ATOM     14  C   UNL     1       1.052  -1.622  -3.153  0.00  0.00    +0.030 C 
ATOM     15  C   UNL     1       1.789  -2.662  -2.307  0.00  0.00    +0.031 C 
ATOM     16  C   UNL     1       1.572  -1.673  -4.591  0.00  0.00    +0.031 C 
ATOM     17  C   UNL     1       1.295  -0.227  -2.573  0.00  0.00    +0.031 C 
ENDBRANCH   3  14
BRANCH   3  18
ATOM     18  C   UNL     1      -1.009  -2.561  -4.298  0.00  0.00    +0.193 C 
BRANCH  18  19
ATOM     19  C   UNL     1      -1.968  -1.602  -4.955  0.00  0.00    -0.018 A 
ATOM     20  C   UNL     1      -2.548  -0.590  -4.213  0.00  0.00    +0.009 A 
ATOM     21  C   UNL     1      -3.428   0.290  -4.813  0.00  0.00    +0.046 A 
ATOM     22  C   UNL     1      -3.728   0.158  -6.161  0.00  0.00    +0.117 A 
ATOM     23  C   UNL     1      -3.144  -0.859  -6.903  0.00  0.00    +0.046 A 
ATOM     24  C   UNL     1      -2.261  -1.733  -6.300  0.00  0.00    +0.009 A 
BRANCH  22  25
ATOM     25  O   UNL     1      -4.594   1.022  -6.754  0.00  0.00    -0.507 OA
ATOM     26  H   UNL     1      -4.171   1.807  -7.128  0.00  0.00    +0.292 HD
ENDBRANCH  22  25
ENDBRANCH  18  19
BRANCH  18  27
ATOM     27  C   UNL     1      -1.758  -3.787  -3.841  0.00  0.00    +0.239 C 
ATOM     28  O   UNL     1      -1.754  -4.098  -2.669  0.00  0.00    -0.273 OA
ATOM     29  N   UNL     1      -2.432  -4.537  -4.735  0.00  0.00    -0.309 N 
ATOM     30  H   UNL     1      -2.435  -4.287  -5.673  0.00  0.00    +0.149 HD
BRANCH  29  31
ATOM     31  C   UNL     1      -3.160  -5.728  -4.291  0.00  0.00    +0.026 C 
ATOM     32  C   UNL     1      -4.225  -5.324  -3.270  0.00  0.00    +0.031 C 
ATOM     33  C   UNL     1      -3.832  -6.392  -5.494  0.00  0.00    +0.031 C 
ATOM     34  C   UNL     1      -2.182  -6.712  -3.646  0.00  0.00    +0.031 C 
ENDBRANCH  29  31
ENDBRANCH  18  27
ENDBRANCH   3  18
TORSDOF 7
