REMARK  Name = ZINC23283598
REMARK  7 active torsions:
REMARK  status: ('A' for Active; 'I' for Inactive)
REMARK    1  A    between atoms: C_3  and  N_18
REMARK    2  A    between atoms: C_4  and  O_17
REMARK    3  A    between atoms: C_6  and  C_7
REMARK    4  A    between atoms: C_7  and  C_8
REMARK    5  A    between atoms: C_7  and  C_12
REMARK    6  A    between atoms: C_7  and  O_16
REMARK    7  A    between atoms: N_18  and  C_19
REMARK                            x       y       z     vdW  Elec       q    Type
REMARK                         _______ _______ _______ _____ _____    ______ ____
ROOT
ATOM      1  C   UNL     1       5.633   1.369  -0.142  0.00  0.00    +0.009 A 
ATOM      2  C   UNL     1       4.256   1.488  -0.120  0.00  0.00    +0.027 A 
ATOM      3  C   UNL     1       3.503   1.026  -1.190  0.00  0.00    +0.069 A 
ATOM      4  C   UNL     1       4.140   0.453  -2.289  0.00  0.00    +0.138 A 
ATOM      5  C   UNL     1       5.520   0.343  -2.305  0.00  0.00    +0.054 A 
ATOM      6  C   UNL     1       6.264   0.800  -1.232  0.00  0.00    +0.005 A 
ENDROOT
BRANCH   4   7
ATOM      7  O   UNL     1       3.408   0.004  -3.343  0.00  0.00    -0.505 OA
ATOM      8  H   UNL     1       3.912  -0.448  -4.210  0.00  0.00    +0.292 HD
ENDBRANCH   4   7
BRANCH   3   9
ATOM      9  N   UNL     1       2.109   1.140  -1.167  0.00  0.00    -0.338 N 
ATOM     10  H   UNL     1       1.514   0.777  -2.018  0.00  0.00    +0.146 HD
BRANCH   9  11
ATOM     11  C   UNL     1       1.441   1.742  -0.011  0.00  0.00    +0.077 C 
ATOM     12  C   UNL     1       0.008   1.216   0.082  0.00  0.00    +0.010 C 
ATOM     13  C   UNL     1      -0.690   1.845   1.290  0.00  0.00    +0.009 C 
ATOM     14  C   UNL     1      -0.714   3.366   1.129  0.00  0.00    -0.010 C 
ATOM     15  C   UNL     1      -1.476   3.732  -0.146  0.00  0.00    +0.007 C 
ATOM     16  C   UNL     1      -0.778   3.103  -1.354  0.00  0.00    -0.010 C 
ATOM     17  C   UNL     1      -0.754   1.581  -1.194  0.00  0.00    +0.009 C 
ATOM     18  C   UNL     1       0.655   3.629  -1.447  0.00  0.00    +0.009 C 
ATOM     19  C   UNL     1       1.416   3.264  -0.172  0.00  0.00    +0.010 C 
ATOM     20  C   UNL     1       0.719   3.893   1.036  0.00  0.00    +0.009 C 
ENDBRANCH   9  11
ENDBRANCH   3   9
BRANCH   6  21
ATOM     21  C   UNL     1       7.766   0.679  -1.252  0.00  0.00    +0.282 C 
BRANCH  21  22
ATOM     22  C   UNL     1       8.156  -0.793  -1.404  0.00  0.00    +0.431 C 
ATOM     23  F   UNL     1       7.739  -1.259  -2.655  0.00  0.00    -0.167 F 
ATOM     24  F   UNL     1       9.546  -0.920  -1.299  0.00  0.00    -0.167 F 
ATOM     25  F   UNL     1       7.541  -1.545  -0.397  0.00  0.00    -0.167 F 
ENDBRANCH  21  22
BRANCH  21  26
ATOM     26  C   UNL     1       8.327   1.479  -2.430  0.00  0.00    +0.431 C 
ATOM     27  F   UNL     1       7.970   2.825  -2.291  0.00  0.00    -0.167 F 
ATOM     28  F   UNL     1       9.721   1.366  -2.449  0.00  0.00    -0.167 F 
ATOM     29  F   UNL     1       7.802   0.978  -3.626  0.00  0.00    -0.167 F 
ENDBRANCH  21  26
BRANCH  21  30
ATOM     30  O   UNL     1       8.302   1.190  -0.030  0.00  0.00    -0.369 OA
ATOM     31  H   UNL     1       9.389   1.185   0.138  0.00  0.00    +0.211 HD
ENDBRANCH  21  30
ENDBRANCH   6  21
TORSDOF 7
