REMARK  Name = ZINC13494537
REMARK  14 active torsions:
REMARK  status: ('A' for Active; 'I' for Inactive)
REMARK    1  A    between atoms: C_1  and  C_2
REMARK    2  A    between atoms: C_2  and  C_3
REMARK    3  A    between atoms: C_3  and  C_5
REMARK    4  A    between atoms: C_3  and  N_68
REMARK    5  A    between atoms: N_9  and  C_10
REMARK    6  A    between atoms: C_10  and  C_11
REMARK    7  A    between atoms: C_10  and  C_12
REMARK    8  A    between atoms: C_10  and  C_13
REMARK    9  A    between atoms: C_14  and  C_15
REMARK   10  A    between atoms: C_14  and  N_68
REMARK   11  A    between atoms: C_15  and  C_16
REMARK   12  A    between atoms: C_22  and  C_23
REMARK   13  A    between atoms: C_22  and  N_68
REMARK   14  A    between atoms: C_27  and  C_35
REMARK                            x       y       z     vdW  Elec       q    Type
REMARK                         _______ _______ _______ _____ _____    ______ ____
ROOT
ATOM      1  N   UNL     1      -1.332  -0.740   0.035  0.00  0.00    +0.389 N 
ATOM      2  H   UNL     1      -1.589  -0.176   0.854  0.00  0.00    -0.080 HD
ENDROOT
BRANCH   1   3
ATOM      3  C   UNL     1      -2.261  -0.429  -1.071  0.00  0.00    +0.003 C 
BRANCH   3   4
ATOM      4  C   UNL     1      -2.767   0.979  -0.891  0.00  0.00    +0.139 A 
ATOM      5  N   UNL     1      -2.093   1.998  -0.417  0.00  0.00    -0.115 NA
ATOM      6  N   UNL     1      -2.869   3.026  -0.421  0.00  0.00    -0.023 NA
ATOM      7  N   UNL     1      -4.022   2.689  -0.886  0.00  0.00    -0.043 NA
ATOM      8  N   UNL     1      -3.997   1.436  -1.192  0.00  0.00    -0.226 N 
BRANCH   8   9
ATOM      9  C   UNL     1      -5.101   0.656  -1.756  0.00  0.00    +0.059 C 
ATOM     10  C   UNL     1      -5.567  -0.382  -0.734  0.00  0.00    +0.036 C 
ATOM     11  C   UNL     1      -6.262   1.590  -2.101  0.00  0.00    +0.036 C 
ATOM     12  C   UNL     1      -4.626  -0.056  -3.025  0.00  0.00    +0.036 C 
ENDBRANCH   8   9
ENDBRANCH   3   4
BRANCH   3  14
ATOM     13  C   UNL     1      -1.151  -2.004  -2.662  0.00  0.00    +0.002 C 
ATOM     14  C   UNL     1      -1.544  -0.545  -2.418  0.00  0.00    -0.011 C 
ENDBRANCH   3  14
ENDBRANCH   1   3
BRANCH   1  15
ATOM     15  C   UNL     1       0.053  -0.408  -0.360  0.00  0.00    -0.073 C 
BRANCH  15  16
ATOM     16  C   UNL     1       0.190   1.113  -0.446  0.00  0.00    +0.016 C 
BRANCH  16  17
ATOM     17  C   UNL     1       1.632   1.475  -0.691  0.00  0.00    -0.049 A 
ATOM     18  C   UNL     1       2.481   1.696   0.377  0.00  0.00    +0.003 A 
ATOM     19  C   UNL     1       3.805   2.022   0.152  0.00  0.00    +0.000 A 
ATOM     20  C   UNL     1       4.278   2.139  -1.141  0.00  0.00    +0.000 A 
ATOM     21  C   UNL     1       3.428   1.923  -2.210  0.00  0.00    +0.000 A 
ATOM     22  C   UNL     1       2.106   1.591  -1.985  0.00  0.00    +0.003 A 
ENDBRANCH  16  17
ENDBRANCH  15  16
ENDBRANCH   1  15
BRANCH   1  23
ATOM     23  C   UNL     1      -1.427  -2.172   0.388  0.00  0.00    -0.037 C 
BRANCH  23  24
ATOM     24  C   UNL     1      -2.703  -2.396   1.159  0.00  0.00    +0.001 A 
ATOM     25  C   UNL     1      -3.779  -2.941   0.540  0.00  0.00    +0.017 A 
ATOM     26  C   UNL     1      -5.001  -3.150   1.318  0.00  0.00    -0.001 A 
ATOM     27  C   UNL     1      -6.143  -3.712   0.736  0.00  0.00    +0.013 A 
ATOM     28  C   UNL     1      -7.269  -3.888   1.488  0.00  0.00    -0.050 A 
ATOM     29  C   UNL     1      -7.293  -3.514   2.825  0.00  0.00    +0.005 A 
ATOM     30  C   UNL     1      -6.180  -2.960   3.419  0.00  0.00    +0.026 A 
ATOM     31  C   UNL     1      -5.021  -2.770   2.673  0.00  0.00    +0.049 A 
ATOM     32  N   UNL     1      -3.894  -2.216   3.242  0.00  0.00    -0.322 N 
ATOM     33  H   UNL     1      -3.909  -1.955   4.176  0.00  0.00    +0.169 HD
ATOM     34  C   UNL     1      -2.774  -2.032   2.521  0.00  0.00    +0.251 A 
ATOM     35  O   UNL     1      -1.796  -1.540   3.057  0.00  0.00    -0.268 OA
ATOM     36  C   UNL     1      -8.498  -4.494   0.860  0.00  0.00    +0.044 C 
ENDBRANCH  23  24
ENDBRANCH   1  23
TORSDOF 9
