REMARK  Name = ZINC39658617
REMARK  10 active torsions:
REMARK  status: ('A' for Active; 'I' for Inactive)
REMARK    1  A    between atoms: C_1  and  C_2
REMARK    2  A    between atoms: C_4  and  C_7
REMARK    3  A    between atoms: C_8  and  C_13
REMARK    4  A    between atoms: C_9  and  C_12
REMARK    5  A    between atoms: C_17  and  C_26
REMARK    6  A    between atoms: N_28  and  C_29
REMARK    7  A    between atoms: C_29  and  C_30
REMARK    8  A    between atoms: C_30  and  S_31
REMARK    9  A    between atoms: S_31  and  C_32
REMARK   10  A    between atoms: C_32  and  C_33
REMARK                            x       y       z     vdW  Elec       q    Type
REMARK                         _______ _______ _______ _____ _____    ______ ____
ROOT
ATOM      1  C   UNL     1       0.498  -5.210   0.017  0.00  0.00    +0.252 C 
ATOM      2  O   UNL     1       1.120  -5.356   1.052  0.00  0.00    -0.270 OA
ATOM      3  N   UNL     1       1.117  -5.371  -1.169  0.00  0.00    -0.296 N 
ATOM      4  C   UNL     1       0.534  -5.231  -2.524  0.00  0.00    +0.121 C 
ATOM      5  C   UNL     1       1.637  -4.536  -3.353  0.00  0.00    +0.100 C 
ATOM      6  C   UNL     1       2.948  -4.869  -2.621  0.00  0.00    -0.004 C 
ATOM      7  C   UNL     1       2.537  -5.724  -1.413  0.00  0.00    +0.115 C 
ATOM      8  C   UNL     1       3.879  -5.658  -3.535  0.00  0.00    -0.010 C 
ATOM      9  C   UNL     1       5.198  -5.927  -2.805  0.00  0.00    -0.082 C 
ATOM     10  N   UNL     1       5.818  -4.652  -2.425  0.00  0.00    +0.379 N 
ATOM     11  C   UNL     1       4.957  -3.941  -1.472  0.00  0.00    -0.082 C 
ATOM     12  C   UNL     1       3.628  -3.588  -2.146  0.00  0.00    -0.010 C 
ATOM     13  H   UNL     1       6.715  -4.830  -1.998  0.00  0.00    -0.086 HD
ATOM     14  H   UNL     1       5.947  -4.084  -3.248  0.00  0.00    -0.086 HD
ENDROOT
BRANCH   1  16
ATOM     15  C   UNL     1      -1.461  -3.574   0.076  0.00  0.00    +0.201 A 
ATOM     16  C   UNL     1      -0.930  -4.856   0.060  0.00  0.00    +0.108 A 
ATOM     17  C   UNL     1      -2.020  -5.762   0.093  0.00  0.00    +0.093 A 
ATOM     18  N   UNL     1      -3.120  -5.072   0.126  0.00  0.00    -0.082 NA
ATOM     19  O   UNL     1      -2.797  -3.695   0.121  0.00  0.00    -0.352 OA
ATOM     20  C   UNL     1      -1.919  -7.266   0.089  0.00  0.00    +0.070 C 
BRANCH  15  24
ATOM     21  C   UNL     1      -0.351   1.377   0.053  0.00  0.00    +0.089 C 
ATOM     22  C   UNL     1      -0.223  -0.124   0.045  0.00  0.00    +0.135 A 
ATOM     23  C   UNL     1      -1.241  -1.002   0.076  0.00  0.00    +0.079 A 
ATOM     24  C   UNL     1      -0.695  -2.309   0.054  0.00  0.00    +0.152 A 
ATOM     25  N   UNL     1       0.612  -2.196   0.011  0.00  0.00    -0.075 NA
ATOM     26  O   UNL     1       0.927  -0.815  -0.001  0.00  0.00    -0.359 OA
ENDBRANCH  15  24
ENDBRANCH   1  16
BRANCH   5  27
ATOM     27  C   UNL     1       1.664  -5.086  -4.756  0.00  0.00    +0.218 C 
ATOM     28  O   UNL     1       1.342  -6.237  -4.963  0.00  0.00    -0.275 OA
ATOM     29  N   UNL     1       2.045  -4.298  -5.782  0.00  0.00    -0.314 N 
ATOM     30  H   UNL     1       2.302  -3.378  -5.617  0.00  0.00    +0.149 HD
BRANCH  29  31
ATOM     31  C   UNL     1       2.070  -4.833  -7.146  0.00  0.00    +0.115 C 
BRANCH  31  32
ATOM     32  C   UNL     1       2.535  -3.742  -8.112  0.00  0.00    +0.088 C 
BRANCH  32  33
ATOM     33  S   UNL     1       2.567  -4.404  -9.801  0.00  0.00    -0.155 S 
BRANCH  33  34
ATOM     34  C   UNL     1       3.131  -3.006 -10.809  0.00  0.00    +0.104 C 
BRANCH  34  35
ATOM     35  C   UNL     1       3.203  -3.425 -12.255  0.00  0.00    -0.038 A 
ATOM     36  C   UNL     1       4.370  -3.969 -12.760  0.00  0.00    +0.004 A 
ATOM     37  C   UNL     1       4.436  -4.354 -14.086  0.00  0.00    +0.000 A 
ATOM     38  C   UNL     1       3.335  -4.197 -14.907  0.00  0.00    +0.000 A 
ATOM     39  C   UNL     1       2.168  -3.654 -14.402  0.00  0.00    +0.000 A 
ATOM     40  C   UNL     1       2.101  -3.273 -13.075  0.00  0.00    +0.004 A 
ENDBRANCH  34  35
ENDBRANCH  33  34
ENDBRANCH  32  33
ENDBRANCH  31  32
ENDBRANCH  29  31
ENDBRANCH   5  27
TORSDOF 8
