REMARK  Name = ZINC03565361
REMARK  8 active torsions:
REMARK  status: ('A' for Active; 'I' for Inactive)
REMARK    1  A    between atoms: C_1  and  C_2
REMARK    2  A    between atoms: C_2  and  C_4
REMARK    3  A    between atoms: C_2  and  S_7
REMARK    4  A    between atoms: S_7  and  C_8
REMARK    5  A    between atoms: C_11  and  C_14
REMARK    6  A    between atoms: N_12  and  N_13
REMARK    7  A    between atoms: C_17  and  O_20
REMARK    8  A    between atoms: O_20  and  C_21
REMARK                            x       y       z     vdW  Elec       q    Type
REMARK                         _______ _______ _______ _____ _____    ______ ____
ROOT
ATOM      1  C   UNL     1      -5.117   0.712  -0.707  0.00  0.00    +0.209 A 
ATOM      2  N   UNL     1      -5.062  -0.535  -0.294  0.00  0.00    -0.121 NA
ATOM      3  N   UNL     1      -6.206  -1.101  -0.447  0.00  0.00    -0.127 NA
ATOM      4  C   UNL     1      -7.061  -0.252  -0.967  0.00  0.00    +0.182 A 
ATOM      5  N   UNL     1      -6.391   0.937  -1.145  0.00  0.00    -0.224 N 
ENDROOT
BRANCH   4   6
ATOM      6  C   UNL     1      -8.477  -0.520  -1.295  0.00  0.00    +0.021 A 
ATOM      7  C   UNL     1      -9.184   0.360  -2.116  0.00  0.00    +0.015 A 
ATOM      8  C   UNL     1     -10.504   0.104  -2.423  0.00  0.00    +0.046 A 
ATOM      9  C   UNL     1     -11.132  -1.022  -1.908  0.00  0.00    +0.127 A 
ATOM     10  C   UNL     1     -10.434  -1.897  -1.087  0.00  0.00    +0.046 A 
ATOM     11  C   UNL     1      -9.112  -1.651  -0.779  0.00  0.00    +0.015 A 
BRANCH   9  12
ATOM     12  O   UNL     1     -12.434  -1.268  -2.208  0.00  0.00    -0.434 OA
BRANCH  12  13
ATOM     13  C   UNL     1     -13.093  -0.327  -3.058  0.00  0.00    +0.541 C 
ATOM     14  F   UNL     1     -13.078   0.936  -2.456  0.00  0.00    -0.166 F 
ATOM     15  F   UNL     1     -12.429  -0.265  -4.288  0.00  0.00    -0.166 F 
ENDBRANCH  12  13
ENDBRANCH   9  12
ENDBRANCH   4   6
BRANCH   5  16
ATOM     16  N   UNL     1      -6.895   2.100  -1.655  0.00  0.00    -0.295 N 
ATOM     17  H   UNL     1      -7.946   2.151  -1.974  0.00  0.00    +0.163 HD
ATOM     18  H   UNL     1      -6.249   2.986  -1.747  0.00  0.00    +0.163 HD
ENDBRANCH   5  16
BRANCH   1  19
ATOM     19  S   UNL     1      -3.795   1.877  -0.691  0.00  0.00    -0.072 S 
BRANCH  19  21
ATOM     20  C   UNL     1      -2.849   0.476   1.455  0.00  0.00    +0.029 C 
ATOM     21  C   UNL     1      -2.482   0.853   0.018  0.00  0.00    +0.137 C 
BRANCH  21  22
ATOM     22  C   UNL     1      -1.187   1.624   0.017  0.00  0.00    +0.224 C 
ATOM     23  O   UNL     1      -1.204   2.837   0.023  0.00  0.00    -0.275 OA
ATOM     24  N   UNL     1      -0.011   0.966   0.007  0.00  0.00    -0.328 N 
ATOM     25  H   UNL     1       0.934   1.529   0.006  0.00  0.00    +0.145 HD
ATOM     26  H   UNL     1       0.004  -0.134   0.001  0.00  0.00    +0.145 HD
ENDBRANCH  21  22
ENDBRANCH  19  21
ENDBRANCH   1  19
TORSDOF 7
