REMARK  Name = ZINC13507398
REMARK  8 active torsions:
REMARK  status: ('A' for Active; 'I' for Inactive)
REMARK    1  A    between atoms: C_3  and  N_8
REMARK    2  A    between atoms: N_8  and  C_9
REMARK    3  A    between atoms: C_9  and  C_11
REMARK    4  A    between atoms: C_9  and  C_18
REMARK    5  A    between atoms: N_20  and  C_21
REMARK    6  A    between atoms: C_26  and  C_28
REMARK    7  A    between atoms: C_28  and  N_29
REMARK    8  A    between atoms: C_30  and  C_32
REMARK                            x       y       z     vdW  Elec       q    Type
REMARK                         _______ _______ _______ _____ _____    ______ ____
ROOT
ATOM      1  N   UNL     1       0.979   3.912  -0.235  0.00  0.00    -0.254 N 
ATOM      2  C   UNL     1       0.002   4.218   0.642  0.00  0.00    +0.238 C 
ATOM      3  O   UNL     1       0.274   4.786   1.678  0.00  0.00    -0.274 OA
ENDROOT
BRANCH   1   6
ATOM      4  C   UNL     1      -0.158   1.504  -2.772  0.00  0.00    +0.005 A 
ATOM      5  C   UNL     1       0.162   2.055  -1.546  0.00  0.00    +0.024 A 
ATOM      6  C   UNL     1       0.655   3.352  -1.476  0.00  0.00    +0.040 A 
ATOM      7  C   UNL     1       0.827   4.090  -2.639  0.00  0.00    +0.062 A 
ATOM      8  C   UNL     1       0.505   3.534  -3.863  0.00  0.00    +0.125 A 
ATOM      9  C   UNL     1       0.013   2.241  -3.929  0.00  0.00    +0.038 A 
ATOM     10  F   UNL     1       0.671   4.252  -4.996  0.00  0.00    -0.205 F 
ENDBRANCH   1   6
BRANCH   1  11
ATOM     11  C   UNL     1       2.380   4.166   0.111  0.00  0.00    +0.197 C 
BRANCH  11  12
ATOM     12  C   UNL     1       3.253   3.870  -1.081  0.00  0.00    -0.018 A 
ATOM     13  C   UNL     1       3.206   2.624  -1.679  0.00  0.00    +0.007 A 
ATOM     14  C   UNL     1       4.003   2.353  -2.776  0.00  0.00    +0.020 A 
ATOM     15  C   UNL     1       4.856   3.325  -3.268  0.00  0.00    +0.041 A 
ATOM     16  C   UNL     1       4.907   4.570  -2.665  0.00  0.00    +0.020 A 
ATOM     17  C   UNL     1       4.105   4.841  -1.572  0.00  0.00    +0.007 A 
ATOM     18 CL   UNL     1       5.863   2.984  -4.640  0.00  0.00    -0.084 Cl
ENDBRANCH  11  12
BRANCH  11  19
ATOM     19  C   UNL     1       2.782   3.280   1.261  0.00  0.00    +0.239 C 
ATOM     20  O   UNL     1       1.978   2.511   1.745  0.00  0.00    -0.273 OA
ATOM     21  N   UNL     1       4.035   3.341   1.753  0.00  0.00    -0.311 N 
ATOM     22  H   UNL     1       4.679   3.955   1.366  0.00  0.00    +0.149 HD
BRANCH  21  23
ATOM     23  C   UNL     1       4.426   2.479   2.871  0.00  0.00    +0.073 C 
ATOM     24  C   UNL     1       4.100   3.172   4.211  0.00  0.00    +0.022 C 
ATOM     25  C   UNL     1       5.275   2.776   5.139  0.00  0.00    +0.002 C 
ATOM     26  C   UNL     1       6.493   2.812   4.183  0.00  0.00    +0.002 C 
ATOM     27  C   UNL     1       5.948   2.251   2.854  0.00  0.00    +0.022 C 
ENDBRANCH  21  23
ENDBRANCH  11  19
ENDBRANCH   1  11
BRANCH   2  28
ATOM     28  C   UNL     1      -1.427   3.854   0.334  0.00  0.00    +0.201 C 
BRANCH  28  29
ATOM     29  N   UNL     1      -2.274   4.190   1.481  0.00  0.00    -0.300 N 
ATOM     30  C   UNL     1      -3.600   3.951   1.433  0.00  0.00    +0.280 C 
ATOM     31  O   UNL     1      -4.093   3.456   0.436  0.00  0.00    -0.267 OA
ATOM     32  H   UNL     1      -1.881   4.584   2.275  0.00  0.00    +0.150 HD
BRANCH  30  33
ATOM     33  C   UNL     1      -4.448   4.287   2.581  0.00  0.00    +0.189 A 
ATOM     34  C   UNL     1      -5.798   4.098   2.664  0.00  0.00    +0.054 A 
ATOM     35  C   UNL     1      -6.192   4.558   3.931  0.00  0.00    +0.042 A 
ATOM     36  C   UNL     1      -5.080   5.001   4.557  0.00  0.00    +0.196 A 
ATOM     37  O   UNL     1      -4.030   4.831   3.743  0.00  0.00    -0.458 OA
ENDBRANCH  30  33
ENDBRANCH  28  29
ENDBRANCH   2  28
TORSDOF 8
