REMARK  Name = ZINC04784814
REMARK  5 active torsions:
REMARK  status: ('A' for Active; 'I' for Inactive)
REMARK    1  A    between atoms: C_1  and  C_2
REMARK    2  A    between atoms: C_2  and  N_3
REMARK    3  A    between atoms: C_13  and  S_14
REMARK    4  A    between atoms: S_14  and  C_15
REMARK    5  A    between atoms: C_15  and  C_16
REMARK                            x       y       z     vdW  Elec       q    Type
REMARK                         _______ _______ _______ _____ _____    ______ ____
ROOT
ATOM      1  N   UNL     1       0.688  -0.476  -1.203  0.00  0.00    -0.288 N 
ATOM      2  C   UNL     1      -0.020  -0.699  -2.336  0.00  0.00    +0.262 A 
ATOM      3  O   UNL     1      -1.222  -0.513  -2.376  0.00  0.00    -0.267 OA
ATOM      4  C   UNL     1       0.718  -1.171  -3.515  0.00  0.00    +0.065 A 
ATOM      5  C   UNL     1       0.082  -1.429  -4.728  0.00  0.00    +0.015 A 
ATOM      6  C   UNL     1       0.816  -1.867  -5.795  0.00  0.00    +0.001 A 
ATOM      7  C   UNL     1       2.188  -2.058  -5.682  0.00  0.00    +0.002 A 
ATOM      8  C   UNL     1       2.837  -1.813  -4.505  0.00  0.00    +0.028 A 
ATOM      9  C   UNL     1       2.114  -1.364  -3.396  0.00  0.00    +0.079 A 
ATOM     10  N   UNL     1       2.714  -1.111  -2.216  0.00  0.00    -0.223 NA
ATOM     11  C   UNL     1       2.037  -0.684  -1.178  0.00  0.00    +0.173 A 
ENDROOT
BRANCH   1  13
ATOM     12  C   UNL     1      -0.019   1.526   0.010  0.00  0.00    +0.027 C 
ATOM     13  C   UNL     1       0.002  -0.004   0.002  0.00  0.00    +0.124 C 
ENDBRANCH   1  13
BRANCH  11  14
ATOM     14  S   UNL     1       2.908  -0.372   0.322  0.00  0.00    -0.073 S 
BRANCH  14  15
ATOM     15  C   UNL     1       4.631  -0.768  -0.081  0.00  0.00    +0.195 C 
BRANCH  15  16
ATOM     16  C   UNL     1       5.475  -0.546   1.105  0.00  0.00    +0.074 C 
ATOM     17  N   UNL     1       6.127  -0.375   2.020  0.00  0.00    -0.196 NA
ENDBRANCH  15  16
ENDBRANCH  14  15
ENDBRANCH  11  14
TORSDOF 4
