REMARK  Name = ZINC08740000
REMARK  13 active torsions:
REMARK  status: ('A' for Active; 'I' for Inactive)
REMARK    1  A    between atoms: C_1  and  N_66
REMARK    2  A    between atoms: C_2  and  N_66
REMARK    3  A    between atoms: C_8  and  O_34
REMARK    4  A    between atoms: C_9  and  O_32
REMARK    5  A    between atoms: C_10  and  O_30
REMARK    6  A    between atoms: C_17  and  N_20
REMARK    7  A    between atoms: N_20  and  C_21
REMARK    8  A    between atoms: C_21  and  C_22
REMARK    9  A    between atoms: C_25  and  O_28
REMARK   10  A    between atoms: O_28  and  C_29
REMARK   11  A    between atoms: O_30  and  C_31
REMARK   12  A    between atoms: O_32  and  C_33
REMARK   13  A    between atoms: O_34  and  C_35
REMARK                            x       y       z     vdW  Elec       q    Type
REMARK                         _______ _______ _______ _____ _____    ______ ____
ROOT
ATOM      1  C   UNL     1       0.012  11.567  -3.775  0.00  0.00    -0.040 C 
ATOM      2  C   UNL     1      -1.328  12.240  -3.995  0.00  0.00    -0.007 C 
ATOM      3  C   UNL     1      -2.083  12.402  -2.678  0.00  0.00    +0.035 C 
ATOM      4  C   UNL     1      -1.142  12.902  -1.612  0.00  0.00    -0.033 A 
ATOM      5  C   UNL     1      -1.190  14.219  -1.207  0.00  0.00    +0.054 A 
ATOM      6  C   UNL     1      -0.338  14.671  -0.208  0.00  0.00    +0.165 A 
ATOM      7  C   UNL     1       0.569  13.802   0.389  0.00  0.00    +0.204 A 
ATOM      8  C   UNL     1       0.627  12.475  -0.018  0.00  0.00    +0.173 A 
ATOM      9  C   UNL     1      -0.232  12.028  -1.026  0.00  0.00    +0.031 A 
ATOM     10  C   UNL     1      -0.166  10.604  -1.474  0.00  0.00    -0.012 A 
ATOM     11  C   UNL     1      -0.105  10.374  -2.848  0.00  0.00    -0.050 A 
ATOM     12  C   UNL     1      -0.127   9.164  -3.435  0.00  0.00    +0.055 A 
ATOM     13  C   UNL     1      -0.178   7.893  -2.941  0.00  0.00    +0.200 A 
ATOM     14  O   UNL     1      -0.237   7.000  -3.776  0.00  0.00    -0.286 OA
ATOM     15  C   UNL     1      -0.170   7.478  -1.612  0.00  0.00    +0.075 A 
ATOM     16  C   UNL     1      -0.172   8.302  -0.527  0.00  0.00    +0.027 A 
ATOM     17  C   UNL     1      -0.175   9.647  -0.492  0.00  0.00    +0.011 A 
ENDROOT
BRANCH   1  19
ATOM     18  C   UNL     1       1.097  12.244  -5.831  0.00  0.00    -0.100 C 
ATOM     19  N   UNL     1       0.540  11.108  -5.073  0.00  0.00    +0.382 N 
ATOM     20  H   UNL     1       1.280  10.414  -4.912  0.00  0.00    -0.085 HD
ATOM     21  H   UNL     1      -0.219  10.678  -5.615  0.00  0.00    -0.085 HD
ENDBRANCH   1  19
BRANCH  15  22
ATOM     22  N   UNL     1      -0.166   6.114  -1.373  0.00  0.00    -0.337 N 
ATOM     23  H   UNL     1      -0.168   5.491  -2.116  0.00  0.00    +0.147 HD
BRANCH  22  24
ATOM     24  C   UNL     1      -0.158   5.611   0.004  0.00  0.00    +0.137 C 
BRANCH  24  25
ATOM     25  C   UNL     1      -0.155   4.104  -0.012  0.00  0.00    -0.030 A 
ATOM     26  C   UNL     1       1.045   3.417  -0.025  0.00  0.00    +0.009 A 
ATOM     27  C   UNL     1       1.050   2.036  -0.038  0.00  0.00    +0.046 A 
ATOM     28  C   UNL     1      -0.149   1.338  -0.039  0.00  0.00    +0.120 A 
ATOM     29  C   UNL     1      -1.351   2.030  -0.031  0.00  0.00    +0.046 A 
ATOM     30  C   UNL     1      -1.351   3.412  -0.012  0.00  0.00    +0.009 A 
BRANCH  28  31
ATOM     31  O   UNL     1      -0.146  -0.021  -0.053  0.00  0.00    -0.495 OA
ATOM     32  C   UNL     1      -1.418  -0.672  -0.052  0.00  0.00    +0.277 C 
ENDBRANCH  28  31
ENDBRANCH  24  25
ENDBRANCH  22  24
ENDBRANCH  15  22
BRANCH   8  33
ATOM     33  O   UNL     1       1.511  11.620   0.560  0.00  0.00    -0.491 OA
ATOM     34  C   UNL     1       2.803  11.518  -0.042  0.00  0.00    +0.277 C 
ENDBRANCH   8  33
BRANCH   7  35
ATOM     35  O   UNL     1       1.399  14.251   1.370  0.00  0.00    -0.488 OA
ATOM     36  C   UNL     1       0.923  14.157   2.715  0.00  0.00    +0.277 C 
ENDBRANCH   7  35
BRANCH   6  37
ATOM     37  O   UNL     1      -0.390  15.970   0.189  0.00  0.00    -0.491 OA
ATOM     38  C   UNL     1      -1.344  16.810  -0.464  0.00  0.00    +0.277 C 
ENDBRANCH   6  37
TORSDOF 8
