REMARK  Name = ZINC12318005
REMARK  8 active torsions:
REMARK  status: ('A' for Active; 'I' for Inactive)
REMARK    1  A    between atoms: C_1  and  C_2
REMARK    2  A    between atoms: C_2  and  C_3
REMARK    3  A    between atoms: C_2  and  C_4
REMARK    4  A    between atoms: C_2  and  O_29
REMARK    5  A    between atoms: C_5  and  C_6
REMARK    6  A    between atoms: C_9  and  C_12
REMARK    7  A    between atoms: C_12  and  N_54
REMARK    8  A    between atoms: C_13  and  N_54
REMARK                            x       y       z     vdW  Elec       q    Type
REMARK                         _______ _______ _______ _____ _____    ______ ____
ROOT
ATOM      1  N   UNL     1       0.088  -7.361  -1.434  0.00  0.00    +0.386 N 
ATOM      2  H   UNL     1       0.916  -6.998  -1.920  0.00  0.00    -0.085 HD
ATOM      3  H   UNL     1      -0.760  -7.021  -1.903  0.00  0.00    -0.085 HD
ENDROOT
BRANCH   1   4
ATOM      4  C   UNL     1       0.107  -8.835  -1.473  0.00  0.00    -0.037 C 
ATOM      5  C   UNL     1      -0.485  -9.317  -2.803  0.00  0.00    -0.011 C 
ATOM      6  C   UNL     1      -0.231 -10.819  -2.962  0.00  0.00    +0.005 C 
ATOM      7  C   UNL     1       1.263 -11.062  -3.207  0.00  0.00    +0.056 C 
ATOM      8  C   UNL     1       2.045 -10.317  -2.154  0.00  0.00    +0.048 A 
ATOM      9  C   UNL     1       1.530  -9.328  -1.380  0.00  0.00    -0.020 A 
ATOM     10  C   UNL     1       2.537  -8.882  -0.525  0.00  0.00    +0.137 A 
ATOM     11  N   UNL     1       3.622  -9.574  -0.772  0.00  0.00    -0.173 NA
ATOM     12  N   UNL     1       3.338 -10.488  -1.798  0.00  0.00    -0.218 N 
ATOM     13  C   UNL     1       4.231 -11.409  -2.353  0.00  0.00    +0.154 A 
ATOM     14  C   UNL     1       5.597 -11.161  -2.299  0.00  0.00    +0.048 A 
ATOM     15  C   UNL     1       6.471 -12.081  -2.852  0.00  0.00    +0.005 A 
ATOM     16  C   UNL     1       5.945 -13.222  -3.442  0.00  0.00    +0.020 A 
ATOM     17  C   UNL     1       4.576 -13.404  -3.459  0.00  0.00    +0.113 A 
ATOM     18  N   UNL     1       3.768 -12.512  -2.919  0.00  0.00    -0.236 NA
ENDBRANCH   1   4
BRANCH   1  19
ATOM     19  C   UNL     1       0.095  -6.885  -0.038  0.00  0.00    -0.046 C 
BRANCH  19  23
ATOM     20  C   UNL     1       0.037  -2.610  -0.012  0.00  0.00    +0.025 A 
ATOM     21  C   UNL     1       1.253  -3.294  -0.033  0.00  0.00    +0.017 A 
ATOM     22  C   UNL     1       1.265  -4.674  -0.036  0.00  0.00    +0.003 A 
ATOM     23  C   UNL     1       0.075  -5.379  -0.029  0.00  0.00    -0.064 A 
ATOM     24  C   UNL     1      -1.134  -4.706  -0.013  0.00  0.00    +0.003 A 
ATOM     25  C   UNL     1      -1.160  -3.327  -0.005  0.00  0.00    +0.017 A 
BRANCH  20  27
ATOM     26  C   UNL     1       0.002  -0.004   0.002  0.00  0.00    -0.063 C 
ATOM     27  C   UNL     1       0.018  -1.178  -0.004  0.00  0.00    -0.063 C 
BRANCH  26  29
ATOM     28  C   UNL     1      -0.758   1.975  -1.229  0.00  0.00    +0.055 C 
ATOM     29  C   UNL     1      -0.018   1.468   0.010  0.00  0.00    +0.121 C 
ATOM     30  C   UNL     1      -0.734   1.961   1.269  0.00  0.00    +0.055 C 
BRANCH  29  31
ATOM     31  O   UNL     1       1.323   1.962   0.000  0.00  0.00    -0.377 OA
ATOM     32  H   UNL     1       1.852   1.680   0.758  0.00  0.00    +0.211 HD
ENDBRANCH  29  31
ENDBRANCH  26  29
ENDBRANCH  20  27
ENDBRANCH  19  23
ENDBRANCH   1  19
TORSDOF 6
