REMARK  Name = ZINC28120849
REMARK  10 active torsions:
REMARK  status: ('A' for Active; 'I' for Inactive)
REMARK    1  A    between atoms: C_1  and  C_2
REMARK    2  A    between atoms: C_2  and  C_3
REMARK    3  A    between atoms: C_8  and  C_27
REMARK    4  A    between atoms: C_9  and  C_24
REMARK    5  A    between atoms: C_12  and  C_15
REMARK    6  A    between atoms: C_13  and  O_14
REMARK    7  A    between atoms: C_15  and  N_16
REMARK    8  A    between atoms: C_20  and  C_23
REMARK    9  A    between atoms: C_24  and  C_25
REMARK   10  A    between atoms: C_24  and  C_26
REMARK                            x       y       z     vdW  Elec       q    Type
REMARK                         _______ _______ _______ _____ _____    ______ ____
ROOT
ATOM      1  C   UNL     1       2.107   1.802  -1.465  0.00  0.00    -0.005 A 
ATOM      2  C   UNL     1       3.288   2.482  -1.361  0.00  0.00    +0.022 A 
ATOM      3  C   UNL     1       3.835   2.730  -0.102  0.00  0.00    +0.065 A 
ATOM      4  C   UNL     1       5.108   3.459   0.048  0.00  0.00    +0.202 A 
ATOM      5  O   UNL     1       5.726   3.871  -0.919  0.00  0.00    -0.286 OA
ATOM      6  C   UNL     1       5.596   3.666   1.423  0.00  0.00    +0.093 A 
ATOM      7  C   UNL     1       4.857   3.179   2.459  0.00  0.00    +0.122 A 
ATOM      8  O   UNL     1       3.710   2.524   2.275  0.00  0.00    -0.458 OA
ATOM      9  C   UNL     1       3.180   2.285   1.059  0.00  0.00    +0.144 A 
ATOM     10  C   UNL     1       1.978   1.600   0.936  0.00  0.00    +0.021 A 
ATOM     11  C   UNL     1       1.450   1.356  -0.321  0.00  0.00    +0.125 A 
ENDROOT
BRANCH   6  12
ATOM     12  C   UNL     1       6.861   4.385   1.674  0.00  0.00    +0.116 A 
ATOM     13  N   UNL     1       7.389   4.752   2.822  0.00  0.00    -0.239 NA
ATOM     14  C   UNL     1       8.565   5.405   2.902  0.00  0.00    +0.079 A 
ATOM     15  C   UNL     1       9.241   5.849   4.063  0.00  0.00    +0.029 A 
ATOM     16  C   UNL     1      10.429   6.505   3.971  0.00  0.00    +0.002 A 
ATOM     17  C   UNL     1      11.023   6.767   2.744  0.00  0.00    +0.001 A 
ATOM     18  C   UNL     1      10.395   6.351   1.585  0.00  0.00    +0.017 A 
ATOM     19  C   UNL     1       9.196   5.686   1.667  0.00  0.00    +0.040 A 
ATOM     20  S   UNL     1       8.061   4.987   0.493  0.00  0.00    -0.067 S 
ENDBRANCH   6  12
BRANCH   7  21
ATOM     21  C   UNL     1       5.354   3.390   3.866  0.00  0.00    +0.050 C 
ATOM     22  C   UNL     1       4.798   4.707   4.411  0.00  0.00    +0.015 C 
ATOM     23  C   UNL     1       4.885   2.233   4.751  0.00  0.00    +0.015 C 
ENDBRANCH   7  21
BRANCH   1  25
ATOM     24  C   UNL     1       0.495   2.624  -3.160  0.00  0.00    +0.009 C 
ATOM     25  C   UNL     1       1.514   1.533  -2.824  0.00  0.00    +0.035 C 
ENDBRANCH   1  25
BRANCH  11  26
ATOM     26  O   UNL     1       0.278   0.682  -0.438  0.00  0.00    -0.506 OA
ATOM     27  H   UNL     1      -0.246   0.328   0.462  0.00  0.00    +0.292 HD
ENDBRANCH  11  26
BRANCH  10  28
ATOM     28  C   UNL     1       1.254   1.118   2.167  0.00  0.00    -0.036 C 
BRANCH  28  29
ATOM     29  N   UNL     1       1.713  -0.236   2.506  0.00  0.00    +0.383 N 
ATOM     30  C   UNL     1       1.327  -1.199   1.467  0.00  0.00    -0.078 C 
ATOM     31  C   UNL     1       1.944  -2.564   1.780  0.00  0.00    -0.018 C 
ATOM     32  C   UNL     1       1.453  -3.039   3.150  0.00  0.00    -0.001 C 
ATOM     33  C   UNL     1       1.826  -1.995   4.207  0.00  0.00    -0.031 C 
ATOM     34  C   UNL     1       1.212  -0.647   3.824  0.00  0.00    -0.075 C 
ATOM     35  C   UNL     1       1.287  -2.433   5.570  0.00  0.00    +0.005 C 
ATOM     36  H   UNL     1       2.812  -0.219   2.556  0.00  0.00    -0.081 HD
ENDBRANCH  28  29
ENDBRANCH  10  28
TORSDOF 6
