REMARK  Name = ZINC44901696
REMARK  6 active torsions:
REMARK  status: ('A' for Active; 'I' for Inactive)
REMARK    1  A    between atoms: C_1  and  C_2
REMARK    2  A    between atoms: C_2  and  N_3
REMARK    3  A    between atoms: C_5  and  C_9
REMARK    4  A    between atoms: C_6  and  C_8
REMARK    5  A    between atoms: C_12  and  C_27
REMARK    6  A    between atoms: N_14  and  C_21
REMARK                            x       y       z     vdW  Elec       q    Type
REMARK                         _______ _______ _______ _____ _____    ______ ____
ROOT
ATOM      1  C   UNL     1       0.875  -2.085   4.255  0.00  0.00    +0.115 C 
ATOM      2  C   UNL     1       1.415  -3.481   4.244  0.00  0.00    +0.033 A 
ATOM      3  C   UNL     1       2.386  -3.901   3.310  0.00  0.00    +0.067 A 
ATOM      4  N   UNL     1       2.667  -5.153   3.529  0.00  0.00    -0.170 NA
ATOM      5  N   UNL     1       1.895  -5.591   4.605  0.00  0.00    -0.218 N 
ATOM      6  C   UNL     1       1.124  -4.535   5.039  0.00  0.00    +0.133 A 
ATOM      7  N   UNL     1       0.264  -4.673   6.101  0.00  0.00    -0.269 N 
ATOM      8  C   UNL     1      -0.599  -3.900   6.690  0.00  0.00    +0.228 C 
ATOM      9  O   UNL     1      -1.258  -4.437   7.554  0.00  0.00    -0.275 OA
ATOM     10  C   UNL     1      -0.903  -2.469   6.474  0.00  0.00    +0.166 C 
ATOM     11  S   UNL     1      -0.851  -1.998   4.739  0.00  0.00    -0.138 S 
ATOM     12  C   UNL     1       2.997  -3.040   2.235  0.00  0.00    +0.068 C 
ATOM     13  H   UNL     1       0.311  -5.553   6.505  0.00  0.00    +0.156 HD
ENDROOT
BRANCH   1  16
ATOM     14  N   UNL     1       1.753  -0.343   1.174  0.00  0.00    -0.271 N 
ATOM     15  C   UNL     1       1.966  -0.617   2.478  0.00  0.00    +0.113 A 
ATOM     16  C   UNL     1       1.020  -1.500   2.873  0.00  0.00    +0.010 A 
ATOM     17  C   UNL     1       0.202  -1.776   1.773  0.00  0.00    +0.064 A 
ATOM     18  N   UNL     1       0.637  -1.078   0.755  0.00  0.00    -0.176 NA
ATOM     19  C   UNL     1      -0.981  -2.710   1.763  0.00  0.00    +0.068 C 
BRANCH  14  21
ATOM     20  C   UNL     1       3.039  -0.174  -0.900  0.00  0.00    +0.029 C 
ATOM     21  C   UNL     1       2.546   0.568   0.344  0.00  0.00    +0.140 C 
ENDBRANCH  14  21
ENDBRANCH   1  16
BRANCH   5  22
ATOM     22  C   UNL     1       1.903  -6.882   5.151  0.00  0.00    +0.067 A 
ATOM     23  C   UNL     1       3.107  -7.537   5.373  0.00  0.00    +0.028 A 
ATOM     24  C   UNL     1       3.110  -8.808   5.911  0.00  0.00    +0.002 A 
ATOM     25  C   UNL     1       1.917  -9.430   6.229  0.00  0.00    +0.000 A 
ATOM     26  C   UNL     1       0.716  -8.781   6.008  0.00  0.00    +0.002 A 
ATOM     27  C   UNL     1       0.706  -7.506   5.476  0.00  0.00    +0.028 A 
ENDBRANCH   5  22
TORSDOF 3
