REMARK  Name = ZINC59531626
REMARK  12 active torsions:
REMARK  status: ('A' for Active; 'I' for Inactive)
REMARK    1  A    between atoms: C_1  and  C_2
REMARK    2  A    between atoms: C_2  and  C_3
REMARK    3  A    between atoms: C_3  and  C_5
REMARK    4  A    between atoms: C_3  and  O_6
REMARK    5  A    between atoms: O_6  and  C_7
REMARK    6  A    between atoms: C_12  and  C_13
REMARK    7  A    between atoms: C_18  and  C_23
REMARK    8  A    between atoms: C_26  and  O_31
REMARK    9  A    between atoms: C_27  and  O_29
REMARK   10  A    between atoms: O_29  and  C_30
REMARK   11  A    between atoms: O_31  and  C_32
REMARK   12  A    between atoms: C_32  and  C_33
REMARK                            x       y       z     vdW  Elec       q    Type
REMARK                         _______ _______ _______ _____ _____    ______ ____
ROOT
ATOM      1  C   UNL     1      -3.135   0.516   3.867  0.00  0.00    +0.139 C 
ATOM      2  C   UNL     1      -2.655   1.941   4.004  0.00  0.00    +0.037 C 
ATOM      3  C   UNL     1      -3.051   2.820   4.940  0.00  0.00    +0.017 C 
ATOM      4  C   UNL     1      -2.503   4.237   4.946  0.00  0.00    +0.059 C 
ATOM      5  C   UNL     1      -1.065   4.242   4.429  0.00  0.00    +0.032 C 
ATOM      6  C   UNL     1      -1.080   3.683   3.002  0.00  0.00    +0.088 C 
ATOM      7  C   UNL     1      -1.701   2.319   3.030  0.00  0.00    +0.163 C 
ATOM      8  O   UNL     1      -1.373   1.508   2.186  0.00  0.00    -0.292 OA
ATOM      9  N   UNL     1      -3.941   2.553   5.929  0.00  0.00    -0.316 N 
ATOM     10  C   UNL     1      -5.160   1.911   5.746  0.00  0.00    +0.052 A 
ATOM     11  C   UNL     1      -6.371   2.545   5.971  0.00  0.00    +0.025 A 
ATOM     12  C   UNL     1      -7.548   1.834   5.813  0.00  0.00    +0.002 A 
ATOM     13  C   UNL     1      -7.515   0.503   5.438  0.00  0.00    +0.002 A 
ATOM     14  C   UNL     1      -6.306  -0.127   5.196  0.00  0.00    +0.025 A 
ATOM     15  C   UNL     1      -5.127   0.588   5.333  0.00  0.00    +0.049 A 
ATOM     16  N   UNL     1      -3.897   0.032   4.999  0.00  0.00    -0.331 N 
ATOM     17  H   UNL     1      -3.709   2.830   6.830  0.00  0.00    +0.152 HD
ATOM     18  H   UNL     1      -3.545  -0.697   5.534  0.00  0.00    +0.147 HD
ENDROOT
BRANCH   1  24
ATOM     19  C   UNL     1      -4.193  -0.810   2.020  0.00  0.00    +0.126 A 
ATOM     20  C   UNL     1      -4.991  -0.897   0.888  0.00  0.00    +0.046 A 
ATOM     21  C   UNL     1      -5.583   0.239   0.373  0.00  0.00    +0.004 A 
ATOM     22  C   UNL     1      -5.382   1.463   0.984  0.00  0.00    +0.001 A 
ATOM     23  C   UNL     1      -4.587   1.553   2.112  0.00  0.00    +0.009 A 
ATOM     24  C   UNL     1      -3.997   0.418   2.634  0.00  0.00    +0.019 A 
BRANCH  19  25
ATOM     25  O   UNL     1      -3.609  -1.927   2.529  0.00  0.00    -0.489 OA
BRANCH  25  26
ATOM     26  C   UNL     1      -3.912  -3.167   1.888  0.00  0.00    +0.170 C 
ATOM     27  C   UNL     1      -5.242  -3.705   2.421  0.00  0.00    +0.052 C 
BRANCH  26  29
ATOM     28  C   UNL     1      -1.493  -3.692   1.548  0.00  0.00    +0.007 C 
ATOM     29  C   UNL     1      -2.800  -4.177   2.179  0.00  0.00    +0.041 C 
ENDBRANCH  26  29
ENDBRANCH  25  26
ENDBRANCH  19  25
ENDBRANCH   1  24
BRANCH   5  30
ATOM     30  C   UNL     1      -0.530   5.651   4.422  0.00  0.00    -0.040 A 
ATOM     31  C   UNL     1      -1.159   6.624   3.668  0.00  0.00    +0.008 A 
ATOM     32  C   UNL     1      -0.672   7.918   3.658  0.00  0.00    +0.050 A 
ATOM     33  C   UNL     1       0.449   8.242   4.404  0.00  0.00    +0.162 A 
ATOM     34  C   UNL     1       1.082   7.263   5.163  0.00  0.00    +0.162 A 
ATOM     35  C   UNL     1       0.586   5.969   5.173  0.00  0.00    +0.053 A 
BRANCH  34  36
ATOM     36  O   UNL     1       2.183   7.576   5.898  0.00  0.00    -0.491 OA
ATOM     37  C   UNL     1       2.781   6.520   6.653  0.00  0.00    +0.277 C 
ENDBRANCH  34  36
BRANCH  33  38
ATOM     38  O   UNL     1       0.930   9.514   4.395  0.00  0.00    -0.489 OA
BRANCH  38  39
ATOM     39  C   UNL     1       0.229  10.466   3.592  0.00  0.00    +0.226 C 
ATOM     40  C   UNL     1       0.912  11.831   3.708  0.00  0.00    +0.048 C 
ENDBRANCH  38  39
ENDBRANCH  33  38
ENDBRANCH   5  30
TORSDOF 8
