REMARK  Name = ZINC22854047
REMARK  5 active torsions:
REMARK  status: ('A' for Active; 'I' for Inactive)
REMARK    1  A    between atoms: C_1  and  C_2
REMARK    2  A    between atoms: C_2  and  C_3
REMARK    3  A    between atoms: C_9  and  C_11
REMARK    4  A    between atoms: C_11  and  C_13
REMARK    5  A    between atoms: C_11  and  N_20
REMARK                            x       y       z     vdW  Elec       q    Type
REMARK                         _______ _______ _______ _____ _____    ______ ____
ROOT
ATOM      1  C   UNL     1       2.490   1.047  -0.016  0.00  0.00    +0.006 C 
ENDROOT
BRANCH   1   2
ATOM      2  N   UNL     1       3.444   1.729   0.869  0.00  0.00    +0.388 N 
ATOM      3  C   UNL     1       2.856   1.966   2.193  0.00  0.00    -0.072 C 
ATOM      4  C   UNL     1       3.818   2.807   3.036  0.00  0.00    +0.046 C 
ATOM      5  C   UNL     1       5.152   2.069   3.167  0.00  0.00    +0.167 C 
ATOM      6  C   UNL     1       5.719   1.784   1.775  0.00  0.00    +0.046 C 
ATOM      7  C   UNL     1       4.699   0.974   0.971  0.00  0.00    -0.072 C 
ATOM      8  O   UNL     1       6.079   2.880   3.906  0.00  0.00    -0.346 OA
ATOM      9  C   UNL     1       5.976   2.409   5.271  0.00  0.00    +0.191 C 
ATOM     10  C   UNL     1       5.757   0.889   5.064  0.00  0.00    +0.191 C 
ATOM     11  O   UNL     1       4.953   0.835   3.868  0.00  0.00    -0.346 OA
ATOM     12  H   UNL     1       3.678   2.708   0.427  0.00  0.00    -0.080 HD
ENDBRANCH   1   2
BRANCH   1  19
ATOM     13  C   UNL     1       4.428   0.213  -5.593  0.00  0.00    +0.152 A 
ATOM     14  N   UNL     1       4.587   1.422  -5.058  0.00  0.00    -0.205 NA
ATOM     15  C   UNL     1       4.110   1.422  -3.844  0.00  0.00    +0.199 A 
ATOM     16  N   UNL     1       3.616   0.189  -3.546  0.00  0.00    -0.170 N 
ATOM     17  N   UNL     1       3.847  -0.569  -4.723  0.00  0.00    -0.146 NA
ATOM     18  C   UNL     1       3.076   0.012  -2.295  0.00  0.00    +0.282 A 
ATOM     19  C   UNL     1       3.035   1.024  -1.421  0.00  0.00    +0.050 A 
ATOM     20  S   UNL     1       3.804   2.340  -2.353  0.00  0.00    -0.050 S 
ATOM     21  O   UNL     1       2.575  -1.203  -1.943  0.00  0.00    -0.265 OA
BRANCH  13  23
ATOM     22  C   UNL     1       3.704   0.069  -7.960  0.00  0.00    +0.012 C 
ATOM     23  C   UNL     1       4.851  -0.189  -6.982  0.00  0.00    +0.075 C 
ENDBRANCH  13  23
ENDBRANCH   1  19
BRANCH   1  24
ATOM     24  C   UNL     1       1.175   1.783   0.000  0.00  0.00    -0.056 A 
ATOM     25  C   UNL     1      -0.013   1.076   0.008  0.00  0.00    +0.004 A 
ATOM     26  C   UNL     1      -1.219   1.750   0.017  0.00  0.00    +0.020 A 
ATOM     27  C   UNL     1      -1.237   3.134   0.030  0.00  0.00    +0.041 A 
ATOM     28  C   UNL     1      -0.048   3.841   0.022  0.00  0.00    +0.020 A 
ATOM     29  C   UNL     1       1.157   3.165   0.008  0.00  0.00    +0.004 A 
ATOM     30 CL   UNL     1      -2.752   3.982   0.048  0.00  0.00    -0.084 Cl
ENDBRANCH   1  24
TORSDOF 4
