REMARK  Name = ZINC39688397
REMARK  8 active torsions:
REMARK  status: ('A' for Active; 'I' for Inactive)
REMARK    1  A    between atoms: C_1  and  C_2
REMARK    2  A    between atoms: C_2  and  C_4
REMARK    3  A    between atoms: C_2  and  N_12
REMARK    4  A    between atoms: C_4  and  C_5
REMARK    5  A    between atoms: C_13  and  C_15
REMARK    6  A    between atoms: C_26  and  C_28
REMARK    7  A    between atoms: C_28  and  C_29
REMARK    8  A    between atoms: C_28  and  C_30
REMARK                            x       y       z     vdW  Elec       q    Type
REMARK                         _______ _______ _______ _____ _____    ______ ____
ROOT
ATOM      1  C   UNL     1       2.783  -1.099   2.395  0.00  0.00    +0.100 C 
ATOM      2  C   UNL     1       2.678  -0.070   3.542  0.00  0.00    +0.121 C 
ATOM      3  N   UNL     1       3.999  -0.120   4.212  0.00  0.00    -0.300 N 
ATOM      4  C   UNL     1       4.971  -0.257   3.101  0.00  0.00    +0.115 C 
ATOM      5  C   UNL     1       4.289  -1.218   2.107  0.00  0.00    -0.004 C 
ATOM      6  C   UNL     1       4.761  -2.649   2.350  0.00  0.00    -0.010 C 
ATOM      7  C   UNL     1       6.249  -2.756   2.003  0.00  0.00    -0.082 C 
ATOM      8  N   UNL     1       6.454  -2.382   0.598  0.00  0.00    +0.379 N 
ATOM      9  C   UNL     1       6.084  -0.977   0.394  0.00  0.00    -0.082 C 
ATOM     10  C   UNL     1       4.589  -0.795   0.673  0.00  0.00    -0.010 C 
ATOM     11  C   UNL     1       4.258  -0.056   5.533  0.00  0.00    +0.218 C 
ATOM     12  O   UNL     1       5.403  -0.110   5.929  0.00  0.00    -0.275 OA
ATOM     13  H   UNL     1       7.425  -2.512   0.356  0.00  0.00    -0.086 HD
ATOM     14  H   UNL     1       5.881  -2.968   0.009  0.00  0.00    -0.086 HD
ENDROOT
BRANCH   1  16
ATOM     15  N   UNL     1       1.468  -1.476   0.333  0.00  0.00    -0.312 N 
ATOM     16  C   UNL     1       2.054  -0.600   1.174  0.00  0.00    +0.218 C 
ATOM     17  O   UNL     1       1.994   0.590   0.947  0.00  0.00    -0.275 OA
ATOM     18  H   UNL     1       1.516  -2.428   0.514  0.00  0.00    +0.149 HD
BRANCH  15  20
ATOM     19  C   UNL     1      -0.676  -0.619  -0.474  0.00  0.00    +0.028 C 
ATOM     20  C   UNL     1       0.759  -0.991  -0.854  0.00  0.00    +0.074 C 
BRANCH  20  21
ATOM     21  C   UNL     1       0.738  -2.088  -1.919  0.00  0.00    +0.057 C 
BRANCH  21  22
ATOM     22  C   UNL     1       2.145  -2.368  -2.381  0.00  0.00    -0.045 A 
ATOM     23  C   UNL     1       2.676  -1.660  -3.443  0.00  0.00    +0.006 A 
ATOM     24  C   UNL     1       3.966  -1.915  -3.868  0.00  0.00    +0.038 A 
ATOM     25  C   UNL     1       4.727  -2.880  -3.228  0.00  0.00    +0.123 A 
ATOM     26  C   UNL     1       4.194  -3.587  -2.165  0.00  0.00    +0.038 A 
ATOM     27  C   UNL     1       2.905  -3.327  -1.739  0.00  0.00    +0.006 A 
ATOM     28  F   UNL     1       5.988  -3.130  -3.643  0.00  0.00    -0.205 F 
ENDBRANCH  21  22
ENDBRANCH  20  21
ENDBRANCH  15  20
ENDBRANCH   1  16
BRANCH  11  29
ATOM     29  C   UNL     1       3.126   0.084   6.517  0.00  0.00    +0.069 C 
ATOM     30  C   UNL     1       3.689   0.134   7.939  0.00  0.00    +0.017 C 
ATOM     31  C   UNL     1       2.355   1.374   6.229  0.00  0.00    +0.017 C 
ENDBRANCH  11  29
TORSDOF 5
