REMARK  Name = ZINC09579207
REMARK  11 active torsions:
REMARK  status: ('A' for Active; 'I' for Inactive)
REMARK    1  A    between atoms: C_1  and  C_2
REMARK    2  A    between atoms: C_3  and  C_35
REMARK    3  A    between atoms: N_4  and  C_28
REMARK    4  A    between atoms: C_5  and  N_9
REMARK    5  A    between atoms: C_6  and  C_7
REMARK    6  A    between atoms: C_10  and  C_12
REMARK    7  A    between atoms: C_12  and  N_68
REMARK    8  A    between atoms: C_15  and  C_18
REMARK    9  A    between atoms: N_20  and  C_21
REMARK   10  A    between atoms: C_26  and  O_27
REMARK   11  A    between atoms: C_28  and  C_29
REMARK                            x       y       z     vdW  Elec       q    Type
REMARK                         _______ _______ _______ _____ _____    ______ ____
ROOT
ATOM      1  C   UNL     1      -1.733  -2.905  -0.275  0.00  0.00    +0.019 C 
ENDROOT
BRANCH   1   7
ATOM      2  C   UNL     1      -0.420  -4.620   0.817  0.00  0.00    -0.077 C 
ATOM      3  C   UNL     1       0.060  -6.069   0.701  0.00  0.00    -0.006 C 
ATOM      4  C   UNL     1      -1.146  -7.008   0.772  0.00  0.00    +0.072 C 
ATOM      5  C   UNL     1      -2.131  -6.649  -0.344  0.00  0.00    -0.006 C 
ATOM      6  C   UNL     1      -2.547  -5.183  -0.197  0.00  0.00    -0.077 C 
ATOM      7  N   UNL     1      -1.344  -4.330  -0.299  0.00  0.00    +0.385 N 
ATOM      8  H   UNL     1      -0.868  -4.530  -1.187  0.00  0.00    -0.081 HD
BRANCH   4   9
ATOM      9  C   UNL     1      -0.686  -8.433   0.598  0.00  0.00    +0.220 C 
ATOM     10  O   UNL     1      -1.104  -9.096  -0.327  0.00  0.00    -0.275 OA
ATOM     11  N   UNL     1       0.189  -8.970   1.471  0.00  0.00    -0.282 N 
ATOM     12  H   UNL     1       0.453  -8.473   2.261  0.00  0.00    +0.155 HD
BRANCH  11  13
ATOM     13  C   UNL     1       0.718 -10.246   1.238  0.00  0.00    +0.075 A 
ATOM     14  C   UNL     1       0.825 -10.729  -0.059  0.00  0.00    +0.027 A 
ATOM     15  C   UNL     1       1.346 -11.988  -0.287  0.00  0.00    +0.002 A 
ATOM     16  C   UNL     1       1.763 -12.770   0.775  0.00  0.00    +0.004 A 
ATOM     17  C   UNL     1       1.660 -12.296   2.070  0.00  0.00    +0.047 A 
ATOM     18  C   UNL     1       1.143 -11.032   2.306  0.00  0.00    +0.138 A 
BRANCH  18  19
ATOM     19  O   UNL     1       1.047 -10.563   3.579  0.00  0.00    -0.505 OA
ATOM     20  H   UNL     1       0.209 -10.774   4.013  0.00  0.00    +0.292 HD
ENDBRANCH  18  19
ENDBRANCH  11  13
ENDBRANCH   4   9
ENDBRANCH   1   7
BRANCH   1  22
ATOM     21  N   UNL     1      -0.577  -0.718  -0.253  0.00  0.00    -0.272 N 
ATOM     22  C   UNL     1      -0.491  -2.057  -0.379  0.00  0.00    +0.202 C 
ATOM     23  O   UNL     1       0.585  -2.580  -0.577  0.00  0.00    -0.278 OA
ATOM     24  H   UNL     1      -1.419  -0.307  -0.004  0.00  0.00    +0.156 HD
BRANCH  21  29
ATOM     25  C   UNL     1       3.814   1.077  -1.994  0.00  0.00    +0.047 C 
ATOM     26  C   UNL     1       2.519   0.911  -1.242  0.00  0.00    -0.011 A 
ATOM     27  C   UNL     1       2.001   1.760  -0.339  0.00  0.00    +0.022 A 
ATOM     28  N   UNL     1       0.813   1.260   0.123  0.00  0.00    -0.329 N 
ATOM     29  C   UNL     1       0.541   0.072  -0.477  0.00  0.00    +0.123 A 
ATOM     30  C   UNL     1       1.579  -0.211  -1.354  0.00  0.00    +0.095 A 
ATOM     31  C   UNL     1       2.629   3.059   0.096  0.00  0.00    +0.064 C 
BRANCH  30  32
ATOM     32  C   UNL     1       1.709  -1.365  -2.192  0.00  0.00    +0.103 C 
ATOM     33  N   UNL     1       1.812  -2.280  -2.857  0.00  0.00    -0.191 NA
ENDBRANCH  30  32
BRANCH  28  34
ATOM     34  C   UNL     1      -0.041   1.912   1.119  0.00  0.00    +0.154 C 
BRANCH  34  35
ATOM     35  C   UNL     1       0.446   1.549   2.523  0.00  0.00    +0.138 C 
ATOM     36  C   UNL     1      -0.411   2.272   3.593  0.00  0.00    +0.035 C 
ATOM     37  C   UNL     1      -0.222   1.327   4.810  0.00  0.00    +0.031 C 
ATOM     38  C   UNL     1      -0.128  -0.059   4.138  0.00  0.00    +0.160 C 
ATOM     39  O   UNL     1       0.251   0.147   2.772  0.00  0.00    -0.375 OA
ENDBRANCH  34  35
ENDBRANCH  28  34
ENDBRANCH  21  29
ENDBRANCH   1  22
TORSDOF 9
