REMARK  Name = ZINC14464743
REMARK  6 active torsions:
REMARK  status: ('A' for Active; 'I' for Inactive)
REMARK    1  A    between atoms: C_1  and  O_2
REMARK    2  A    between atoms: O_2  and  C_3
REMARK    3  A    between atoms: C_6  and  N_9
REMARK    4  A    between atoms: N_9  and  S_10
REMARK    5  A    between atoms: S_10  and  C_13
REMARK    6  A    between atoms: C_26  and  C_29
REMARK                            x       y       z     vdW  Elec       q    Type
REMARK                         _______ _______ _______ _____ _____    ______ ____
ROOT
ATOM      1  C   UNL     1       4.035   3.289  -0.381  0.00  0.00    +0.109 A 
ATOM      2  C   UNL     1       5.123   3.403   0.465  0.00  0.00    +0.030 A 
ATOM      3  C   UNL     1       5.480   4.642   0.957  0.00  0.00    +0.025 A 
ATOM      4  C   UNL     1       4.746   5.768   0.602  0.00  0.00    +0.031 A 
ATOM      5  C   UNL     1       3.655   5.658  -0.242  0.00  0.00    -0.018 A 
ATOM      6  C   UNL     1       3.309   4.408  -0.737  0.00  0.00    +0.034 A 
ATOM      7  C   UNL     1       2.819   6.839  -0.656  0.00  0.00    +0.049 C 
ATOM      8  C   UNL     1       1.393   6.573  -0.192  0.00  0.00    -0.023 C 
ATOM      9  C   UNL     1       1.169   7.160   0.956  0.00  0.00    -0.030 C 
ATOM     10  C   UNL     1       2.407   7.904   1.423  0.00  0.00    +0.033 C 
ATOM     11  C   UNL     1       3.195   8.121   0.109  0.00  0.00    +0.029 C 
ATOM     12  C   UNL     1       4.686   8.211   0.377  0.00  0.00    +0.105 C 
ATOM     13  N   UNL     1       5.127   7.017   1.106  0.00  0.00    -0.336 N 
ATOM     14  H   UNL     1       5.665   7.090   1.910  0.00  0.00    +0.147 HD
ENDROOT
BRANCH  12  15
ATOM     15  C   UNL     1       5.426   8.303  -0.933  0.00  0.00    -0.027 A 
ATOM     16  C   UNL     1       5.670   7.159  -1.670  0.00  0.00    +0.007 A 
ATOM     17  C   UNL     1       6.344   7.242  -2.874  0.00  0.00    +0.020 A 
ATOM     18  C   UNL     1       6.785   8.470  -3.335  0.00  0.00    +0.041 A 
ATOM     19  C   UNL     1       6.546   9.613  -2.594  0.00  0.00    +0.020 A 
ATOM     20  C   UNL     1       5.867   9.529  -1.394  0.00  0.00    +0.007 A 
ATOM     21 CL   UNL     1       7.638   8.575  -4.843  0.00  0.00    -0.084 Cl
ENDBRANCH  12  15
BRANCH   1  22
ATOM     22  S   UNL     1       3.576   1.709  -1.013  0.00  0.00    +0.072 S 
ATOM     23  O   UNL     1       4.710   0.866  -0.859  0.00  0.00    -0.150 OA
ATOM     24  O   UNL     1       2.963   1.938  -2.275  0.00  0.00    -0.150 OA
BRANCH  22  25
ATOM     25  N   UNL     1       2.399   1.106  -0.017  0.00  0.00    -0.216 N 
ATOM     26  H   UNL     1       1.515   0.919  -0.370  0.00  0.00    +0.174 HD
BRANCH  25  30
ATOM     27  C   UNL     1       3.235   0.393   4.004  0.00  0.00    +0.120 A 
ATOM     28  C   UNL     1       2.071   1.056   3.645  0.00  0.00    +0.047 A 
ATOM     29  C   UNL     1       1.790   1.288   2.312  0.00  0.00    +0.028 A 
ATOM     30  C   UNL     1       2.679   0.866   1.333  0.00  0.00    +0.048 A 
ATOM     31  C   UNL     1       3.847   0.207   1.693  0.00  0.00    +0.028 A 
ATOM     32  C   UNL     1       4.123  -0.028   3.026  0.00  0.00    +0.047 A 
BRANCH  27  34
ATOM     33  C   UNL     1       2.549   0.622   6.269  0.00  0.00    +0.277 C 
ATOM     34  O   UNL     1       3.508   0.161   5.316  0.00  0.00    -0.495 OA
ENDBRANCH  27  34
ENDBRANCH  25  30
ENDBRANCH  22  25
ENDBRANCH   1  22
TORSDOF 5
