REMARK  Name = ZINC39681116
REMARK  7 active torsions:
REMARK  status: ('A' for Active; 'I' for Inactive)
REMARK    1  A    between atoms: C_1  and  C_2
REMARK    2  A    between atoms: C_5  and  C_9
REMARK    3  A    between atoms: C_6  and  C_8
REMARK    4  A    between atoms: C_13  and  C_22
REMARK    5  A    between atoms: N_24  and  C_25
REMARK    6  A    between atoms: C_25  and  C_27
REMARK    7  A    between atoms: C_25  and  C_28
REMARK                            x       y       z     vdW  Elec       q    Type
REMARK                         _______ _______ _______ _____ _____    ______ ____
ROOT
ATOM      1  C   UNL     1       0.147  -4.142  -0.012  0.00  0.00    +0.247 C 
ATOM      2  O   UNL     1       0.258  -4.726   1.048  0.00  0.00    -0.270 OA
ATOM      3  N   UNL     1       0.093  -4.840  -1.164  0.00  0.00    -0.296 N 
ATOM      4  C   UNL     1       0.068  -4.309  -2.547  0.00  0.00    +0.121 C 
ATOM      5  C   UNL     1       0.965  -5.275  -3.353  0.00  0.00    +0.100 C 
ATOM      6  C   UNL     1       0.945  -6.588  -2.552  0.00  0.00    -0.004 C 
ATOM      7  C   UNL     1       0.053  -6.312  -1.333  0.00  0.00    +0.115 C 
ATOM      8  C   UNL     1       0.355  -7.713  -3.397  0.00  0.00    -0.010 C 
ATOM      9  C   UNL     1       0.399  -9.020  -2.600  0.00  0.00    -0.082 C 
ATOM     10  N   UNL     1       1.789  -9.329  -2.240  0.00  0.00    +0.379 N 
ATOM     11  C   UNL     1       2.319  -8.288  -1.352  0.00  0.00    -0.082 C 
ATOM     12  C   UNL     1       2.355  -6.950  -2.096  0.00  0.00    -0.010 C 
ATOM     13  H   UNL     1       1.822 -10.221  -1.769  0.00  0.00    -0.086 HD
ATOM     14  H   UNL     1       2.350  -9.373  -3.078  0.00  0.00    -0.086 HD
ENDROOT
BRANCH   1  19
ATOM     15  C   UNL     1      -0.149   1.604  -0.112  0.00  0.00    +0.044 C 
ATOM     16  C   UNL     1      -0.072   0.100  -0.086  0.00  0.00    -0.050 A 
ATOM     17  C   UNL     1      -0.974  -0.650  -0.821  0.00  0.00    +0.004 A 
ATOM     18  C   UNL     1      -0.908  -2.027  -0.801  0.00  0.00    +0.013 A 
ATOM     19  C   UNL     1       0.071  -2.666  -0.038  0.00  0.00    +0.040 A 
ATOM     20  C   UNL     1       0.978  -1.904   0.701  0.00  0.00    -0.038 A 
ATOM     21  C   UNL     1       0.904  -0.527   0.668  0.00  0.00    +0.007 A 
ATOM     22  C   UNL     1       2.038  -2.585   1.528  0.00  0.00    +0.044 C 
ENDBRANCH   1  19
BRANCH   5  23
ATOM     23  C   UNL     1       2.368  -4.735  -3.445  0.00  0.00    +0.219 C 
ATOM     24  O   UNL     1       2.787  -3.986  -2.587  0.00  0.00    -0.275 OA
ATOM     25  N   UNL     1       3.158  -5.083  -4.479  0.00  0.00    -0.308 N 
ATOM     26  H   UNL     1       2.823  -5.682  -5.165  0.00  0.00    +0.149 HD
BRANCH  25  27
ATOM     27  C   UNL     1       4.523  -4.558  -4.569  0.00  0.00    +0.100 C 
ATOM     28  C   UNL     1       5.463  -5.439  -3.745  0.00  0.00    +0.033 C 
BRANCH  27  29
ATOM     29  C   UNL     1       4.968  -4.557  -6.009  0.00  0.00    -0.025 A 
ATOM     30  C   UNL     1       4.644  -5.609  -6.852  0.00  0.00    +0.025 A 
ATOM     31  C   UNL     1       5.070  -5.574  -8.166  0.00  0.00    +0.111 A 
ATOM     32  N   UNL     1       5.775  -4.557  -8.620  0.00  0.00    -0.263 NA
ATOM     33  C   UNL     1       6.101  -3.539  -7.847  0.00  0.00    +0.111 A 
ATOM     34  C   UNL     1       5.705  -3.502  -6.523  0.00  0.00    +0.025 A 
ENDBRANCH  27  29
ENDBRANCH  25  27
ENDBRANCH   5  23
TORSDOF 4
