REMARK  Name = ZINC09747637
REMARK  8 active torsions:
REMARK  status: ('A' for Active; 'I' for Inactive)
REMARK    1  A    between atoms: C_1  and  C_2
REMARK    2  A    between atoms: C_2  and  C_3
REMARK    3  A    between atoms: C_2  and  C_4
REMARK    4  A    between atoms: C_4  and  N_5
REMARK    5  A    between atoms: C_6  and  C_17
REMARK    6  A    between atoms: C_21  and  O_24
REMARK    7  A    between atoms: C_22  and  O_23
REMARK    8  A    between atoms: O_24  and  C_25
REMARK                            x       y       z     vdW  Elec       q    Type
REMARK                         _______ _______ _______ _____ _____    ______ ____
ROOT
ATOM      1  N   UNL     1       2.210   5.558  -0.566  0.00  0.00    -0.275 N 
ATOM      2  C   UNL     1       2.446   4.231   0.001  0.00  0.00    +0.196 C 
ATOM      3  N   UNL     1       3.442   3.508  -0.799  0.00  0.00    -0.321 N 
ATOM      4  C   UNL     1       3.341   3.545  -2.182  0.00  0.00    +0.041 A 
ATOM      5  C   UNL     1       3.776   2.500  -2.979  0.00  0.00    +0.024 A 
ATOM      6  C   UNL     1       3.642   2.586  -4.351  0.00  0.00    +0.002 A 
ATOM      7  C   UNL     1       3.075   3.708  -4.936  0.00  0.00    +0.001 A 
ATOM      8  C   UNL     1       2.638   4.758  -4.156  0.00  0.00    +0.015 A 
ATOM      9  C   UNL     1       2.768   4.686  -2.772  0.00  0.00    +0.058 A 
ATOM     10  C   UNL     1       2.322   5.782  -1.892  0.00  0.00    +0.250 C 
ATOM     11  O   UNL     1       2.057   6.874  -2.356  0.00  0.00    -0.270 OA
ATOM     12  H   UNL     1       4.158   3.013  -0.371  0.00  0.00    +0.148 HD
ENDROOT
BRANCH   2  13
ATOM     13  C   UNL     1       1.155   3.455   0.009  0.00  0.00    +0.036 A 
ATOM     14  C   UNL     1      -0.055   4.125   0.024  0.00  0.00    +0.011 A 
ATOM     15  C   UNL     1      -1.241   3.416   0.031  0.00  0.00    +0.004 A 
ATOM     16  C   UNL     1      -1.224   2.034   0.019  0.00  0.00    +0.049 A 
ATOM     17  C   UNL     1      -0.016   1.356   0.009  0.00  0.00    +0.162 A 
ATOM     18  C   UNL     1       1.179   2.070   0.002  0.00  0.00    +0.165 A 
BRANCH  18  19
ATOM     19  O   UNL     1       2.367   1.409  -0.012  0.00  0.00    -0.503 OA
ATOM     20  H   UNL     1       2.703   1.222  -0.899  0.00  0.00    +0.292 HD
ENDBRANCH  18  19
BRANCH  17  21
ATOM     21  O   UNL     1       0.002  -0.004   0.002  0.00  0.00    -0.491 OA
ATOM     22  C   UNL     1      -1.262  -0.670   0.011  0.00  0.00    +0.277 C 
ENDBRANCH  17  21
ENDBRANCH   2  13
BRANCH   1  23
ATOM     23  C   UNL     1       1.846   6.665   0.322  0.00  0.00    +0.113 C 
BRANCH  23  25
ATOM     24  C   UNL     1       2.731   8.602   1.628  0.00  0.00    +0.009 C 
ATOM     25  C   UNL     1       3.115   7.372   0.803  0.00  0.00    +0.000 C 
ATOM     26  C   UNL     1       3.936   6.414   1.667  0.00  0.00    +0.009 C 
ENDBRANCH  23  25
ENDBRANCH   1  23
TORSDOF 5
