REMARK  Name = ZINC67514611
REMARK  5 active torsions:
REMARK  status: ('A' for Active; 'I' for Inactive)
REMARK    1  A    between atoms: C_4  and  C_7
REMARK    2  A    between atoms: C_10  and  N_12
REMARK    3  A    between atoms: C_13  and  C_15
REMARK    4  A    between atoms: N_17  and  C_24
REMARK    5  A    between atoms: C_18  and  C_21
REMARK                            x       y       z     vdW  Elec       q    Type
REMARK                         _______ _______ _______ _____ _____    ______ ____
ROOT
ATOM      1  C   UNL     1       2.334  -2.266   4.469  0.00  0.00    +0.123 C 
ATOM      2  N   UNL     1       1.068  -2.043   4.312  0.00  0.00    -0.178 NA
ATOM      3  N   UNL     1       0.313  -2.229   5.469  0.00  0.00    -0.212 N 
ATOM      4  C   UNL     1       1.209  -2.638   6.562  0.00  0.00    +0.189 C 
ATOM      5  C   UNL     1       2.600  -2.676   5.899  0.00  0.00    +0.096 C 
ENDROOT
BRANCH   3   6
ATOM      6  C   UNL     1      -1.069  -2.055   5.573  0.00  0.00    +0.053 A 
ATOM      7  C   UNL     1      -1.707  -2.267   6.788  0.00  0.00    +0.028 A 
ATOM      8  C   UNL     1      -3.073  -2.094   6.889  0.00  0.00    +0.040 A 
ATOM      9  C   UNL     1      -3.807  -1.711   5.779  0.00  0.00    +0.124 A 
ATOM     10  C   UNL     1      -3.173  -1.499   4.566  0.00  0.00    +0.040 A 
ATOM     11  C   UNL     1      -1.807  -1.665   4.462  0.00  0.00    +0.028 A 
ATOM     12  F   UNL     1      -5.144  -1.543   5.879  0.00  0.00    -0.205 F 
ENDBRANCH   3   6
BRANCH   4  13
ATOM     13  C   UNL     1       1.173  -1.628   7.681  0.00  0.00    +0.233 C 
ATOM     14  O   UNL     1       0.755  -0.509   7.475  0.00  0.00    -0.274 OA
ATOM     15  N   UNL     1       1.607  -1.970   8.910  0.00  0.00    -0.328 N 
ATOM     16  H   UNL     1       1.942  -2.865   9.075  0.00  0.00    +0.145 HD
ATOM     17  H   UNL     1       1.585  -1.320   9.630  0.00  0.00    +0.145 HD
ENDBRANCH   4  13
BRANCH   1  19
ATOM     18  N   UNL     1       2.992  -1.772   2.177  0.00  0.00    -0.307 N 
ATOM     19  C   UNL     1       3.348  -2.147   3.422  0.00  0.00    +0.260 C 
ATOM     20  O   UNL     1       4.515  -2.386   3.675  0.00  0.00    -0.269 OA
ATOM     21  H   UNL     1       2.062  -1.581   1.976  0.00  0.00    +0.149 HD
BRANCH  18  24
ATOM     22  C   UNL     1       3.711  -0.707  -0.038  0.00  0.00    +0.041 C 
ATOM     23  C   UNL     1       3.671  -2.222  -0.251  0.00  0.00    +0.033 C 
ATOM     24  C   UNL     1       4.008  -1.652   1.129  0.00  0.00    +0.081 C 
BRANCH  22  28
ATOM     25  C   UNL     1      -0.017   1.378   0.010  0.00  0.00    +0.000 A 
ATOM     26  C   UNL     1       1.171   2.086   0.002  0.00  0.00    +0.000 A 
ATOM     27  C   UNL     1       2.377   1.411  -0.013  0.00  0.00    +0.004 A 
ATOM     28  C   UNL     1       2.396   0.029  -0.020  0.00  0.00    -0.042 A 
ATOM     29  C   UNL     1       1.208  -0.679  -0.012  0.00  0.00    +0.004 A 
ATOM     30  C   UNL     1       0.002  -0.004   0.002  0.00  0.00    +0.000 A 
ENDBRANCH  22  28
ENDBRANCH  18  24
ENDBRANCH   1  19
TORSDOF 5
