REMARK  Name = ZINC02421270
REMARK  3 active torsions:
REMARK  status: ('A' for Active; 'I' for Inactive)
REMARK    1  A    between atoms: C_1  and  C_2
REMARK    2  A    between atoms: N_20  and  C_23
REMARK    3  A    between atoms: C_28  and  C_29
REMARK                            x       y       z     vdW  Elec       q    Type
REMARK                         _______ _______ _______ _____ _____    ______ ____
ROOT
ATOM      1  C   UNL     1       2.477   9.115  -4.836  0.00  0.00    +0.044 C 
ATOM      2  C   UNL     1       2.926   7.920  -4.036  0.00  0.00    -0.050 A 
ATOM      3  C   UNL     1       4.273   7.629  -3.921  0.00  0.00    +0.005 A 
ATOM      4  C   UNL     1       4.690   6.537  -3.189  0.00  0.00    +0.024 A 
ATOM      5  C   UNL     1       3.756   5.717  -2.560  0.00  0.00    +0.036 A 
ATOM      6  C   UNL     1       2.403   6.019  -2.683  0.00  0.00    -0.027 A 
ATOM      7  C   UNL     1       1.991   7.111  -3.415  0.00  0.00    +0.008 A 
ATOM      8  C   UNL     1       1.673   4.962  -1.903  0.00  0.00    +0.053 C 
ATOM      9  C   UNL     1       0.831   5.576  -0.778  0.00  0.00    +0.089 C 
ATOM     10  C   UNL     1      -0.616   5.639  -1.338  0.00  0.00    +0.074 C 
ATOM     11  C   UNL     1      -0.506   5.039  -2.768  0.00  0.00    -0.054 C 
ATOM     12  C   UNL     1       0.342   2.950  -2.082  0.00  0.00    -0.076 C 
ATOM     13  C   UNL     1      -1.095   2.667  -2.563  0.00  0.00    -0.020 C 
ATOM     14  C   UNL     1      -1.653   4.038  -2.993  0.00  0.00    -0.016 C 
ATOM     15  C   UNL     1      -1.376   4.680  -0.450  0.00  0.00    +0.228 C 
ATOM     16  O   UNL     1      -2.556   4.420  -0.548  0.00  0.00    -0.275 OA
ATOM     17  N   UNL     1      -0.543   4.163   0.461  0.00  0.00    -0.209 N 
ATOM     18  C   UNL     1       0.719   4.596   0.368  0.00  0.00    +0.229 C 
ATOM     19  O   UNL     1       1.632   4.254   1.090  0.00  0.00    -0.275 OA
ATOM     20  C   UNL     1       2.752   4.069  -1.353  0.00  0.00    +0.212 C 
ATOM     21  O   UNL     1       2.595   3.085  -0.660  0.00  0.00    -0.277 OA
ATOM     22  N   UNL     1       3.926   4.573  -1.777  0.00  0.00    -0.286 N 
ATOM     23  H   UNL     1       4.790   4.187  -1.564  0.00  0.00    +0.155 HD
ATOM     24  N   UNL     1       0.695   4.236  -2.719  0.00  0.00    +0.395 N 
ATOM     25  H   UNL     1       1.068   4.075  -3.662  0.00  0.00    -0.079 HD
ENDROOT
BRANCH  17  26
ATOM     26  C   UNL     1      -0.959   3.240   1.431  0.00  0.00    +0.056 A 
ATOM     27  C   UNL     1      -0.894   1.879   1.168  0.00  0.00    +0.024 A 
ATOM     28  C   UNL     1      -1.304   0.972   2.126  0.00  0.00    +0.002 A 
ATOM     29  C   UNL     1      -1.780   1.419   3.345  0.00  0.00    +0.001 A 
ATOM     30  C   UNL     1      -1.840   2.774   3.612  0.00  0.00    +0.014 A 
ATOM     31  C   UNL     1      -1.437   3.686   2.656  0.00  0.00    +0.077 A 
BRANCH  31  32
ATOM     32  C   UNL     1      -1.509   5.163   2.945  0.00  0.00    +0.419 C 
ATOM     33  F   UNL     1      -2.008   5.362   4.237  0.00  0.00    -0.166 F 
ATOM     34  F   UNL     1      -2.357   5.779   2.018  0.00  0.00    -0.166 F 
ATOM     35  F   UNL     1      -0.229   5.721   2.849  0.00  0.00    -0.166 F 
ENDBRANCH  31  32
ENDBRANCH  17  26
TORSDOF 2
