REMARK  Name = ZINC62527020
REMARK  11 active torsions:
REMARK  status: ('A' for Active; 'I' for Inactive)
REMARK    1  A    between atoms: C_1  and  C_2
REMARK    2  A    between atoms: C_2  and  C_3
REMARK    3  A    between atoms: C_3  and  C_4
REMARK    4  A    between atoms: C_3  and  N_5
REMARK    5  A    between atoms: C_6  and  C_8
REMARK    6  A    between atoms: C_8  and  C_9
REMARK    7  A    between atoms: C_8  and  N_10
REMARK    8  A    between atoms: N_13  and  C_14
REMARK    9  A    between atoms: C_14  and  C_15
REMARK   10  A    between atoms: C_15  and  C_16
REMARK   11  A    between atoms: C_15  and  N_21
REMARK                            x       y       z     vdW  Elec       q    Type
REMARK                         _______ _______ _______ _____ _____    ______ ____
ROOT
ATOM      1  N   UNL     1       4.856   0.493  -3.645  0.00  0.00    -0.288 N 
ATOM      2  C   UNL     1       5.977   1.198  -3.894  0.00  0.00    +0.300 C 
ATOM      3  O   UNL     1       6.621   1.663  -2.973  0.00  0.00    -0.253 OA
ATOM      4  N   UNL     1       6.385   1.389  -5.164  0.00  0.00    -0.301 N 
ATOM      5  H   UNL     1       4.343   0.122  -4.380  0.00  0.00    +0.151 HD
ATOM      6  H   UNL     1       5.872   1.019  -5.899  0.00  0.00    +0.150 HD
ENDROOT
BRANCH   1   7
ATOM      7  C   UNL     1       4.413   0.286  -2.264  0.00  0.00    +0.157 C 
ATOM      8  C   UNL     1       5.133  -0.929  -1.674  0.00  0.00    +0.038 C 
BRANCH   7  10
ATOM      9  N   UNL     1       2.293  -0.171  -1.074  0.00  0.00    -0.311 N 
ATOM     10  C   UNL     1       2.925   0.046  -2.244  0.00  0.00    +0.233 C 
ATOM     11  O   UNL     1       2.297   0.048  -3.282  0.00  0.00    -0.274 OA
ATOM     12  H   UNL     1       2.796  -0.172  -0.244  0.00  0.00    +0.149 HD
BRANCH   9  13
ATOM     13  C   UNL     1       0.847  -0.403  -1.055  0.00  0.00    +0.070 C 
ATOM     14  C   UNL     1       0.565  -1.885  -1.313  0.00  0.00    +0.028 C 
BRANCH  13  16
ATOM     15  C   UNL     1       0.455   1.499   0.517  0.00  0.00    +0.005 C 
ATOM     16  C   UNL     1       0.285  -0.008   0.312  0.00  0.00    +0.018 C 
ENDBRANCH  13  16
ENDBRANCH   9  13
ENDBRANCH   7  10
ENDBRANCH   1   7
BRANCH   4  17
ATOM     17  C   UNL     1       7.603   2.156  -5.435  0.00  0.00    +0.095 C 
BRANCH  17  18
ATOM     18  C   UNL     1       7.912   2.111  -6.933  0.00  0.00    -0.013 C 
BRANCH  18  19
ATOM     19  N   UNL     1       9.056   2.985  -7.224  0.00  0.00    +0.386 N 
ATOM     20  C   UNL     1       9.356   2.970  -8.679  0.00  0.00    -0.078 C 
ATOM     21  C   UNL     1      10.139   4.289  -8.894  0.00  0.00    -0.020 C 
ATOM     22  C   UNL     1       9.421   5.275  -7.944  0.00  0.00    -0.020 C 
ATOM     23  C   UNL     1       8.722   4.388  -6.896  0.00  0.00    -0.078 C 
ATOM     24  H   UNL     1       9.864   2.688  -6.698  0.00  0.00    -0.081 HD
ENDBRANCH  18  19
BRANCH  18  25
ATOM     25  C   UNL     1       8.244   0.698  -7.336  0.00  0.00    -0.022 A 
ATOM     26  C   UNL     1       7.457  -0.225  -7.942  0.00  0.00    +0.009 A 
ATOM     27  C   UNL     1       7.981  -1.474  -8.220  0.00  0.00    +0.008 A 
ATOM     28  C   UNL     1       9.265  -1.739  -7.878  0.00  0.00    +0.045 A 
ATOM     29  S   UNL     1       9.779  -0.194  -7.145  0.00  0.00    -0.103 S 
ENDBRANCH  18  25
ENDBRANCH  17  18
ENDBRANCH   4  17
TORSDOF 8
