REMARK  Name = ZINC11852564
REMARK  15 active torsions:
REMARK  status: ('A' for Active; 'I' for Inactive)
REMARK    1  A    between atoms: C_1  and  C_2
REMARK    2  A    between atoms: C_6  and  C_38
REMARK    3  A    between atoms: C_8  and  O_11
REMARK    4  A    between atoms: O_11  and  P_12
REMARK    5  A    between atoms: P_12  and  C_14
REMARK    6  A    between atoms: P_12  and  O_24
REMARK    7  A    between atoms: C_14  and  C_16
REMARK    8  A    between atoms: C_14  and  O_23
REMARK    9  A    between atoms: O_24  and  C_25
REMARK   10  A    between atoms: C_28  and  C_37
REMARK   11  A    between atoms: C_32  and  C_34
REMARK   12  A    between atoms: C_34  and  C_35
REMARK   13  A    between atoms: C_34  and  C_36
REMARK   14  A    between atoms: C_38  and  C_39
REMARK   15  A    between atoms: C_38  and  C_40
REMARK                            x       y       z     vdW  Elec       q    Type
REMARK                         _______ _______ _______ _____ _____    ______ ____
ROOT
ATOM      1  P   UNL     1      -0.092   1.579   0.009  0.00  0.00    +0.366 P 
ATOM      2  O   UNL     1      -0.314   2.807   0.806  0.00  0.00    -0.255 OA
ENDROOT
BRANCH   1   3
ATOM      3  O   UNL     1       0.825   1.928  -1.268  0.00  0.00    -0.302 OA
BRANCH   3   9
ATOM      4  C   UNL     1       5.699   1.733  -1.871  0.00  0.00    +0.007 C 
ATOM      5  C   UNL     1       4.513   2.614  -1.473  0.00  0.00    -0.012 C 
ATOM      6  C   UNL     1       4.435   3.818  -2.414  0.00  0.00    +0.004 C 
ATOM      7  C   UNL     1       3.249   4.699  -2.015  0.00  0.00    +0.006 C 
ATOM      8  C   UNL     1       1.955   3.889  -2.115  0.00  0.00    +0.021 C 
ATOM      9  C   UNL     1       2.034   2.685  -1.175  0.00  0.00    +0.132 C 
ATOM     10  C   UNL     1       3.220   1.804  -1.573  0.00  0.00    +0.035 C 
BRANCH   8  11
ATOM     11  C   UNL     1       0.769   4.770  -1.717  0.00  0.00    -0.012 C 
ATOM     12  C   UNL     1       1.025   5.376  -0.336  0.00  0.00    +0.007 C 
ATOM     13  C   UNL     1       0.601   5.893  -2.743  0.00  0.00    +0.007 C 
ENDBRANCH   8  11
ENDBRANCH   3   9
ENDBRANCH   1   3
BRANCH   1  14
ATOM     14  C   UNL     1       0.748   0.330   1.037  0.00  0.00    +0.261 C 
BRANCH  14  15
ATOM     15  C   UNL     1      -0.039   0.112   2.304  0.00  0.00    +0.028 A 
ATOM     16  C   UNL     1       0.399   0.663   3.493  0.00  0.00    +0.009 A 
ATOM     17  C   UNL     1      -0.322   0.464   4.655  0.00  0.00    +0.001 A 
ATOM     18  C   UNL     1      -1.483  -0.288   4.630  0.00  0.00    +0.003 A 
ATOM     19  C   UNL     1      -1.922  -0.840   3.442  0.00  0.00    +0.039 A 
ATOM     20  C   UNL     1      -1.203  -0.637   2.276  0.00  0.00    +0.130 A 
ATOM     21  F   UNL     1      -1.635  -1.172   1.113  0.00  0.00    -0.205 F 
ENDBRANCH  14  15
BRANCH  14  22
ATOM     22  O   UNL     1       2.061   0.787   1.365  0.00  0.00    -0.375 OA
ATOM     23  H   UNL     1       2.077   1.619   1.857  0.00  0.00    +0.211 HD
ENDBRANCH  14  22
ENDBRANCH   1  14
BRANCH   1  24
ATOM     24  O   UNL     1      -1.508   1.000  -0.490  0.00  0.00    -0.302 OA
BRANCH  24  25
ATOM     25  C   UNL     1      -2.434   1.766  -1.264  0.00  0.00    +0.132 C 
ATOM     26  C   UNL     1      -3.702   2.014  -0.445  0.00  0.00    +0.035 C 
ATOM     27  C   UNL     1      -4.337   0.673  -0.070  0.00  0.00    -0.012 C 
ATOM     28  C   UNL     1      -4.695  -0.095  -1.345  0.00  0.00    +0.004 C 
ATOM     29  C   UNL     1      -3.427  -0.342  -2.164  0.00  0.00    +0.006 C 
ATOM     30  C   UNL     1      -2.792   0.998  -2.538  0.00  0.00    +0.021 C 
ATOM     31  C   UNL     1      -5.605   0.921   0.749  0.00  0.00    +0.007 C 
BRANCH  30  32
ATOM     32  C   UNL     1      -1.524   0.751  -3.358  0.00  0.00    -0.012 C 
ATOM     33  C   UNL     1      -1.859  -0.128  -4.564  0.00  0.00    +0.007 C 
ATOM     34  C   UNL     1      -0.960   2.088  -3.842  0.00  0.00    +0.007 C 
ENDBRANCH  30  32
ENDBRANCH  24  25
ENDBRANCH   1  24
TORSDOF 9
