REMARK  Name = ZINC49468529
REMARK  5 active torsions:
REMARK  status: ('A' for Active; 'I' for Inactive)
REMARK    1  A    between atoms: C_1  and  C_2
REMARK    2  A    between atoms: C_2  and  C_3
REMARK    3  A    between atoms: C_2  and  N_4
REMARK    4  A    between atoms: N_7  and  N_8
REMARK    5  A    between atoms: C_9  and  C_11
REMARK                            x       y       z     vdW  Elec       q    Type
REMARK                         _______ _______ _______ _____ _____    ______ ____
ROOT
ATOM      1  N   UNL     1       1.921  -1.359  -3.464  0.00  0.00    -0.228 N 
ATOM      2  C   UNL     1       2.552  -1.793  -4.573  0.00  0.00    +0.276 C 
ATOM      3  O   UNL     1       3.765  -1.893  -4.584  0.00  0.00    -0.267 OA
ATOM      4  H   UNL     1       0.955  -1.279  -3.456  0.00  0.00    +0.173 HD
ENDROOT
BRANCH   2   5
ATOM      5  C   UNL     1       1.777  -2.146  -5.767  0.00  0.00    +0.105 A 
ATOM      6  C   UNL     1       2.287  -2.607  -6.963  0.00  0.00    +0.052 A 
ATOM      7  C   UNL     1       1.200  -2.817  -7.819  0.00  0.00    +0.059 A 
ATOM      8  C   UNL     1       0.071  -2.486  -7.147  0.00  0.00    +0.103 A 
ATOM      9  N   UNL     1       0.408  -2.083  -5.896  0.00  0.00    -0.356 N 
ATOM     10  H   UNL     1      -0.212  -1.795  -5.208  0.00  0.00    +0.166 HD
ATOM     11 CL   UNL     1       1.284  -3.396  -9.454  0.00  0.00    -0.082 Cl
ENDBRANCH   2   5
BRANCH   1  15
ATOM     12  N   UNL     1       0.688  -0.476  -1.203  0.00  0.00    -0.296 N 
ATOM     13  C   UNL     1       2.031  -0.587  -1.215  0.00  0.00    +0.316 C 
ATOM     14  O   UNL     1       2.674  -0.294  -0.225  0.00  0.00    -0.251 OA
ATOM     15  N   UNL     1       2.662  -1.022  -2.324  0.00  0.00    -0.218 N 
ATOM     16  H   UNL     1       0.175  -0.710  -1.993  0.00  0.00    +0.151 HD
ATOM     17  H   UNL     1       3.628  -1.101  -2.332  0.00  0.00    +0.174 HD
BRANCH  12  19
ATOM     18  C   UNL     1      -0.019   1.526   0.010  0.00  0.00    +0.027 C 
ATOM     19  C   UNL     1       0.002  -0.004   0.002  0.00  0.00    +0.068 C 
ATOM     20  C   UNL     1      -1.433  -0.534   0.013  0.00  0.00    +0.027 C 
ENDBRANCH  12  19
ENDBRANCH   1  15
TORSDOF 3
