REMARK  Name = ZINC09138284
REMARK  8 active torsions:
REMARK  status: ('A' for Active; 'I' for Inactive)
REMARK    1  A    between atoms: C_1  and  N_2
REMARK    2  A    between atoms: C_10  and  C_12
REMARK    3  A    between atoms: C_12  and  C_14
REMARK    4  A    between atoms: C_12  and  N_65
REMARK    5  A    between atoms: C_14  and  N_15
REMARK    6  A    between atoms: C_16  and  C_18
REMARK    7  A    between atoms: N_20  and  C_21
REMARK    8  A    between atoms: C_25  and  N_27
REMARK                            x       y       z     vdW  Elec       q    Type
REMARK                         _______ _______ _______ _____ _____    ______ ____
ROOT
ATOM      1  C   UNL     1      -2.658   1.115  -0.050  0.00  0.00    -0.020 C 
ENDROOT
BRANCH   1  11
ATOM      2  C   UNL     1       3.203   3.452  -0.385  0.00  0.00    +0.129 C 
ATOM      3  N   UNL     1       2.195   4.000   0.532  0.00  0.00    -0.333 N 
ATOM      4  C   UNL     1       2.080   5.452   0.379  0.00  0.00    +0.105 C 
ATOM      5  C   UNL     1       0.998   5.963   1.339  0.00  0.00    +0.024 C 
ATOM      6  C   UNL     1      -0.353   5.440   0.847  0.00  0.00    +0.038 C 
ATOM      7  C   UNL     1      -0.246   3.968   0.538  0.00  0.00    -0.026 A 
ATOM      8  C   UNL     1       0.977   3.337   0.390  0.00  0.00    +0.033 A 
ATOM      9  C   UNL     1       1.012   1.973   0.094  0.00  0.00    +0.023 A 
ATOM     10  C   UNL     1      -0.159   1.258  -0.044  0.00  0.00    +0.004 A 
ATOM     11  C   UNL     1      -1.377   1.894   0.104  0.00  0.00    -0.059 A 
ATOM     12  C   UNL     1      -1.419   3.242   0.399  0.00  0.00    +0.007 A 
ENDBRANCH   1  11
BRANCH   1  18
ATOM     13  C   UNL     1      -1.824   0.157   2.010  0.00  0.00    -0.078 C 
ATOM     14  C   UNL     1      -1.911  -1.066   2.927  0.00  0.00    -0.019 C 
ATOM     15  C   UNL     1      -1.367  -2.291   2.188  0.00  0.00    -0.004 C 
ATOM     16  C   UNL     1      -2.166  -2.495   0.897  0.00  0.00    -0.019 C 
ATOM     17  C   UNL     1      -2.071  -1.232   0.040  0.00  0.00    -0.078 C 
ATOM     18  N   UNL     1      -2.633  -0.094   0.799  0.00  0.00    +0.385 N 
ATOM     19  H   UNL     1      -3.593  -0.323   1.081  0.00  0.00    -0.081 HD
ENDBRANCH   1  18
BRANCH   1  20
ATOM     20  C   UNL     1      -2.834   0.707  -1.514  0.00  0.00    +0.094 C 
BRANCH  20  21
ATOM     21  N   UNL     1      -4.026  -0.135  -1.647  0.00  0.00    -0.309 N 
ATOM     22  C   UNL     1      -4.435  -0.535  -2.867  0.00  0.00    +0.299 C 
ATOM     23  O   UNL     1      -3.816  -0.199  -3.855  0.00  0.00    -0.265 OA
ATOM     24  H   UNL     1      -4.520  -0.403  -0.857  0.00  0.00    +0.149 HD
BRANCH  22  25
ATOM     25  C   UNL     1      -5.650  -1.393  -3.002  0.00  0.00    +0.303 C 
ATOM     26  O   UNL     1      -6.269  -1.729  -2.014  0.00  0.00    -0.265 OA
ATOM     27  N   UNL     1      -6.059  -1.794  -4.222  0.00  0.00    -0.278 N 
ATOM     28  H   UNL     1      -5.516  -1.604  -5.003  0.00  0.00    +0.155 HD
BRANCH  27  29
ATOM     29  C   UNL     1      -7.267  -2.484  -4.363  0.00  0.00    +0.036 A 
ATOM     30  C   UNL     1      -7.407  -3.447  -5.354  0.00  0.00    +0.026 A 
ATOM     31  C   UNL     1      -8.599  -4.131  -5.487  0.00  0.00    +0.042 A 
ATOM     32  C   UNL     1      -9.659  -3.849  -4.641  0.00  0.00    +0.154 A 
ATOM     33  C   UNL     1      -9.523  -2.886  -3.656  0.00  0.00    +0.163 A 
ATOM     34  C   UNL     1      -8.331  -2.203  -3.515  0.00  0.00    +0.059 A 
ATOM     35  F   UNL     1     -10.826  -4.516  -4.777  0.00  0.00    -0.203 F 
BRANCH  33  36
ATOM     36  N   UNL     1     -10.657  -2.587  -2.753  0.00  0.00    +0.059 N 
ATOM     37  O   UNL     1     -10.539  -1.740  -1.885  0.00  0.00    -0.126 OA
ATOM     38  O   UNL     1     -11.709  -3.189  -2.876  0.00  0.00    -0.126 OA
ENDBRANCH  33  36
ENDBRANCH  27  29
ENDBRANCH  22  25
ENDBRANCH  20  21
ENDBRANCH   1  20
TORSDOF 7
