REMARK  Name = ZINC44965620
REMARK  9 active torsions:
REMARK  status: ('A' for Active; 'I' for Inactive)
REMARK    1  A    between atoms: C_1  and  C_2
REMARK    2  A    between atoms: C_2  and  O_3
REMARK    3  A    between atoms: O_3  and  C_4
REMARK    4  A    between atoms: C_8  and  C_11
REMARK    5  A    between atoms: C_9  and  O_10
REMARK    6  A    between atoms: N_12  and  N_13
REMARK    7  A    between atoms: C_14  and  C_16
REMARK    8  A    between atoms: C_16  and  N_17
REMARK    9  A    between atoms: N_17  and  C_18
REMARK                            x       y       z     vdW  Elec       q    Type
REMARK                         _______ _______ _______ _____ _____    ______ ____
ROOT
ATOM      1  N   UNL     1       3.016  -6.141   4.968  0.00  0.00    -0.206 N 
ATOM      2  C   UNL     1       3.119  -7.478   5.105  0.00  0.00    +0.249 C 
ATOM      3  O   UNL     1       2.641  -8.212   4.265  0.00  0.00    -0.272 OA
ATOM      4  H   UNL     1       3.397  -5.555   5.640  0.00  0.00    +0.177 HD
ENDROOT
BRANCH   1   6
ATOM      5  C   UNL     1       2.258  -4.312   3.726  0.00  0.00    +0.143 C 
ATOM      6  N   UNL     1       2.357  -5.599   3.857  0.00  0.00    -0.188 NA
BRANCH   5  11
ATOM      7  C   UNL     1       0.802  -1.825   1.306  0.00  0.00    +0.164 A 
ATOM      8  C   UNL     1       0.260  -2.672   0.351  0.00  0.00    +0.071 A 
ATOM      9  C   UNL     1       0.366  -4.045   0.493  0.00  0.00    +0.064 A 
ATOM     10  C   UNL     1       1.014  -4.584   1.587  0.00  0.00    +0.072 A 
ATOM     11  C   UNL     1       1.566  -3.742   2.557  0.00  0.00    +0.059 A 
ATOM     12  C   UNL     1       1.462  -2.353   2.409  0.00  0.00    +0.169 A 
ATOM     13 CL   UNL     1       1.144  -6.307   1.758  0.00  0.00    -0.081 Cl
ATOM     14 CL   UNL     1      -0.318  -5.093  -0.710  0.00  0.00    -0.082 Cl
BRANCH  12  15
ATOM     15  O   UNL     1       2.000  -1.525   3.343  0.00  0.00    -0.503 OA
ATOM     16  H   UNL     1       1.395  -1.298   4.062  0.00  0.00    +0.292 HD
ENDBRANCH  12  15
BRANCH   7  17
ATOM     17  O   UNL     1       0.693  -0.477   1.160  0.00  0.00    -0.489 OA
BRANCH  17  19
ATOM     18  C   UNL     1      -0.019   1.526   0.010  0.00  0.00    +0.048 C 
ATOM     19  C   UNL     1       0.002  -0.004   0.002  0.00  0.00    +0.226 C 
ENDBRANCH  17  19
ENDBRANCH   7  17
ENDBRANCH   5  11
ENDBRANCH   1   6
BRANCH   2  20
ATOM     20  C   UNL     1       3.827  -8.062   6.300  0.00  0.00    +0.199 C 
BRANCH  20  21
ATOM     21  N   UNL     1       3.804  -9.524   6.216  0.00  0.00    -0.335 N 
ATOM     22  H   UNL     1       3.372  -9.960   5.465  0.00  0.00    +0.147 HD
BRANCH  21  23
ATOM     23  C   UNL     1       4.402 -10.290   7.218  0.00  0.00    +0.028 A 
ATOM     24  C   UNL     1       5.017  -9.654   8.303  0.00  0.00    +0.023 A 
ATOM     25  C   UNL     1       5.607 -10.375   9.293  0.00  0.00    +0.010 A 
ATOM     26  C   UNL     1       5.604 -11.780   9.234  0.00  0.00    -0.018 A 
ATOM     27  C   UNL     1       6.206 -12.551  10.243  0.00  0.00    +0.008 A 
ATOM     28  C   UNL     1       6.185 -13.909  10.157  0.00  0.00    +0.001 A 
ATOM     29  C   UNL     1       5.574 -14.550   9.081  0.00  0.00    +0.001 A 
ATOM     30  C   UNL     1       4.982 -13.837   8.085  0.00  0.00    +0.008 A 
ATOM     31  C   UNL     1       4.983 -12.432   8.140  0.00  0.00    -0.016 A 
ATOM     32  C   UNL     1       4.376 -11.665   7.133  0.00  0.00    +0.031 A 
ENDBRANCH  21  23
ENDBRANCH  20  21
ENDBRANCH   2  20
TORSDOF 8
