REMARK  Name = ZINC42144765
REMARK  3 active torsions:
REMARK  status: ('A' for Active; 'I' for Inactive)
REMARK    1  A    between atoms: C_3  and  C_11
REMARK    2  A    between atoms: C_17  and  C_19
REMARK    3  A    between atoms: C_19  and  C_20
REMARK                            x       y       z     vdW  Elec       q    Type
REMARK                         _______ _______ _______ _____ _____    ______ ____
ROOT
ATOM      1  C   UNL     1       0.009   1.783   0.209  0.00  0.00    +0.020 C 
ATOM      2  C   UNL     1       1.437   2.330   0.149  0.00  0.00    +0.016 C 
ATOM      3  C   UNL     1       2.151   1.765  -1.081  0.00  0.00    +0.093 C 
ATOM      4  C   UNL     1       2.223   0.239  -0.968  0.00  0.00    +0.122 C 
ATOM      5  N   UNL     1       0.865  -0.285  -0.765  0.00  0.00    -0.285 N 
ATOM      6  C   UNL     1       0.057   0.257   0.336  0.00  0.00    +0.109 C 
ATOM      7  C   UNL     1       0.371  -1.243  -1.573  0.00  0.00    +0.300 C 
ATOM      8  O   UNL     1       1.013  -1.619  -2.534  0.00  0.00    -0.253 OA
ATOM      9  N   UNL     1      -0.836  -1.786  -1.315  0.00  0.00    -0.313 N 
ATOM     10  H   UNL     1      -1.380  -1.437  -0.591  0.00  0.00    +0.146 HD
ATOM     11  H   UNL     1      -1.161  -2.525  -1.853  0.00  0.00    +0.146 HD
ENDROOT
BRANCH   3  12
ATOM     12  C   UNL     1       3.546   2.330  -1.157  0.00  0.00    +0.220 C 
ATOM     13  O   UNL     1       3.932   3.109  -0.311  0.00  0.00    -0.275 OA
ATOM     14  N   UNL     1       4.365   1.971  -2.166  0.00  0.00    -0.298 N 
ATOM     15  C   UNL     1       3.993   1.124  -3.314  0.00  0.00    +0.108 C 
ATOM     16  C   UNL     1       4.994   1.509  -4.432  0.00  0.00    +0.021 C 
ATOM     17  C   UNL     1       6.295   1.740  -3.619  0.00  0.00    +0.024 C 
ATOM     18  C   UNL     1       5.774   2.363  -2.306  0.00  0.00    +0.087 C 
BRANCH  18  19
ATOM     19  C   UNL     1       6.584   1.829  -1.123  0.00  0.00    +0.147 C 
BRANCH  19  20
ATOM     20  C   UNL     1       7.998   2.342  -1.209  0.00  0.00    +0.358 C 
ATOM     21  O   UNL     1       8.302   3.151  -2.070  0.00  0.00    -0.246 OA
ATOM     22  O   UNL     1       8.839   1.949  -0.419  0.00  0.00    -0.246 OA
ENDBRANCH  19  20
ENDBRANCH  18  19
ENDBRANCH   3  12
TORSDOF 3
