REMARK  Name = ZINC36267552
REMARK  5 active torsions:
REMARK  status: ('A' for Active; 'I' for Inactive)
REMARK    1  A    between atoms: C_1  and  C_2
REMARK    2  A    between atoms: C_6  and  N_14
REMARK    3  A    between atoms: C_7  and  N_11
REMARK    4  A    between atoms: N_14  and  C_15
REMARK    5  A    between atoms: C_18  and  N_20
REMARK                            x       y       z     vdW  Elec       q    Type
REMARK                         _______ _______ _______ _____ _____    ______ ____
ROOT
ATOM      1  C   UNL     1      -0.664   1.306  -1.565  0.00  0.00    +0.073 C 
ATOM      2  C   UNL     1      -0.569  -0.165  -1.252  0.00  0.00    +0.076 A 
ATOM      3  N   UNL     1      -1.544  -0.997  -1.027  0.00  0.00    -0.244 NA
ATOM      4  C   UNL     1      -1.327  -2.300  -0.755  0.00  0.00    +0.080 A 
ATOM      5  C   UNL     1      -2.251  -3.333  -0.489  0.00  0.00    +0.054 A 
ATOM      6  C   UNL     1      -1.812  -4.612  -0.232  0.00  0.00    +0.060 A 
ATOM      7  C   UNL     1      -0.453  -4.923  -0.228  0.00  0.00    +0.148 A 
ATOM      8  C   UNL     1       0.473  -3.931  -0.486  0.00  0.00    +0.051 A 
ATOM      9  C   UNL     1       0.041  -2.652  -0.743  0.00  0.00    +0.041 A 
ATOM     10  S   UNL     1       0.822  -1.104  -1.121  0.00  0.00    -0.072 S 
ENDROOT
BRANCH   7  11
ATOM     11  N   UNL     1      -0.005  -6.306   0.052  0.00  0.00    +0.058 N 
ATOM     12  O   UNL     1       1.175  -6.550   0.159  0.00  0.00    -0.126 OA
ATOM     13  O   UNL     1      -0.818  -7.192   0.173  0.00  0.00    -0.126 OA
ENDBRANCH   7  11
BRANCH   6  14
ATOM     14  N   UNL     1      -2.747  -5.620   0.029  0.00  0.00    -0.341 N 
ATOM     15  H   UNL     1      -2.455  -6.541   0.118  0.00  0.00    +0.146 HD
BRANCH  14  16
ATOM     16  C   UNL     1      -4.166  -5.283   0.170  0.00  0.00    +0.055 C 
ATOM     17  C   UNL     1      -5.170  -6.101  -0.644  0.00  0.00    +0.006 C 
ATOM     18  C   UNL     1      -5.067  -6.303   0.870  0.00  0.00    -0.053 C 
BRANCH  18  19
ATOM     19  N   UNL     1      -4.444  -7.543   1.349  0.00  0.00    +0.381 N 
ATOM     20  H   UNL     1      -3.723  -7.321   2.019  0.00  0.00    -0.090 HD
ATOM     21  H   UNL     1      -5.143  -8.124   1.787  0.00  0.00    -0.090 HD
ATOM     22  H   UNL     1      -4.037  -8.038   0.569  0.00  0.00    -0.090 HD
ENDBRANCH  18  19
ENDBRANCH  14  16
ENDBRANCH   6  14
TORSDOF 4
