REMARK  Name = ZINC66262890
REMARK  6 active torsions:
REMARK  status: ('A' for Active; 'I' for Inactive)
REMARK    1  A    between atoms: C_1  and  C_2
REMARK    2  A    between atoms: C_2  and  C_19
REMARK    3  A    between atoms: N_5  and  C_9
REMARK    4  A    between atoms: C_9  and  C_10
REMARK    5  A    between atoms: C_13  and  C_16
REMARK    6  A    between atoms: N_14  and  C_15
REMARK                            x       y       z     vdW  Elec       q    Type
REMARK                         _______ _______ _______ _____ _____    ______ ____
ROOT
ATOM      1  C   UNL     1      -0.019   1.526   0.010  0.00  0.00    +0.047 C 
ATOM      2  C   UNL     1       0.002  -0.004   0.002  0.00  0.00    +0.141 C 
ATOM      3  C   UNL     1      -1.404  -0.557   0.121  0.00  0.00    +0.252 C 
ATOM      4  O   UNL     1      -2.324  -0.392  -0.652  0.00  0.00    -0.272 OA
ATOM      5  N   UNL     1      -1.419  -1.272   1.263  0.00  0.00    -0.216 N 
ATOM      6  C   UNL     1      -0.231  -1.248   1.876  0.00  0.00    +0.310 C 
ATOM      7  O   UNL     1       0.001  -1.819   2.923  0.00  0.00    -0.252 OA
ATOM      8  N   UNL     1       0.679  -0.520   1.204  0.00  0.00    -0.281 N 
ATOM      9  H   UNL     1       1.602  -0.365   1.461  0.00  0.00    +0.152 HD
ENDROOT
BRANCH   2  10
ATOM     10  C   UNL     1       0.673  -0.517  -1.246  0.00  0.00    +0.023 A 
ATOM     11  C   UNL     1       1.983  -0.790  -1.459  0.00  0.00    +0.015 A 
ATOM     12  C   UNL     1       2.378  -1.257  -2.699  0.00  0.00    +0.028 A 
ATOM     13  C   UNL     1       1.441  -1.428  -3.666  0.00  0.00    +0.078 A 
ATOM     14  S   UNL     1      -0.052  -0.929  -2.824  0.00  0.00    -0.079 S 
ATOM     15 CL   UNL     1       1.642  -1.992  -5.295  0.00  0.00    -0.076 Cl
ENDBRANCH   2  10
BRANCH   5  16
ATOM     16  C   UNL     1      -2.593  -1.987   1.771  0.00  0.00    +0.194 C 
BRANCH  16  17
ATOM     17  C   UNL     1      -2.601  -3.391   1.225  0.00  0.00    +0.151 A 
ATOM     18  N   UNL     1      -3.158  -3.785   0.112  0.00  0.00    -0.133 NA
ATOM     19  N   UNL     1      -2.970  -5.048  -0.042  0.00  0.00    -0.134 NA
ATOM     20  C   UNL     1      -2.285  -5.517   0.965  0.00  0.00    +0.136 A 
ATOM     21  N   UNL     1      -2.027  -4.478   1.795  0.00  0.00    -0.316 N 
ATOM     22  C   UNL     1      -1.281  -4.521   3.056  0.00  0.00    +0.152 C 
BRANCH  20  23
ATOM     23  C   UNL     1      -1.855  -6.947   1.164  0.00  0.00    +0.057 C 
ATOM     24  C   UNL     1      -2.073  -7.919   0.003  0.00  0.00    +0.012 C 
ATOM     25  C   UNL     1      -2.953  -8.009   1.251  0.00  0.00    +0.012 C 
ENDBRANCH  20  23
ENDBRANCH  16  17
ENDBRANCH   5  16
TORSDOF 4
