REMARK  Name = ZINC40156476
REMARK  5 active torsions:
REMARK  status: ('A' for Active; 'I' for Inactive)
REMARK    1  A    between atoms: C_6  and  C_7
REMARK    2  A    between atoms: C_7  and  N_8
REMARK    3  A    between atoms: C_13  and  C_15
REMARK    4  A    between atoms: C_17  and  O_23
REMARK    5  A    between atoms: C_18  and  O_22
REMARK                            x       y       z     vdW  Elec       q    Type
REMARK                         _______ _______ _______ _____ _____    ______ ____
ROOT
ATOM      1  N   UNL     1      -1.853  -0.823  -1.232  0.00  0.00    +0.403 N 
ATOM      2  C   UNL     1      -0.797  -1.600  -1.924  0.00  0.00    +0.022 C 
ATOM      3  C   UNL     1      -1.260  -3.038  -1.840  0.00  0.00    +0.195 C 
ATOM      4  O   UNL     1      -0.567  -4.017  -2.023  0.00  0.00    -0.278 OA
ATOM      5  N   UNL     1      -2.571  -3.048  -1.526  0.00  0.00    -0.326 N 
ATOM      6  C   UNL     1      -3.057  -1.669  -1.395  0.00  0.00    +0.051 C 
ATOM      7  H   UNL     1      -3.111  -3.845  -1.407  0.00  0.00    +0.147 HD
ATOM      8  H   UNL     1      -1.985   0.075  -1.674  0.00  0.00    -0.077 HD
ENDROOT
BRANCH   6   9
ATOM      9  C   UNL     1      -3.810  -1.264  -2.636  0.00  0.00    -0.039 A 
ATOM     10  C   UNL     1      -3.242  -1.460  -3.882  0.00  0.00    +0.052 A 
ATOM     11  C   UNL     1      -3.933  -1.089  -5.024  0.00  0.00    +0.160 A 
ATOM     12  C   UNL     1      -5.198  -0.519  -4.915  0.00  0.00    +0.177 A 
ATOM     13  C   UNL     1      -5.761  -0.326  -3.664  0.00  0.00    +0.086 A 
ATOM     14  C   UNL     1      -5.068  -0.704  -2.527  0.00  0.00    +0.027 A 
ATOM     15 CL   UNL     1      -7.339   0.385  -3.522  0.00  0.00    -0.080 Cl
BRANCH  12  16
ATOM     16  O   UNL     1      -5.879  -0.152  -6.034  0.00  0.00    -0.502 OA
ATOM     17  H   UNL     1      -6.441  -0.850  -6.398  0.00  0.00    +0.292 HD
ENDBRANCH  12  16
BRANCH  11  18
ATOM     18  O   UNL     1      -3.375  -1.280  -6.250  0.00  0.00    -0.503 OA
ATOM     19  H   UNL     1      -3.579  -2.138  -6.645  0.00  0.00    +0.292 HD
ENDBRANCH  11  18
ENDBRANCH   6   9
BRANCH   1  20
ATOM     20  C   UNL     1      -1.526  -0.655   0.191  0.00  0.00    -0.039 C 
BRANCH  20  26
ATOM     21  C   UNL     1      -0.618   1.661   0.467  0.00  0.00    +0.003 A 
ATOM     22  C   UNL     1       0.437   2.544   0.596  0.00  0.00    +0.015 A 
ATOM     23  C   UNL     1       1.738   2.072   0.591  0.00  0.00    +0.018 A 
ATOM     24  C   UNL     1       1.981   0.717   0.456  0.00  0.00    +0.015 A 
ATOM     25  C   UNL     1       0.925  -0.165   0.326  0.00  0.00    +0.003 A 
ATOM     26  C   UNL     1      -0.375   0.307   0.332  0.00  0.00    -0.064 A 
ATOM     27 BR   UNL     1       3.182   3.280   0.768  0.00  0.00    -0.050 Br
ENDBRANCH  20  26
ENDBRANCH   1  20
TORSDOF 5
