REMARK  Name = ZINC33568211
REMARK  8 active torsions:
REMARK  status: ('A' for Active; 'I' for Inactive)
REMARK    1  A    between atoms: C_1  and  C_2
REMARK    2  A    between atoms: C_2  and  O_3
REMARK    3  A    between atoms: O_3  and  C_4
REMARK    4  A    between atoms: C_7  and  N_10
REMARK    5  A    between atoms: C_14  and  C_15
REMARK    6  A    between atoms: C_18  and  C_20
REMARK    7  A    between atoms: C_23  and  S_26
REMARK    8  A    between atoms: S_26  and  N_29
REMARK                            x       y       z     vdW  Elec       q    Type
REMARK                         _______ _______ _______ _____ _____    ______ ____
ROOT
ATOM      1  N   UNL     1       3.047  -5.214  -0.051  0.00  0.00    -0.223 N 
ATOM      2  C   UNL     1       3.820  -4.374  -0.717  0.00  0.00    +0.100 C 
ATOM      3  S   UNL     1       5.181  -4.933  -1.591  0.00  0.00    -0.033 S 
ATOM      4  C   UNL     1       3.490  -2.987  -0.682  0.00  0.00    +0.049 C 
ATOM      5  C   UNL     1       4.120  -1.929  -1.273  0.00  0.00    +0.064 C 
ATOM      6  S   UNL     1       2.024  -3.011   0.341  0.00  0.00    -0.028 S 
ATOM      7  C   UNL     1       1.969  -4.772   0.634  0.00  0.00    +0.288 C 
ATOM      8  O   UNL     1       1.165  -5.412   1.286  0.00  0.00    -0.262 OA
ENDROOT
BRANCH   1  12
ATOM      9  C   UNL     1       3.937  -9.289  -0.078  0.00  0.00    +0.121 A 
ATOM     10  C   UNL     1       4.472  -8.469   0.905  0.00  0.00    +0.047 A 
ATOM     11  C   UNL     1       4.178  -7.120   0.915  0.00  0.00    +0.027 A 
ATOM     12  C   UNL     1       3.347  -6.584  -0.060  0.00  0.00    +0.043 A 
ATOM     13  C   UNL     1       2.808  -7.406  -1.041  0.00  0.00    +0.027 A 
ATOM     14  C   UNL     1       3.107  -8.754  -1.052  0.00  0.00    +0.047 A 
BRANCH   9  15
ATOM     15  O   UNL     1       4.228 -10.617  -0.087  0.00  0.00    -0.492 OA
BRANCH  15  17
ATOM     16  C   UNL     1       4.081 -12.860  -0.975  0.00  0.00    +0.048 C 
ATOM     17  C   UNL     1       3.643 -11.402  -1.128  0.00  0.00    +0.225 C 
ENDBRANCH  15  17
ENDBRANCH   9  15
ENDBRANCH   1  12
BRANCH   5  18
ATOM     18  C   UNL     1       3.610  -0.623  -1.108  0.00  0.00    +0.130 A 
ATOM     19  C   UNL     1       4.146   0.533  -1.648  0.00  0.00    +0.050 A 
ATOM     20  C   UNL     1       3.328   1.588  -1.233  0.00  0.00    +0.050 A 
ATOM     21  C   UNL     1       2.335   1.049  -0.465  0.00  0.00    +0.136 A 
ATOM     22  O   UNL     1       2.518  -0.282  -0.392  0.00  0.00    -0.455 OA
BRANCH  21  23
ATOM     23  C   UNL     1       1.245   1.804   0.184  0.00  0.00    +0.017 A 
ATOM     24  C   UNL     1       0.286   1.135   0.948  0.00  0.00    +0.013 A 
ATOM     25  C   UNL     1      -0.733   1.846   1.547  0.00  0.00    +0.029 A 
ATOM     26  C   UNL     1      -0.799   3.221   1.402  0.00  0.00    +0.105 A 
ATOM     27  C   UNL     1       0.147   3.890   0.646  0.00  0.00    +0.029 A 
ATOM     28  C   UNL     1       1.168   3.191   0.037  0.00  0.00    +0.013 A 
BRANCH  26  29
ATOM     29  S   UNL     1      -2.100   4.122   2.176  0.00  0.00    +0.056 S 
ATOM     30  O   UNL     1      -2.543   3.334   3.273  0.00  0.00    -0.153 OA
ATOM     31  O   UNL     1      -1.634   5.454   2.334  0.00  0.00    -0.153 OA
BRANCH  29  32
ATOM     32  N   UNL     1      -3.359   4.185   1.102  0.00  0.00    -0.204 NA
ATOM     33  H   UNL     1      -4.195   4.742   1.549  0.00  0.00    +0.144 HD
ATOM     34  H   UNL     1      -3.687   3.163   0.860  0.00  0.00    +0.144 HD
ENDBRANCH  29  32
ENDBRANCH  26  29
ENDBRANCH  21  23
ENDBRANCH   5  18
TORSDOF 7
