REMARK  Name = ZINC11976239
REMARK  10 active torsions:
REMARK  status: ('A' for Active; 'I' for Inactive)
REMARK    1  A    between atoms: C_1  and  C_2
REMARK    2  A    between atoms: C_2  and  C_3
REMARK    3  A    between atoms: C_3  and  C_4
REMARK    4  A    between atoms: C_4  and  C_19
REMARK    5  A    between atoms: N_7  and  C_11
REMARK    6  A    between atoms: C_11  and  C_12
REMARK    7  A    between atoms: C_12  and  C_13
REMARK    8  A    between atoms: C_18  and  N_72
REMARK    9  A    between atoms: C_25  and  C_27
REMARK   10  A    between atoms: C_28  and  C_29
REMARK                            x       y       z     vdW  Elec       q    Type
REMARK                         _______ _______ _______ _____ _____    ______ ____
ROOT
ATOM      1  C   UNL     1       0.161   0.890  -0.024  0.00  0.00    +0.115 C 
ATOM      2  C   UNL     1       1.570   1.442   0.065  0.00  0.00    +0.247 C 
ATOM      3  O   UNL     1       1.895   2.604   0.183  0.00  0.00    -0.273 OA
ATOM      4  N   UNL     1       2.386   0.372  -0.016  0.00  0.00    -0.224 N 
ATOM      5  C   UNL     1       1.696  -0.767  -0.142  0.00  0.00    +0.309 C 
ATOM      6  O   UNL     1       2.212  -1.863  -0.233  0.00  0.00    -0.252 OA
ATOM      7  N   UNL     1       0.366  -0.563  -0.157  0.00  0.00    -0.285 N 
ATOM      8  H   UNL     1      -0.324  -1.240  -0.239  0.00  0.00    +0.151 HD
ENDROOT
BRANCH   1   9
ATOM      9  C   UNL     1      -0.623   1.209   1.251  0.00  0.00    +0.024 C 
ATOM     10  C   UNL     1      -0.915   2.710   1.308  0.00  0.00    +0.025 C 
ATOM     11  C   UNL     1      -1.729   3.020   2.568  0.00  0.00    +0.108 C 
ATOM     12  N   UNL     1      -1.007   2.501   3.737  0.00  0.00    -0.298 N 
ATOM     13  C   UNL     1      -0.598   1.090   3.746  0.00  0.00    +0.108 C 
ATOM     14  C   UNL     1       0.204   0.801   2.473  0.00  0.00    +0.025 C 
ATOM     15  C   UNL     1      -0.726   3.304   4.783  0.00  0.00    +0.239 C 
ATOM     16  O   UNL     1      -0.206   2.843   5.782  0.00  0.00    -0.271 OA
BRANCH  15  17
ATOM     17  C   UNL     1      -1.044   4.731   4.716  0.00  0.00    +0.068 C 
ATOM     18  C   UNL     1      -0.673   5.552   5.719  0.00  0.00    +0.013 C 
BRANCH  18  19
ATOM     19  C   UNL     1      -0.994   6.987   5.652  0.00  0.00    -0.025 A 
ATOM     20  C   UNL     1      -1.679   7.502   4.547  0.00  0.00    +0.011 A 
ATOM     21  C   UNL     1      -1.980   8.846   4.493  0.00  0.00    +0.039 A 
ATOM     22  C   UNL     1      -1.597   9.688   5.526  0.00  0.00    +0.123 A 
ATOM     23  C   UNL     1      -0.913   9.184   6.622  0.00  0.00    +0.039 A 
ATOM     24  C   UNL     1      -0.610   7.841   6.691  0.00  0.00    +0.011 A 
ATOM     25  F   UNL     1      -1.891  11.005   5.464  0.00  0.00    -0.205 F 
ENDBRANCH  18  19
ENDBRANCH  15  17
ENDBRANCH   1   9
BRANCH   1  26
ATOM     26  C   UNL     1      -0.559   1.447  -1.254  0.00  0.00    +0.035 C 
BRANCH  26  28
ATOM     27  C   UNL     1      -0.510   1.611  -3.746  0.00  0.00    +0.004 C 
ATOM     28  C   UNL     1       0.210   1.054  -2.516  0.00  0.00    -0.001 C 
ENDBRANCH  26  28
ENDBRANCH   1  26
BRANCH   4  29
ATOM     29  C   UNL     1       3.848   0.448   0.027  0.00  0.00    +0.116 C 
BRANCH  29  30
ATOM     30  C   UNL     1       4.393   0.610  -1.393  0.00  0.00    +0.004 C 
BRANCH  30  31
ATOM     31  C   UNL     1       5.922   0.546  -1.363  0.00  0.00    -0.068 C 
ATOM     32  C   UNL     1       6.495   0.684  -2.796  0.00  0.00    -0.017 C 
ATOM     33  C   UNL     1       7.923   1.220  -2.512  0.00  0.00    -0.020 C 
ATOM     34  C   UNL     1       7.712   2.139  -1.290  0.00  0.00    -0.079 C 
ATOM     35  C   UNL     1       6.721   1.359   0.782  0.00  0.00    -0.096 C 
ATOM     36  N   UNL     1       6.463   1.713  -0.638  0.00  0.00    +0.380 N 
ATOM     37  H   UNL     1       5.782   2.481  -0.674  0.00  0.00    -0.082 HD
ENDBRANCH  30  31
ENDBRANCH  29  30
ENDBRANCH   4  29
TORSDOF 8
