REMARK  Name = ZINC17326429
REMARK  13 active torsions:
REMARK  status: ('A' for Active; 'I' for Inactive)
REMARK    1  A    between atoms: C_1  and  N_2
REMARK    2  A    between atoms: N_2  and  C_3
REMARK    3  A    between atoms: N_2  and  C_38
REMARK    4  A    between atoms: C_5  and  O_37
REMARK    5  A    between atoms: C_6  and  N_9
REMARK    6  A    between atoms: N_9  and  N_10
REMARK    7  A    between atoms: C_15  and  C_18
REMARK    8  A    between atoms: N_23  and  N_24
REMARK    9  A    between atoms: N_24  and  C_25
REMARK   10  A    between atoms: C_26  and  O_34
REMARK   11  A    between atoms: C_28  and  N_31
REMARK   12  A    between atoms: N_31  and  C_32
REMARK   13  A    between atoms: N_31  and  C_33
REMARK                            x       y       z     vdW  Elec       q    Type
REMARK                         _______ _______ _______ _____ _____    ______ ____
ROOT
ATOM      1  N   UNL     1       0.086  -2.158   5.927  0.00  0.00    -0.179 NA
ATOM      2  C   UNL     1       0.105  -2.827   7.077  0.00  0.00    +0.128 C 
ATOM      3  C   UNL     1       0.079  -2.110   8.360  0.00  0.00    +0.206 C 
ATOM      4  O   UNL     1       0.040  -0.887   8.390  0.00  0.00    -0.286 OA
ATOM      5  C   UNL     1       0.101  -2.854   9.549  0.00  0.00    +0.061 C 
ATOM      6  C   UNL     1       0.145  -4.237   9.492  0.00  0.00    -0.014 C 
ATOM      7  C   UNL     1       0.169  -4.913   8.262  0.00  0.00    +0.011 C 
ATOM      8  C   UNL     1       0.144  -4.240   7.085  0.00  0.00    +0.034 C 
ENDROOT
BRANCH   6   9
ATOM      9  C   UNL     1       0.167  -5.016  10.752  0.00  0.00    -0.014 C 
ATOM     10  C   UNL     1      -0.886  -4.899  11.642  0.00  0.00    +0.061 C 
ATOM     11  C   UNL     1      -0.873  -5.634  12.837  0.00  0.00    +0.206 C 
ATOM     12  O   UNL     1      -1.795  -5.544  13.636  0.00  0.00    -0.286 OA
ATOM     13  C   UNL     1       0.272  -6.516  13.110  0.00  0.00    +0.128 C 
ATOM     14  N   UNL     1       0.323  -7.231  14.231  0.00  0.00    -0.179 NA
ATOM     15  C   UNL     1       1.316  -6.593  12.161  0.00  0.00    +0.034 C 
ATOM     16  C   UNL     1       1.253  -5.865  11.019  0.00  0.00    +0.011 C 
BRANCH  14  17
ATOM     17  N   UNL     1       1.332  -8.001  14.460  0.00  0.00    -0.234 N 
ATOM     18  H   UNL     1       2.054  -8.059  13.814  0.00  0.00    +0.175 HD
BRANCH  17  19
ATOM     19  C   UNL     1       1.385  -8.748  15.633  0.00  0.00    +0.090 A 
ATOM     20  C   UNL     1       2.480  -9.579  15.884  0.00  0.00    +0.141 A 
ATOM     21  C   UNL     1       2.530 -10.320  17.051  0.00  0.00    +0.070 A 
ATOM     22  C   UNL     1       1.491 -10.238  17.970  0.00  0.00    +0.033 A 
ATOM     23  C   UNL     1       0.401  -9.411  17.718  0.00  0.00    +0.025 A 
ATOM     24  C   UNL     1       0.351  -8.666  16.559  0.00  0.00    +0.030 A 
BRANCH  22  25
ATOM     25  N   UNL     1       1.541 -10.986  19.147  0.00  0.00    -0.336 N 
ATOM     26  C   UNL     1       2.624 -11.951  19.357  0.00  0.00    +0.129 C 
ATOM     27  C   UNL     1       0.511 -10.806  20.174  0.00  0.00    +0.129 C 
ENDBRANCH  22  25
BRANCH  20  28
ATOM     28  O   UNL     1       3.495  -9.658  14.983  0.00  0.00    -0.505 OA
ATOM     29  H   UNL     1       4.201  -9.014  15.129  0.00  0.00    +0.292 HD
ENDBRANCH  20  28
ENDBRANCH  17  19
ENDBRANCH  14  17
ENDBRANCH   6   9
BRANCH   1  30
ATOM     30  N   UNL     1       0.104  -2.799   4.808  0.00  0.00    -0.234 N 
ATOM     31  H   UNL     1       0.130  -3.768   4.804  0.00  0.00    +0.175 HD
BRANCH  30  35
ATOM     32  C   UNL     1       0.044  -0.703   1.208  0.00  0.00    +0.033 A 
ATOM     33  C   UNL     1       0.083  -2.092   1.198  0.00  0.00    +0.070 A 
ATOM     34  C   UNL     1       0.103  -2.792   2.392  0.00  0.00    +0.141 A 
ATOM     35  C   UNL     1       0.084  -2.099   3.605  0.00  0.00    +0.090 A 
ATOM     36  C   UNL     1       0.045  -0.709   3.609  0.00  0.00    +0.030 A 
ATOM     37  C   UNL     1       0.031  -0.015   2.416  0.00  0.00    +0.025 A 
BRANCH  32  39
ATOM     38  C   UNL     1      -0.010   1.467   0.013  0.00  0.00    +0.129 C 
ATOM     39  N   UNL     1       0.024   0.002   0.004  0.00  0.00    -0.336 N 
ATOM     40  C   UNL     1       0.038  -0.722  -1.270  0.00  0.00    +0.129 C 
ENDBRANCH  32  39
BRANCH  34  41
ATOM     41  O   UNL     1       0.140  -4.150   2.384  0.00  0.00    -0.505 OA
ATOM     42  H   UNL     1       1.034  -4.519   2.381  0.00  0.00    +0.292 HD
ENDBRANCH  34  41
ENDBRANCH  30  35
ENDBRANCH   1  30
TORSDOF 9
