REMARK  Name = ZINC19898571
REMARK  12 active torsions:
REMARK  status: ('A' for Active; 'I' for Inactive)
REMARK    1  A    between atoms: C_1  and  C_2
REMARK    2  A    between atoms: C_2  and  C_3
REMARK    3  A    between atoms: C_3  and  O_4
REMARK    4  A    between atoms: O_4  and  C_5
REMARK    5  A    between atoms: C_5  and  C_7
REMARK    6  A    between atoms: C_8  and  C_38
REMARK    7  A    between atoms: C_12  and  C_14
REMARK    8  A    between atoms: C_25  and  C_28
REMARK    9  A    between atoms: C_31  and  O_36
REMARK   10  A    between atoms: C_32  and  O_34
REMARK   11  A    between atoms: O_34  and  C_35
REMARK   12  A    between atoms: O_36  and  C_37
REMARK                            x       y       z     vdW  Elec       q    Type
REMARK                         _______ _______ _______ _____ _____    ______ ____
ROOT
ATOM      1  C   UNL     1      -2.698  -4.020  -0.215  0.00  0.00    +0.065 C 
ATOM      2  C   UNL     1      -3.853  -4.619   0.122  0.00  0.00    +0.016 C 
ATOM      3  N   UNL     1      -3.897  -5.969   0.331  0.00  0.00    -0.321 N 
ATOM      4  C   UNL     1      -2.912  -6.785  -0.156  0.00  0.00    +0.016 C 
ATOM      5  C   UNL     1      -1.711  -6.276  -0.506  0.00  0.00    +0.024 C 
ATOM      6  C   UNL     1      -1.425  -4.803  -0.353  0.00  0.00    +0.096 C 
ATOM      7  C   UNL     1      -0.696  -7.101  -1.022  0.00  0.00    +0.162 C 
ATOM      8  O   UNL     1       0.376  -6.612  -1.318  0.00  0.00    -0.292 OA
ATOM      9  C   UNL     1      -0.914  -8.577  -1.215  0.00  0.00    +0.088 C 
ATOM     10  C   UNL     1      -2.404  -8.832  -1.468  0.00  0.00    +0.032 C 
ATOM     11  C   UNL     1      -3.201  -8.260  -0.294  0.00  0.00    +0.059 C 
ATOM     12  C   UNL     1      -5.108  -3.798   0.265  0.00  0.00    +0.061 C 
ATOM     13  H   UNL     1      -4.731  -6.411   0.897  0.00  0.00    +0.152 HD
ENDROOT
BRANCH   6  14
ATOM     14  C   UNL     1      -0.576  -4.588   0.873  0.00  0.00    +0.018 A 
ATOM     15  C   UNL     1      -1.062  -4.939   2.122  0.00  0.00    +0.129 A 
ATOM     16  C   UNL     1      -0.279  -4.746   3.247  0.00  0.00    +0.039 A 
ATOM     17  C   UNL     1       0.983  -4.193   3.124  0.00  0.00    +0.004 A 
ATOM     18  C   UNL     1       1.465  -3.839   1.879  0.00  0.00    +0.020 A 
ATOM     19  C   UNL     1       0.686  -4.036   0.752  0.00  0.00    +0.048 A 
ATOM     20 CL   UNL     1       1.293  -3.591  -0.812  0.00  0.00    -0.083 Cl
ATOM     21  F   UNL     1      -2.297  -5.473   2.241  0.00  0.00    -0.205 F 
ENDBRANCH   6  14
BRANCH  10  22
ATOM     22  C   UNL     1      -2.651 -10.314  -1.579  0.00  0.00    -0.040 A 
ATOM     23  C   UNL     1      -2.347 -11.146  -0.517  0.00  0.00    +0.008 A 
ATOM     24  C   UNL     1      -2.573 -12.506  -0.614  0.00  0.00    +0.049 A 
ATOM     25  C   UNL     1      -3.106 -13.039  -1.777  0.00  0.00    +0.161 A 
ATOM     26  C   UNL     1      -3.412 -12.202  -2.846  0.00  0.00    +0.162 A 
ATOM     27  C   UNL     1      -3.188 -10.839  -2.740  0.00  0.00    +0.053 A 
BRANCH  26  28
ATOM     28  O   UNL     1      -3.935 -12.720  -3.989  0.00  0.00    -0.491 OA
ATOM     29  C   UNL     1      -4.225 -11.801  -5.045  0.00  0.00    +0.277 C 
ENDBRANCH  26  28
BRANCH  25  30
ATOM     30  O   UNL     1      -3.329 -14.377  -1.874  0.00  0.00    -0.491 OA
ATOM     31  C   UNL     1      -2.990 -15.175  -0.738  0.00  0.00    +0.277 C 
ENDBRANCH  25  30
ENDBRANCH  10  22
BRANCH   1  32
ATOM     32  C   UNL     1      -2.680  -2.623  -0.439  0.00  0.00    +0.338 C 
ATOM     33  O   UNL     1      -3.722  -1.995  -0.446  0.00  0.00    -0.245 OA
BRANCH  32  34
ATOM     34  O   UNL     1      -1.507  -1.988  -0.644  0.00  0.00    -0.461 OA
BRANCH  34  35
ATOM     35  C   UNL     1      -1.564  -0.577  -0.863  0.00  0.00    +0.232 C 
BRANCH  35  37
ATOM     36  C   UNL     1      -0.209   1.475  -1.308  0.00  0.00    +0.007 C 
ATOM     37  C   UNL     1      -0.148  -0.036  -1.074  0.00  0.00    +0.038 C 
ENDBRANCH  35  37
ENDBRANCH  34  35
ENDBRANCH  32  34
ENDBRANCH   1  32
TORSDOF 8
