REMARK  Name = ZINC18016583
REMARK  6 active torsions:
REMARK  status: ('A' for Active; 'I' for Inactive)
REMARK    1  A    between atoms: C_1  and  C_2
REMARK    2  A    between atoms: C_2  and  C_4
REMARK    3  A    between atoms: C_2  and  N_12
REMARK    4  A    between atoms: C_13  and  C_15
REMARK    5  A    between atoms: C_15  and  C_16
REMARK    6  A    between atoms: C_16  and  N_17
REMARK                            x       y       z     vdW  Elec       q    Type
REMARK                         _______ _______ _______ _____ _____    ______ ____
ROOT
ATOM      1  C   UNL     1       5.202   4.595  -1.466  0.00  0.00    +0.117 C 
ENDROOT
BRANCH   1   3
ATOM      2  N   UNL     1       7.019   5.791  -2.645  0.00  0.00    -0.309 N 
ATOM      3  C   UNL     1       6.466   5.417  -1.474  0.00  0.00    +0.215 C 
ATOM      4  O   UNL     1       6.985   5.741  -0.427  0.00  0.00    -0.276 OA
ATOM      5  H   UNL     1       6.604   5.531  -3.482  0.00  0.00    +0.149 HD
BRANCH   2   7
ATOM      6  C   UNL     1       9.459   5.662  -2.545  0.00  0.00    +0.033 C 
ATOM      7  C   UNL     1       8.247   6.589  -2.653  0.00  0.00    +0.100 C 
BRANCH   7   8
ATOM      8  C   UNL     1       8.328   7.374  -3.937  0.00  0.00    -0.025 A 
ATOM      9  C   UNL     1       7.949   6.787  -5.130  0.00  0.00    +0.008 A 
ATOM     10  C   UNL     1       8.017   7.506  -6.308  0.00  0.00    +0.041 A 
ATOM     11  C   UNL     1       8.476   8.812  -6.296  0.00  0.00    +0.158 A 
ATOM     12  C   UNL     1       8.861   9.399  -5.101  0.00  0.00    +0.159 A 
ATOM     13  C   UNL     1       8.786   8.678  -3.922  0.00  0.00    +0.046 A 
ATOM     14  F   UNL     1       9.309  10.673  -5.087  0.00  0.00    -0.202 F 
ATOM     15  F   UNL     1       8.548   9.513  -7.449  0.00  0.00    -0.202 F 
ENDBRANCH   7   8
ENDBRANCH   2   7
ENDBRANCH   1   3
BRANCH   1  16
ATOM     16  C   UNL     1       4.790   4.309  -0.021  0.00  0.00    +0.136 C 
BRANCH  16  17
ATOM     17  N   UNL     1       3.562   3.510  -0.013  0.00  0.00    -0.288 N 
ATOM     18  C   UNL     1       3.648   2.162  -0.022  0.00  0.00    +0.262 A 
ATOM     19  O   UNL     1       4.729   1.606  -0.035  0.00  0.00    -0.267 OA
ATOM     20  C   UNL     1       2.397   1.382  -0.014  0.00  0.00    +0.063 A 
ATOM     21  C   UNL     1       2.402  -0.011  -0.021  0.00  0.00    +0.015 A 
ATOM     22  C   UNL     1       1.204  -0.695  -0.013  0.00  0.00    +0.001 A 
ATOM     23  C   UNL     1       0.002  -0.004   0.002  0.00  0.00    +0.002 A 
ATOM     24  C   UNL     1      -0.017   1.377   0.010  0.00  0.00    +0.026 A 
ATOM     25  C   UNL     1       1.178   2.081   0.002  0.00  0.00    +0.053 A 
ATOM     26  N   UNL     1       1.203   3.468   0.010  0.00  0.00    -0.335 N 
ATOM     27  H   UNL     1       0.369   3.963   0.020  0.00  0.00    +0.168 HD
ATOM     28  C   UNL     1       2.372   4.131   0.002  0.00  0.00    +0.161 A 
ATOM     29  S   UNL     1       2.342   5.843   0.011  0.00  0.00    -0.013 S 
ENDBRANCH  16  17
ENDBRANCH   1  16
TORSDOF 5
