REMARK  Name = ZINC24142124
REMARK  10 active torsions:
REMARK  status: ('A' for Active; 'I' for Inactive)
REMARK    1  A    between atoms: C_1  and  C_2
REMARK    2  A    between atoms: N_13  and  C_30
REMARK    3  A    between atoms: C_14  and  S_16
REMARK    4  A    between atoms: S_16  and  C_17
REMARK    5  A    between atoms: C_17  and  C_18
REMARK    6  A    between atoms: C_24  and  C_27
REMARK    7  A    between atoms: C_30  and  C_31
REMARK    8  A    between atoms: C_31  and  C_32
REMARK    9  A    between atoms: C_32  and  C_33
REMARK   10  A    between atoms: C_32  and  C_34
REMARK                            x       y       z     vdW  Elec       q    Type
REMARK                         _______ _______ _______ _____ _____    ______ ____
ROOT
ATOM      1  C   UNL     1      -6.757   5.661  11.557  0.00  0.00    +0.008 C 
ATOM      2  C   UNL     1      -6.390   4.622  10.495  0.00  0.00    -0.009 C 
ATOM      3  C   UNL     1      -5.625   3.466  11.145  0.00  0.00    +0.008 C 
ATOM      4  C   UNL     1      -5.474   2.317  10.148  0.00  0.00    +0.037 C 
ATOM      5  C   UNL     1      -4.872   2.861   8.856  0.00  0.00    -0.023 A 
ATOM      6  C   UNL     1      -4.905   4.181   8.583  0.00  0.00    -0.004 A 
ATOM      7  S   UNL     1      -4.105   4.347   7.010  0.00  0.00    -0.073 S 
ATOM      8  C   UNL     1      -3.727   2.636   6.722  0.00  0.00    +0.117 A 
ATOM      9  C   UNL     1      -4.238   1.993   7.862  0.00  0.00    +0.076 A 
ATOM     10  C   UNL     1      -4.070   0.573   7.904  0.00  0.00    +0.263 A 
ATOM     11  O   UNL     1      -4.482  -0.070   8.855  0.00  0.00    -0.267 OA
ATOM     12  N   UNL     1      -3.452  -0.043   6.880  0.00  0.00    -0.287 N 
ATOM     13  C   UNL     1      -2.986   0.660   5.807  0.00  0.00    +0.173 A 
ATOM     14  N   UNL     1      -3.123   1.969   5.746  0.00  0.00    -0.216 NA
ATOM     15  C   UNL     1      -5.493   5.269   9.430  0.00  0.00    +0.046 C 
ENDROOT
BRANCH  13  16
ATOM     16  S   UNL     1      -2.184  -0.193   4.491  0.00  0.00    -0.078 S 
BRANCH  16  17
ATOM     17  C   UNL     1      -1.801   1.201   3.401  0.00  0.00    +0.173 C 
BRANCH  17  18
ATOM     18  C   UNL     1      -1.091   0.697   2.171  0.00  0.00    +0.226 C 
ATOM     19  O   UNL     1      -0.866  -0.488   2.044  0.00  0.00    -0.275 OA
ATOM     20  N   UNL     1      -0.706   1.562   1.213  0.00  0.00    -0.300 N 
ATOM     21  C   UNL     1      -0.975   3.001   1.350  0.00  0.00    +0.108 C 
ATOM     22  C   UNL     1      -1.711   3.490   0.099  0.00  0.00    +0.020 C 
ATOM     23  C   UNL     1      -0.898   3.118  -1.144  0.00  0.00    +0.016 C 
ATOM     24  C   UNL     1      -0.759   1.596  -1.228  0.00  0.00    +0.092 C 
ATOM     25  C   UNL     1      -0.013   1.086   0.008  0.00  0.00    +0.120 C 
BRANCH  24  26
ATOM     26  C   UNL     1       0.013   1.230  -2.469  0.00  0.00    +0.215 C 
ATOM     27  O   UNL     1       0.411   2.099  -3.215  0.00  0.00    -0.276 OA
ATOM     28  N   UNL     1       0.262  -0.065  -2.751  0.00  0.00    -0.329 N 
ATOM     29  H   UNL     1       0.826  -0.332  -3.656  0.00  0.00    +0.145 HD
ATOM     30  H   UNL     1      -0.099  -0.854  -2.075  0.00  0.00    +0.145 HD
ENDBRANCH  24  26
ENDBRANCH  17  18
ENDBRANCH  16  17
ENDBRANCH  13  16
BRANCH  12  31
ATOM     31  C   UNL     1      -3.277  -1.498   6.916  0.00  0.00    +0.127 C 
BRANCH  31  32
ATOM     32  C   UNL     1      -1.947  -1.834   7.592  0.00  0.00    +0.025 C 
BRANCH  32  33
ATOM     33  C   UNL     1      -1.764  -3.353   7.630  0.00  0.00    -0.016 C 
ATOM     34  C   UNL     1      -0.380  -3.686   8.192  0.00  0.00    +0.007 C 
ATOM     35  C   UNL     1      -2.840  -3.974   8.523  0.00  0.00    +0.007 C 
ENDBRANCH  32  33
ENDBRANCH  31  32
ENDBRANCH  12  31
TORSDOF 7
