REMARK  Name = ZINC38577576
REMARK  9 active torsions:
REMARK  status: ('A' for Active; 'I' for Inactive)
REMARK    1  A    between atoms: C_1  and  C_2
REMARK    2  A    between atoms: C_2  and  N_3
REMARK    3  A    between atoms: C_4  and  C_6
REMARK    4  A    between atoms: C_15  and  N_17
REMARK    5  A    between atoms: C_18  and  C_20
REMARK    6  A    between atoms: C_23  and  C_25
REMARK    7  A    between atoms: C_28  and  C_33
REMARK    8  A    between atoms: C_29  and  C_32
REMARK    9  A    between atoms: C_30  and  O_31
REMARK                            x       y       z     vdW  Elec       q    Type
REMARK                         _______ _______ _______ _____ _____    ______ ____
ROOT
ATOM      1  N   UNL     1       1.007  -0.712  -4.468  0.00  0.00    -0.294 N 
ATOM      2  C   UNL     1       0.980   0.614  -4.708  0.00  0.00    +0.261 C 
ATOM      3  O   UNL     1       1.841   1.335  -4.241  0.00  0.00    -0.269 OA
ATOM      4  H   UNL     1       0.320  -1.287  -4.840  0.00  0.00    +0.150 HD
ENDROOT
BRANCH   1  13
ATOM      5  C   UNL     1       1.515  -2.273  -2.635  0.00  0.00    +0.045 C 
ATOM      6  C   UNL     1       1.652  -3.554  -2.864  0.00  0.00    -0.046 C 
ATOM      7  C   UNL     1       1.245  -4.671  -1.903  0.00  0.00    +0.032 C 
ATOM      8  C   UNL     1       1.315  -5.977  -2.700  0.00  0.00    +0.004 C 
ATOM      9  C   UNL     1       2.718  -6.249  -3.223  0.00  0.00    +0.002 C 
ATOM     10  C   UNL     1       3.411  -4.996  -3.752  0.00  0.00    +0.018 C 
ATOM     11  C   UNL     1       2.357  -3.966  -4.165  0.00  0.00    +0.075 C 
ATOM     12  S   UNL     1       3.171  -2.388  -4.640  0.00  0.00    -0.126 S 
ATOM     13  C   UNL     1       2.074  -1.285  -3.643  0.00  0.00    +0.167 C 
BRANCH   5  15
ATOM     14  N   UNL     1       0.688  -0.476  -1.203  0.00  0.00    -0.312 N 
ATOM     15  C   UNL     1       0.827  -1.799  -1.425  0.00  0.00    +0.243 C 
ATOM     16  O   UNL     1       0.383  -2.599  -0.625  0.00  0.00    -0.270 OA
ATOM     17  H   UNL     1       1.042   0.162  -1.842  0.00  0.00    +0.149 HD
BRANCH  14  19
ATOM     18  C   UNL     1      -0.019   1.526   0.010  0.00  0.00    +0.024 C 
ATOM     19  C   UNL     1       0.002  -0.004   0.002  0.00  0.00    +0.101 C 
ENDBRANCH  14  19
ENDBRANCH   5  15
ENDBRANCH   1  13
BRANCH   2  20
ATOM     20  C   UNL     1      -0.088   1.187  -5.533  0.00  0.00    +0.131 C 
ATOM     21  N   UNL     1      -1.083   0.555  -6.100  0.00  0.00    -0.148 NA
ATOM     22  N   UNL     1      -1.872   1.304  -6.766  0.00  0.00    -0.153 NA
ATOM     23  C   UNL     1      -1.540   2.575  -6.761  0.00  0.00    +0.080 C 
ATOM     24  C   UNL     1      -0.283   2.647  -5.911  0.00  0.00    +0.120 C 
BRANCH  23  25
ATOM     25  C   UNL     1      -2.234   3.681  -7.425  0.00  0.00    +0.040 A 
ATOM     26  C   UNL     1      -1.738   4.989  -7.322  0.00  0.00    +0.013 A 
ATOM     27  C   UNL     1      -2.396   6.022  -7.949  0.00  0.00    +0.004 A 
ATOM     28  C   UNL     1      -3.547   5.778  -8.682  0.00  0.00    -0.044 A 
ATOM     29  C   UNL     1      -4.049   4.496  -8.792  0.00  0.00    -0.005 A 
ATOM     30  C   UNL     1      -3.399   3.439  -8.174  0.00  0.00    +0.129 A 
ATOM     31  C   UNL     1      -5.301   4.245  -9.592  0.00  0.00    +0.048 C 
ATOM     32  C   UNL     1      -4.257   6.920  -9.362  0.00  0.00    +0.044 C 
BRANCH  30  33
ATOM     33  O   UNL     1      -3.888   2.179  -8.286  0.00  0.00    -0.506 OA
ATOM     34  H   UNL     1      -4.521   1.940  -7.596  0.00  0.00    +0.292 HD
ENDBRANCH  30  33
ENDBRANCH  23  25
ENDBRANCH   2  20
TORSDOF 6
