REMARK  Name = ZINC13169467
REMARK  5 active torsions:
REMARK  status: ('A' for Active; 'I' for Inactive)
REMARK    1  A    between atoms: C_1  and  C_2
REMARK    2  A    between atoms: C_9  and  C_11
REMARK    3  A    between atoms: N_13  and  C_14
REMARK    4  A    between atoms: C_16  and  C_22
REMARK    5  A    between atoms: C_18  and  C_20
REMARK                            x       y       z     vdW  Elec       q    Type
REMARK                         _______ _______ _______ _____ _____    ______ ____
ROOT
ATOM      1  C   UNL     1      -1.242   5.920  -0.058  0.00  0.00    +0.255 C 
ATOM      2  O   UNL     1      -2.290   5.300  -0.051  0.00  0.00    -0.269 OA
ATOM      3  N   UNL     1      -0.069   5.261   0.029  0.00  0.00    -0.281 N 
ATOM      4  H   UNL     1       0.761   5.757   0.101  0.00  0.00    +0.155 HD
ENDROOT
BRANCH   1  12
ATOM      5  C   UNL     1      -3.690  13.082  -0.344  0.00  0.00    +0.008 C 
ATOM      6  C   UNL     1      -2.638  12.005  -0.071  0.00  0.00    -0.009 C 
ATOM      7  C   UNL     1      -1.380  12.303  -0.891  0.00  0.00    +0.009 C 
ATOM      8  C   UNL     1      -0.248  11.385  -0.410  0.00  0.00    +0.043 C 
ATOM      9  C   UNL     1      -0.777   9.986  -0.329  0.00  0.00    -0.006 A 
ATOM     10  C   UNL     1      -2.087   9.599  -0.347  0.00  0.00    -0.036 A 
ATOM     11  C   UNL     1      -2.336   8.238  -0.266  0.00  0.00    +0.024 A 
ATOM     12  C   UNL     1      -1.256   7.381  -0.162  0.00  0.00    +0.075 A 
ATOM     13  S   UNL     1       0.118   8.521  -0.195  0.00  0.00    -0.088 S 
ATOM     14  C   UNL     1      -3.200  10.637  -0.457  0.00  0.00    +0.039 C 
ENDBRANCH   1  12
BRANCH   3  15
ATOM     15  C   UNL     1      -0.050   3.862   0.016  0.00  0.00    +0.035 A 
ATOM     16  C   UNL     1       0.906   3.177   0.752  0.00  0.00    +0.038 A 
ATOM     17  C   UNL     1       0.929   1.781   0.741  0.00  0.00    +0.066 A 
ATOM     18  C   UNL     1      -0.011   1.076  -0.009  0.00  0.00    +0.030 A 
ATOM     19  C   UNL     1      -0.966   1.768  -0.751  0.00  0.00    +0.066 A 
ATOM     20  C   UNL     1      -0.986   3.164  -0.732  0.00  0.00    +0.038 A 
BRANCH  19  21
ATOM     21  C   UNL     1      -1.961   1.025  -1.553  0.00  0.00    +0.387 C 
ATOM     22  O   UNL     1      -2.793   1.629  -2.199  0.00  0.00    -0.241 OA
ATOM     23  O   UNL     1      -1.944  -0.322  -1.567  0.00  0.00    -0.241 OA
ENDBRANCH  19  21
BRANCH  17  24
ATOM     24  C   UNL     1       1.947   1.052   1.525  0.00  0.00    +0.387 C 
ATOM     25  O   UNL     1       2.766   1.667   2.179  0.00  0.00    -0.241 OA
ATOM     26  O   UNL     1       1.968  -0.295   1.514  0.00  0.00    -0.241 OA
ENDBRANCH  17  24
ENDBRANCH   3  15
TORSDOF 4
