REMARK  Name = ZINC16346264
REMARK  16 active torsions:
REMARK  status: ('A' for Active; 'I' for Inactive)
REMARK    1  A    between atoms: C_1  and  C_2
REMARK    2  A    between atoms: C_2  and  N_3
REMARK    3  A    between atoms: N_3  and  C_4
REMARK    4  A    between atoms: C_4  and  C_5
REMARK    5  A    between atoms: C_6  and  C_8
REMARK    6  A    between atoms: C_9  and  C_31
REMARK    7  A    between atoms: C_10  and  C_27
REMARK    8  A    between atoms: C_11  and  N_13
REMARK    9  A    between atoms: N_13  and  C_14
REMARK   10  A    between atoms: C_14  and  N_16
REMARK   11  A    between atoms: N_16  and  N_17
REMARK   12  A    between atoms: N_17  and  C_18
REMARK   13  A    between atoms: C_18  and  N_20
REMARK   14  A    between atoms: N_20  and  C_21
REMARK   15  A    between atoms: C_27  and  O_29
REMARK   16  A    between atoms: O_29  and  C_30
REMARK                            x       y       z     vdW  Elec       q    Type
REMARK                         _______ _______ _______ _____ _____    ______ ____
ROOT
ATOM      1  N   UNL     1       3.518   3.385  -0.386  0.00  0.00    -0.290 N 
ATOM      2  H   UNL     1       2.671   3.857  -0.397  0.00  0.00    +0.154 HD
ENDROOT
BRANCH   1   6
ATOM      3  C   UNL     1       7.200   5.029  -0.160  0.00  0.00    +0.079 A 
ATOM      4  C   UNL     1       6.188   5.950  -0.156  0.00  0.00    -0.015 A 
ATOM      5  C   UNL     1       4.886   5.476  -0.231  0.00  0.00    +0.091 A 
ATOM      6  C   UNL     1       4.701   4.091  -0.305  0.00  0.00    +0.086 A 
ATOM      7  S   UNL     1       6.323   3.481  -0.262  0.00  0.00    -0.068 S 
ATOM      8  C   UNL     1       6.477   7.426  -0.074  0.00  0.00    +0.046 C 
BRANCH   3  10
ATOM      9  N   UNL     1       9.487   4.215   0.038  0.00  0.00    -0.298 N 
ATOM     10  C   UNL     1       8.644   5.259  -0.090  0.00  0.00    +0.254 C 
ATOM     11  O   UNL     1       9.084   6.393  -0.149  0.00  0.00    -0.269 OA
BRANCH   9  13
ATOM     12  C   UNL     1      11.296   4.462   1.666  0.00  0.00    +0.024 C 
ATOM     13  C   UNL     1      10.926   4.449   0.181  0.00  0.00    +0.105 C 
ENDBRANCH   9  13
BRANCH   9  14
ATOM     14  C   UNL     1       8.964   2.846   0.034  0.00  0.00    +0.105 C 
ATOM     15  C   UNL     1       8.769   2.380  -1.410  0.00  0.00    +0.024 C 
ENDBRANCH   9  14
ENDBRANCH   3  10
BRANCH   5  16
ATOM     16  C   UNL     1       3.743   6.396  -0.233  0.00  0.00    +0.342 C 
ATOM     17  O   UNL     1       3.227   6.727   0.817  0.00  0.00    -0.245 OA
BRANCH  16  18
ATOM     18  O   UNL     1       3.265   6.874  -1.400  0.00  0.00    -0.464 OA
ATOM     19  C   UNL     1       2.132   7.779  -1.326  0.00  0.00    +0.280 C 
ENDBRANCH  16  18
ENDBRANCH   5  16
ENDBRANCH   1   6
BRANCH   1  20
ATOM     20  C   UNL     1       3.540   2.039  -0.450  0.00  0.00    +0.151 C 
ATOM     21  S   UNL     1       5.035   1.205  -0.431  0.00  0.00    -0.017 S 
BRANCH  20  22
ATOM     22  N   UNL     1       2.385   1.349  -0.529  0.00  0.00    -0.246 N 
ATOM     23  H   UNL     1       2.401   0.380  -0.575  0.00  0.00    +0.172 HD
BRANCH  22  24
ATOM     24  N   UNL     1       1.161   2.031  -0.545  0.00  0.00    -0.247 N 
ATOM     25  H   UNL     1       1.146   3.000  -0.499  0.00  0.00    +0.172 HD
BRANCH  24  26
ATOM     26  C   UNL     1       0.006   1.341  -0.624  0.00  0.00    +0.147 C 
ATOM     27  S   UNL     1      -1.489   2.175  -0.651  0.00  0.00    -0.017 S 
BRANCH  26  28
ATOM     28  N   UNL     1       0.028  -0.005  -0.688  0.00  0.00    -0.323 N 
ATOM     29  H   UNL     1       0.875  -0.477  -0.677  0.00  0.00    +0.148 HD
BRANCH  28  30
ATOM     30  C   UNL     1      -1.227  -0.755  -0.774  0.00  0.00    +0.072 C 
ATOM     31  C   UNL     1      -1.786  -0.977   0.633  0.00  0.00    +0.022 C 
ATOM     32  C   UNL     1      -3.097  -1.760   0.543  0.00  0.00    +0.002 C 
ATOM     33  C   UNL     1      -2.839  -3.113  -0.123  0.00  0.00    +0.000 C 
ATOM     34  C   UNL     1      -2.280  -2.891  -1.530  0.00  0.00    +0.002 C 
ATOM     35  C   UNL     1      -0.969  -2.108  -1.440  0.00  0.00    +0.022 C 
ENDBRANCH  28  30
ENDBRANCH  26  28
ENDBRANCH  24  26
ENDBRANCH  22  24
ENDBRANCH  20  22
ENDBRANCH   1  20
TORSDOF 12
