REMARK  Name = ZINC08568286
REMARK  9 active torsions:
REMARK  status: ('A' for Active; 'I' for Inactive)
REMARK    1  A    between atoms: C_1  and  C_2
REMARK    2  A    between atoms: C_2  and  C_3
REMARK    3  A    between atoms: C_3  and  C_4
REMARK    4  A    between atoms: C_11  and  N_35
REMARK    5  A    between atoms: C_12  and  C_31
REMARK    6  A    between atoms: N_20  and  C_23
REMARK    7  A    between atoms: C_23  and  C_24
REMARK    8  A    between atoms: C_31  and  O_33
REMARK    9  A    between atoms: O_33  and  C_34
REMARK                            x       y       z     vdW  Elec       q    Type
REMARK                         _______ _______ _______ _____ _____    ______ ____
ROOT
ATOM      1  C   UNL     1       1.135  -2.141   1.488  0.00  0.00    +0.071 A 
ATOM      2  C   UNL     1       0.273  -3.183   1.799  0.00  0.00    +0.061 A 
ATOM      3  C   UNL     1       0.941  -4.361   1.598  0.00  0.00    +0.223 A 
ATOM      4  N   UNL     1       2.179  -4.057   1.177  0.00  0.00    -0.246 N 
ATOM      5  H   UNL     1       2.879  -4.691   0.956  0.00  0.00    +0.192 HD
ATOM      6  N   UNL     1       2.280  -2.658   1.108  0.00  0.00    -0.176 NA
ATOM      7  O   UNL     1       0.370  -5.571   1.813  0.00  0.00    -0.424 OA
ATOM      8  C   UNL     1      -0.967  -5.619   1.979  0.00  0.00    +0.198 C 
ATOM      9  C   UNL     1      -1.737  -4.523   2.197  0.00  0.00    +0.117 C 
ATOM     10  C   UNL     1      -1.151  -3.140   2.277  0.00  0.00    +0.142 C 
ATOM     11  C   UNL     1      -1.242  -2.590   3.664  0.00  0.00    -0.002 A 
ATOM     12  C   UNL     1      -0.716  -3.028   4.859  0.00  0.00    +0.007 A 
ATOM     13  C   UNL     1      -0.996  -2.268   5.989  0.00  0.00    +0.000 A 
ATOM     14  C   UNL     1      -1.766  -1.125   5.914  0.00  0.00    +0.002 A 
ATOM     15  C   UNL     1      -2.301  -0.678   4.716  0.00  0.00    +0.024 A 
ATOM     16  C   UNL     1      -2.027  -1.433   3.574  0.00  0.00    +0.041 A 
ATOM     17  N   UNL     1      -2.428  -1.224   2.266  0.00  0.00    -0.265 N 
ATOM     18  C   UNL     1      -1.960  -2.179   1.434  0.00  0.00    +0.240 C 
ATOM     19  O   UNL     1      -2.152  -2.253   0.239  0.00  0.00    -0.274 OA
ENDROOT
BRANCH   8  20
ATOM     20  N   UNL     1      -1.582  -6.841   1.923  0.00  0.00    -0.329 N 
ATOM     21  H   UNL     1      -1.070  -7.632   1.691  0.00  0.00    +0.145 HD
ATOM     22  H   UNL     1      -2.529  -6.916   2.116  0.00  0.00    +0.145 HD
ENDBRANCH   8  20
BRANCH   9  23
ATOM     23  C   UNL     1      -3.121  -4.686   2.353  0.00  0.00    +0.341 C 
ATOM     24  O   UNL     1      -3.624  -4.590   3.459  0.00  0.00    -0.245 OA
BRANCH  23  25
ATOM     25  O   UNL     1      -3.896  -4.949   1.279  0.00  0.00    -0.465 OA
ATOM     26  C   UNL     1      -5.298  -5.102   1.512  0.00  0.00    +0.280 C 
ENDBRANCH  23  25
ENDBRANCH   9  23
BRANCH   1  27
ATOM     27  C   UNL     1       0.811  -0.672   1.566  0.00  0.00    +0.057 C 
BRANCH  27  29
ATOM     28  C   UNL     1       0.157   1.345   0.244  0.00  0.00    +0.004 C 
ATOM     29  C   UNL     1       0.409  -0.163   0.180  0.00  0.00    +0.003 C 
ENDBRANCH  27  29
ENDBRANCH   1  27
BRANCH  17  30
ATOM     30  C   UNL     1      -3.260  -0.099   1.834  0.00  0.00    +0.150 C 
BRANCH  30  31
ATOM     31  C   UNL     1      -4.689  -0.556   1.691  0.00  0.00    -0.011 A 
ATOM     32  C   UNL     1      -5.178  -0.918   0.450  0.00  0.00    +0.006 A 
ATOM     33  C   UNL     1      -6.489  -1.338   0.319  0.00  0.00    +0.000 A 
ATOM     34  C   UNL     1      -7.311  -1.397   1.429  0.00  0.00    +0.001 A 
ATOM     35  C   UNL     1      -6.823  -1.035   2.671  0.00  0.00    +0.020 A 
ATOM     36  C   UNL     1      -5.509  -0.620   2.803  0.00  0.00    +0.046 A 
ATOM     37 CL   UNL     1      -4.894  -0.172   4.364  0.00  0.00    -0.083 Cl
ENDBRANCH  30  31
ENDBRANCH  17  30
TORSDOF 7
