REMARK  Name = ZINC09577063
REMARK  9 active torsions:
REMARK  status: ('A' for Active; 'I' for Inactive)
REMARK    1  A    between atoms: C_4  and  C_7
REMARK    2  A    between atoms: C_8  and  S_9
REMARK    3  A    between atoms: S_9  and  N_12
REMARK    4  A    between atoms: C_18  and  C_20
REMARK    5  A    between atoms: C_20  and  N_64
REMARK    6  A    between atoms: C_21  and  C_22
REMARK    7  A    between atoms: C_21  and  N_64
REMARK    8  A    between atoms: C_27  and  C_28
REMARK    9  A    between atoms: C_27  and  N_64
REMARK                            x       y       z     vdW  Elec       q    Type
REMARK                         _______ _______ _______ _____ _____    ______ ____
ROOT
ATOM      1  N   UNL     1      -2.546   4.588   4.530  0.00  0.00    -0.174 NA
ATOM      2  C   UNL     1      -1.306   3.799   4.515  0.00  0.00    +0.128 C 
ATOM      3  C   UNL     1      -0.370   4.377   3.446  0.00  0.00    +0.125 C 
ATOM      4  N   UNL     1      -1.126   4.532   2.195  0.00  0.00    -0.300 N 
ATOM      5  C   UNL     1      -2.363   5.325   2.208  0.00  0.00    +0.125 C 
ATOM      6  C   UNL     1      -3.302   4.743   3.279  0.00  0.00    +0.128 C 
ATOM      7  C   UNL     1      -0.690   3.961   1.054  0.00  0.00    +0.199 C 
ATOM      8  O   UNL     1       0.335   3.313   1.054  0.00  0.00    -0.278 OA
ENDROOT
BRANCH   1   9
ATOM      9  S   UNL     1      -3.082   5.290   5.931  0.00  0.00    +0.054 S 
ATOM     10  O   UNL     1      -4.483   5.472   5.784  0.00  0.00    -0.153 OA
ATOM     11  O   UNL     1      -2.518   4.543   7.001  0.00  0.00    -0.153 OA
BRANCH   9  13
ATOM     12  C   UNL     1      -3.149   7.972   5.957  0.00  0.00    +0.028 C 
ATOM     13  C   UNL     1      -2.371   6.900   6.012  0.00  0.00    +0.153 C 
BRANCH  12  17
ATOM     14  C   UNL     1      -1.436  11.853   6.151  0.00  0.00    +0.000 A 
ATOM     15  C   UNL     1      -2.807  11.711   6.030  0.00  0.00    +0.001 A 
ATOM     16  C   UNL     1      -3.369  10.453   5.966  0.00  0.00    +0.008 A 
ATOM     17  C   UNL     1      -2.553   9.323   6.024  0.00  0.00    -0.024 A 
ATOM     18  C   UNL     1      -1.171   9.473   6.152  0.00  0.00    +0.008 A 
ATOM     19  C   UNL     1      -0.621  10.737   6.209  0.00  0.00    +0.001 A 
ENDBRANCH  12  17
ENDBRANCH   9  13
ENDBRANCH   1   9
BRANCH   7  20
ATOM     20  C   UNL     1      -1.476   4.128  -0.221  0.00  0.00    +0.019 C 
BRANCH  20  21
ATOM     21  N   UNL     1      -0.763   3.430  -1.312  0.00  0.00    +0.390 N 
ATOM     22  H   UNL     1       0.239   3.646  -1.247  0.00  0.00    -0.081 HD
BRANCH  21  23
ATOM     23  C   UNL     1      -1.270   3.891  -2.621  0.00  0.00    -0.035 C 
BRANCH  23  24
ATOM     24  C   UNL     1      -0.385   3.336  -3.708  0.00  0.00    -0.027 A 
ATOM     25  C   UNL     1      -0.507   2.175  -4.397  0.00  0.00    +0.009 A 
ATOM     26  C   UNL     1       0.434   1.867  -5.362  0.00  0.00    +0.008 A 
ATOM     27  C   UNL     1       1.450   2.734  -5.590  0.00  0.00    +0.045 A 
ATOM     28  S   UNL     1       1.090   4.039  -4.426  0.00  0.00    -0.103 S 
ENDBRANCH  23  24
ENDBRANCH  21  23
BRANCH  21  29
ATOM     29  C   UNL     1      -0.950   1.970  -1.183  0.00  0.00    -0.046 C 
BRANCH  29  30
ATOM     30  C   UNL     1      -2.400   1.586  -1.484  0.00  0.00    +0.102 C 
ATOM     31  C   UNL     1      -2.536   0.052  -1.535  0.00  0.00    +0.032 C 
ATOM     32  C   UNL     1      -3.589  -0.272  -0.447  0.00  0.00    +0.030 C 
ATOM     33  C   UNL     1      -4.318   1.086  -0.285  0.00  0.00    +0.160 C 
ATOM     34  O   UNL     1      -3.258   2.056  -0.431  0.00  0.00    -0.378 OA
ENDBRANCH  29  30
ENDBRANCH  21  29
ENDBRANCH  20  21
ENDBRANCH   7  20
TORSDOF 9
