REMARK  Name = ZINC44549920
REMARK  13 active torsions:
REMARK  status: ('A' for Active; 'I' for Inactive)
REMARK    1  A    between atoms: C_1  and  O_2
REMARK    2  A    between atoms: O_2  and  C_3
REMARK    3  A    between atoms: C_6  and  C_11
REMARK    4  A    between atoms: C_8  and  O_9
REMARK    5  A    between atoms: O_9  and  C_10
REMARK    6  A    between atoms: C_11  and  C_12
REMARK    7  A    between atoms: C_15  and  S_18
REMARK    8  A    between atoms: S_18  and  C_19
REMARK    9  A    between atoms: C_19  and  C_20
REMARK   10  A    between atoms: C_20  and  C_22
REMARK   11  A    between atoms: C_20  and  O_30
REMARK   12  A    between atoms: C_22  and  N_23
REMARK   13  A    between atoms: N_23  and  C_24
REMARK                            x       y       z     vdW  Elec       q    Type
REMARK                         _______ _______ _______ _____ _____    ______ ____
ROOT
ATOM      1  C   UNL     1      -5.442  -2.858  -1.383  0.00  0.00    +0.156 A 
ATOM      2  N   UNL     1      -5.172  -3.939  -2.115  0.00  0.00    -0.205 NA
ATOM      3  H   UNL     1      -6.859  -2.262  -4.093  0.00  0.00    +0.191 HD
ATOM      4  C   UNL     1      -5.721  -3.818  -3.305  0.00  0.00    +0.184 A 
ATOM      5  N   UNL     1      -6.361  -2.629  -3.346  0.00  0.00    -0.254 N 
ATOM      6  N   UNL     1      -6.169  -2.034  -2.088  0.00  0.00    -0.156 NA
ENDROOT
BRANCH   1   7
ATOM      7  C   UNL     1      -4.987  -2.627   0.035  0.00  0.00    +0.113 C 
BRANCH   7  11
ATOM      8  C   UNL     1      -1.201  -0.638   0.010  0.00  0.00    +0.161 A 
ATOM      9  C   UNL     1      -2.374   0.099   0.019  0.00  0.00    +0.049 A 
ATOM     10  C   UNL     1      -3.596  -0.546   0.027  0.00  0.00    +0.008 A 
ATOM     11  C   UNL     1      -3.652  -1.928   0.026  0.00  0.00    -0.036 A 
ATOM     12  C   UNL     1      -2.485  -2.669   0.017  0.00  0.00    +0.053 A 
ATOM     13  C   UNL     1      -1.257  -2.028   0.003  0.00  0.00    +0.162 A 
BRANCH   8  15
ATOM     14  C   UNL     1      -0.017   1.425   0.010  0.00  0.00    +0.277 C 
ATOM     15  O   UNL     1       0.002  -0.004   0.002  0.00  0.00    -0.491 OA
ENDBRANCH   8  15
BRANCH  13  16
ATOM     16  O   UNL     1      -0.108  -2.756  -0.012  0.00  0.00    -0.491 OA
ATOM     17  C   UNL     1      -0.242  -4.179  -0.018  0.00  0.00    +0.277 C 
ENDBRANCH  13  16
ENDBRANCH   7  11
ENDBRANCH   1   7
BRANCH   4  18
ATOM     18  S   UNL     1      -5.633  -4.995  -4.614  0.00  0.00    -0.084 S 
BRANCH  18  19
ATOM     19  C   UNL     1      -4.641  -6.347  -3.922  0.00  0.00    +0.106 C 
BRANCH  19  20
ATOM     20  C   UNL     1      -4.485  -7.452  -4.969  0.00  0.00    +0.108 C 
BRANCH  20  21
ATOM     21  O   UNL     1      -3.729  -6.956  -6.076  0.00  0.00    -0.393 OA
ATOM     22  H   UNL     1      -2.840  -6.657  -5.843  0.00  0.00    +0.210 HD
ENDBRANCH  20  21
BRANCH  20  23
ATOM     23  C   UNL     1      -3.755  -8.644  -4.346  0.00  0.00    -0.050 C 
BRANCH  23  24
ATOM     24  N   UNL     1      -3.605  -9.705  -5.351  0.00  0.00    +0.383 N 
ATOM     25  H   UNL     1      -4.517  -9.998  -5.670  0.00  0.00    -0.085 HD
ATOM     26  H   UNL     1      -3.072  -9.355  -6.133  0.00  0.00    -0.085 HD
BRANCH  24  27
ATOM     27  C   UNL     1      -2.905 -10.850  -4.754  0.00  0.00    -0.072 C 
ATOM     28  C   UNL     1      -1.478 -10.438  -4.384  0.00  0.00    -0.016 C 
ATOM     29  C   UNL     1      -0.749 -11.631  -3.762  0.00  0.00    -0.002 C 
ATOM     30  C   UNL     1      -0.703 -12.782  -4.768  0.00  0.00    -0.000 C 
ATOM     31  C   UNL     1      -2.129 -13.194  -5.138  0.00  0.00    -0.002 C 
ATOM     32  C   UNL     1      -2.859 -12.001  -5.760  0.00  0.00    -0.016 C 
ENDBRANCH  24  27
ENDBRANCH  23  24
ENDBRANCH  20  23
ENDBRANCH  19  20
ENDBRANCH  18  19
ENDBRANCH   4  18
TORSDOF 11
