REMARK  Name = ZINC13552835
REMARK  5 active torsions:
REMARK  status: ('A' for Active; 'I' for Inactive)
REMARK    1  A    between atoms: C_6  and  C_7
REMARK    2  A    between atoms: C_7  and  C_9
REMARK    3  A    between atoms: C_11  and  C_23
REMARK    4  A    between atoms: C_17  and  C_18
REMARK    5  A    between atoms: C_17  and  O_22
REMARK                            x       y       z     vdW  Elec       q    Type
REMARK                         _______ _______ _______ _____ _____    ______ ____
ROOT
ATOM      1  C   UNL     1       0.322   1.585   0.145  0.00  0.00    +0.144 C 
ATOM      2  C   UNL     1       0.360   0.053   0.096  0.00  0.00    +0.120 C 
ATOM      3  N   UNL     1       1.032  -0.372  -1.133  0.00  0.00    -0.292 N 
ATOM      4  C   UNL     1       1.974   0.388  -1.711  0.00  0.00    +0.302 C 
ATOM      5  O   UNL     1       2.509  -0.017  -2.725  0.00  0.00    -0.253 OA
ATOM      6  N   UNL     1       2.351   1.575  -1.214  0.00  0.00    -0.264 N 
ATOM      7  C   UNL     1       1.755   2.112   0.011  0.00  0.00    +0.243 C 
ATOM      8  H   UNL     1       0.790  -1.219  -1.538  0.00  0.00    +0.151 HD
ATOM      9  H   UNL     1       3.032   2.089  -1.675  0.00  0.00    +0.153 HD
ENDROOT
BRANCH   2  10
ATOM     10  C   UNL     1       1.113  -0.471   1.291  0.00  0.00    -0.025 A 
ATOM     11  C   UNL     1       0.474  -0.597   2.510  0.00  0.00    +0.007 A 
ATOM     12  C   UNL     1       1.164  -1.078   3.607  0.00  0.00    +0.022 A 
ATOM     13  C   UNL     1       2.496  -1.433   3.485  0.00  0.00    +0.059 A 
ATOM     14  C   UNL     1       3.136  -1.306   2.264  0.00  0.00    +0.060 A 
ATOM     15  C   UNL     1       2.442  -0.830   1.166  0.00  0.00    +0.027 A 
ATOM     16 CL   UNL     1       4.807  -1.751   2.110  0.00  0.00    -0.082 Cl
ATOM     17 CL   UNL     1       3.363  -2.036   4.863  0.00  0.00    -0.082 Cl
ENDBRANCH   2  10
BRANCH   7  18
ATOM     18  C   UNL     1       1.733   3.640  -0.059  0.00  0.00    +0.436 C 
ATOM     19  F   UNL     1       1.040   4.147   1.046  0.00  0.00    -0.166 F 
ATOM     20  F   UNL     1       3.045   4.126  -0.049  0.00  0.00    -0.166 F 
ATOM     21  F   UNL     1       1.094   4.044  -1.236  0.00  0.00    -0.166 F 
ENDBRANCH   7  18
BRANCH   1  22
ATOM     22  C   UNL     1      -0.518   2.107  -0.991  0.00  0.00    +0.173 C 
ATOM     23  O   UNL     1      -0.077   2.108  -2.121  0.00  0.00    -0.292 OA
BRANCH  22  29
ATOM     24  C   UNL     1      -2.429   2.511   0.549  0.00  0.00    +0.013 A 
ATOM     25  C   UNL     1      -3.697   2.995   0.787  0.00  0.00    +0.020 A 
ATOM     26  C   UNL     1      -4.426   3.573  -0.240  0.00  0.00    +0.041 A 
ATOM     27  C   UNL     1      -3.884   3.675  -1.511  0.00  0.00    +0.020 A 
ATOM     28  C   UNL     1      -2.615   3.200  -1.763  0.00  0.00    +0.013 A 
ATOM     29  C   UNL     1      -1.873   2.615  -0.731  0.00  0.00    +0.018 A 
ATOM     30 CL   UNL     1      -6.026   4.172   0.068  0.00  0.00    -0.084 Cl
ENDBRANCH  22  29
ENDBRANCH   1  22
BRANCH   7  31
ATOM     31  O   UNL     1       2.525   1.695   1.140  0.00  0.00    -0.364 OA
ATOM     32  H   UNL     1       3.445   1.994   1.121  0.00  0.00    +0.212 HD
ENDBRANCH   7  31
TORSDOF 5
