REMARK  Name = ZINC07183336
REMARK  5 active torsions:
REMARK  status: ('A' for Active; 'I' for Inactive)
REMARK    1  A    between atoms: C_1  and  C_2
REMARK    2  A    between atoms: C_9  and  S_13
REMARK    3  A    between atoms: C_11  and  C_12
REMARK    4  A    between atoms: S_13  and  C_14
REMARK    5  A    between atoms: C_14  and  C_15
REMARK                            x       y       z     vdW  Elec       q    Type
REMARK                         _______ _______ _______ _____ _____    ______ ____
ROOT
ATOM      1  S   UNL     1      -2.654  -2.900   0.011  0.00  0.00    -0.098 S 
ENDROOT
BRANCH   1  10
ATOM      2  C   UNL     1      -1.331   2.139   0.020  0.00  0.00    +0.046 C 
ATOM      3  C   UNL     1      -0.017   1.401   0.010  0.00  0.00    -0.024 A 
ATOM      4  C   UNL     1       1.156   2.093   0.002  0.00  0.00    +0.005 A 
ATOM      5  C   UNL     1       2.380   1.430  -0.014  0.00  0.00    +0.001 A 
ATOM      6  C   UNL     1       2.438   0.068  -0.021  0.00  0.00    +0.010 A 
ATOM      7  C   UNL     1       1.249  -0.676  -0.013  0.00  0.00    +0.004 A 
ATOM      8  C   UNL     1       0.002  -0.004   0.002  0.00  0.00    +0.075 A 
ATOM      9  N   UNL     1      -1.136  -0.708   0.009  0.00  0.00    -0.240 NA
ATOM     10  C   UNL     1      -1.124  -2.026   0.002  0.00  0.00    +0.098 A 
ATOM     11  C   UNL     1       0.078  -2.749  -0.013  0.00  0.00    +0.038 A 
ATOM     12  C   UNL     1       1.268  -2.087  -0.021  0.00  0.00    -0.039 A 
ATOM     13  C   UNL     1       2.573  -2.841  -0.038  0.00  0.00    +0.044 C 
ENDBRANCH   1  10
BRANCH   1  14
ATOM     14  C   UNL     1      -3.811  -1.509   0.030  0.00  0.00    +0.152 C 
BRANCH  14  15
ATOM     15  C   UNL     1      -5.225  -2.031   0.040  0.00  0.00    +0.146 A 
ATOM     16  N   UNL     1      -5.855  -2.248  -1.101  0.00  0.00    -0.199 NA
ATOM     17  C   UNL     1      -7.102  -2.713  -1.096  0.00  0.00    +0.217 A 
ATOM     18  N   UNL     1      -7.716  -2.951   0.058  0.00  0.00    -0.181 NA
ATOM     19  C   UNL     1      -7.081  -2.727   1.203  0.00  0.00    +0.217 A 
ATOM     20  N   UNL     1      -5.832  -2.266   1.190  0.00  0.00    -0.199 NA
ATOM     21  N   UNL     1      -7.714  -2.971   2.404  0.00  0.00    -0.327 N 
ATOM     22  N   UNL     1      -7.758  -2.944  -2.288  0.00  0.00    -0.327 N 
ATOM     23  H   UNL     1      -7.250  -2.808   3.240  0.00  0.00    +0.145 HD
ATOM     24  H   UNL     1      -8.624  -3.307   2.413  0.00  0.00    +0.145 HD
ATOM     25  H   UNL     1      -8.668  -3.280  -2.283  0.00  0.00    +0.145 HD
ATOM     26  H   UNL     1      -7.309  -2.771  -3.130  0.00  0.00    +0.145 HD
ENDBRANCH  14  15
ENDBRANCH   1  14
TORSDOF 3
