REMARK  Name = ZINC10908513
REMARK  10 active torsions:
REMARK  status: ('A' for Active; 'I' for Inactive)
REMARK    1  A    between atoms: C_1  and  N_2
REMARK    2  A    between atoms: N_2  and  S_3
REMARK    3  A    between atoms: S_3  and  C_6
REMARK    4  A    between atoms: C_9  and  C_12
REMARK    5  A    between atoms: C_12  and  C_13
REMARK    6  A    between atoms: C_13  and  C_14
REMARK    7  A    between atoms: N_16  and  C_17
REMARK    8  A    between atoms: C_17  and  C_18
REMARK    9  A    between atoms: N_20  and  C_30
REMARK   10  A    between atoms: C_22  and  C_23
REMARK                            x       y       z     vdW  Elec       q    Type
REMARK                         _______ _______ _______ _____ _____    ______ ____
ROOT
ATOM      1  C   UNL     1      -3.412   3.218   9.802  0.00  0.00    +0.143 C 
ENDROOT
BRANCH   1   2
ATOM      2  C   UNL     1      -2.655   2.814  11.041  0.00  0.00    +0.015 A 
ATOM      3  C   UNL     1      -2.903   1.728  11.805  0.00  0.00    +0.120 A 
ATOM      4  N   UNL     1      -2.001   1.718  12.821  0.00  0.00    -0.239 N 
ATOM      5  N   UNL     1      -1.178   2.843  12.680  0.00  0.00    -0.166 NA
ATOM      6  C   UNL     1      -1.568   3.505  11.610  0.00  0.00    +0.098 A 
BRANCH   6   7
ATOM      7  C   UNL     1      -0.967   4.760  11.095  0.00  0.00    +0.003 A 
ATOM      8  C   UNL     1      -0.893   4.987   9.723  0.00  0.00    +0.013 A 
ATOM      9  C   UNL     1      -0.337   6.157   9.248  0.00  0.00    +0.039 A 
ATOM     10  C   UNL     1       0.156   7.102  10.134  0.00  0.00    +0.123 A 
ATOM     11  C   UNL     1       0.088   6.878  11.500  0.00  0.00    +0.039 A 
ATOM     12  C   UNL     1      -0.470   5.712  11.983  0.00  0.00    +0.013 A 
ATOM     13  F   UNL     1       0.704   8.244   9.665  0.00  0.00    -0.205 F 
ENDBRANCH   6   7
BRANCH   4  14
ATOM     14  C   UNL     1      -1.914   0.756  13.835  0.00  0.00    +0.065 A 
ATOM     15  C   UNL     1      -2.801  -0.311  13.860  0.00  0.00    +0.028 A 
ATOM     16  C   UNL     1      -2.709  -1.261  14.859  0.00  0.00    +0.002 A 
ATOM     17  C   UNL     1      -1.742  -1.143  15.840  0.00  0.00    +0.000 A 
ATOM     18  C   UNL     1      -0.859  -0.079  15.820  0.00  0.00    +0.002 A 
ATOM     19  C   UNL     1      -0.943   0.871  14.821  0.00  0.00    +0.028 A 
ENDBRANCH   4  14
ENDBRANCH   1   2
BRANCH   1  22
ATOM     20  C   UNL     1      -3.142   3.076   7.385  0.00  0.00    +0.214 C 
ATOM     21  O   UNL     1      -4.207   3.643   7.262  0.00  0.00    -0.276 OA
ATOM     22  N   UNL     1      -2.655   2.816   8.614  0.00  0.00    -0.311 N 
ATOM     23  H   UNL     1      -1.804   2.362   8.712  0.00  0.00    +0.149 HD
BRANCH  20  24
ATOM     24  C   UNL     1      -2.364   2.662   6.162  0.00  0.00    +0.100 C 
BRANCH  24  25
ATOM     25  C   UNL     1      -3.132   3.072   4.905  0.00  0.00    +0.044 C 
BRANCH  25  29
ATOM     26  C   UNL     1      -0.927   1.900   1.439  0.00  0.00    +0.105 A 
ATOM     27  C   UNL     1      -0.717   3.145   2.004  0.00  0.00    +0.029 A 
ATOM     28  C   UNL     1      -1.434   3.526   3.123  0.00  0.00    +0.005 A 
ATOM     29  C   UNL     1      -2.354   2.659   3.683  0.00  0.00    -0.047 A 
ATOM     30  C   UNL     1      -2.559   1.412   3.121  0.00  0.00    +0.005 A 
ATOM     31  C   UNL     1      -1.846   1.033   2.000  0.00  0.00    +0.029 A 
BRANCH  26  32
ATOM     32  S   UNL     1      -0.017   1.417   0.010  0.00  0.00    +0.058 S 
ATOM     33  O   UNL     1       0.002  -0.004   0.002  0.00  0.00    -0.153 OA
ATOM     34  O   UNL     1       1.172   2.195   0.003  0.00  0.00    -0.153 OA
BRANCH  32  36
ATOM     35  C   UNL     1      -1.125   3.309  -1.574  0.00  0.00    +0.127 C 
ATOM     36  N   UNL     1      -0.897   1.885  -1.312  0.00  0.00    -0.193 NA
ATOM     37  H   UNL     1      -1.263   1.218  -1.913  0.00  0.00    +0.148 HD
ENDBRANCH  32  36
ENDBRANCH  26  32
ENDBRANCH  25  29
ENDBRANCH  24  25
ENDBRANCH  20  24
ENDBRANCH   1  22
TORSDOF 9
