REMARK  Name = ZINC08863691
REMARK  5 active torsions:
REMARK  status: ('A' for Active; 'I' for Inactive)
REMARK    1  A    between atoms: C_5  and  O_7
REMARK    2  A    between atoms: O_7  and  C_8
REMARK    3  A    between atoms: C_8  and  C_9
REMARK    4  A    between atoms: C_12  and  C_14
REMARK    5  A    between atoms: C_20  and  N_23
REMARK                            x       y       z     vdW  Elec       q    Type
REMARK                         _______ _______ _______ _____ _____    ______ ____
ROOT
ATOM      1  C   UNL     1      -8.636   5.905  -0.261  0.00  0.00    +0.143 A 
ATOM      2  C   UNL     1      -9.390   4.785  -0.326  0.00  0.00    +0.049 A 
ATOM      3  C   UNL     1      -8.512   3.692  -0.262  0.00  0.00    +0.055 A 
ATOM      4  C   UNL     1      -7.252   4.207  -0.151  0.00  0.00    +0.190 A 
ATOM      5  O   UNL     1      -7.348   5.553  -0.155  0.00  0.00    -0.452 OA
ENDROOT
BRANCH   4   6
ATOM      6  C   UNL     1      -6.011   3.433  -0.051  0.00  0.00    +0.285 C 
ATOM      7  O   UNL     1      -6.050   2.216  -0.058  0.00  0.00    -0.266 OA
ATOM      8  N   UNL     1      -4.826   4.068   0.049  0.00  0.00    -0.264 N 
ATOM      9  C   UNL     1      -3.641   3.337   0.037  0.00  0.00    +0.125 A 
ATOM     10  C   UNL     1      -2.420   4.003   0.033  0.00  0.00    +0.046 A 
ATOM     11  C   UNL     1      -1.250   3.265   0.021  0.00  0.00    +0.037 A 
ATOM     12  C   UNL     1      -1.341   1.880   0.013  0.00  0.00    +0.144 A 
ATOM     13  C   UNL     1      -2.587   1.284   0.012  0.00  0.00    +0.145 A 
ATOM     14  N   UNL     1      -3.686   2.014   0.029  0.00  0.00    -0.238 NA
ATOM     15  H   UNL     1      -4.799   5.034   0.129  0.00  0.00    +0.157 HD
BRANCH  12  16
ATOM     16  N   UNL     1      -0.116   1.050  -0.000  0.00  0.00    +0.058 N 
ATOM     17  O   UNL     1       0.980   1.582  -0.004  0.00  0.00    -0.126 OA
ATOM     18  O   UNL     1      -0.203  -0.165  -0.002  0.00  0.00    -0.126 OA
ENDBRANCH  12  16
ENDBRANCH   4   6
BRANCH   1  19
ATOM     19  C   UNL     1      -9.159   7.318  -0.300  0.00  0.00    +0.303 C 
BRANCH  19  20
ATOM     20  O   UNL     1      -9.434   7.761   1.031  0.00  0.00    -0.483 OA
BRANCH  20  25
ATOM     21  C   UNL     1     -10.609  11.104   0.204  0.00  0.00    +0.004 A 
ATOM     22  C   UNL     1     -10.897  11.595   1.464  0.00  0.00    +0.001 A 
ATOM     23  C   UNL     1     -10.696  10.803   2.579  0.00  0.00    +0.019 A 
ATOM     24  C   UNL     1     -10.206   9.518   2.437  0.00  0.00    +0.059 A 
ATOM     25  C   UNL     1      -9.916   9.024   1.173  0.00  0.00    +0.135 A 
ATOM     26  C   UNL     1     -10.114   9.822   0.057  0.00  0.00    +0.047 A 
ATOM     27 BR   UNL     1      -9.930   8.437   3.963  0.00  0.00    -0.047 Br
ENDBRANCH  20  25
ENDBRANCH  19  20
ENDBRANCH   1  19
TORSDOF 5
