REMARK  Name = ZINC21255189
REMARK  7 active torsions:
REMARK  status: ('A' for Active; 'I' for Inactive)
REMARK    1  A    between atoms: C_1  and  C_2
REMARK    2  A    between atoms: C_2  and  C_3
REMARK    3  A    between atoms: C_2  and  C_4
REMARK    4  A    between atoms: C_4  and  O_5
REMARK    5  A    between atoms: O_5  and  C_6
REMARK    6  A    between atoms: C_9  and  C_12
REMARK    7  A    between atoms: C_17  and  C_27
REMARK                            x       y       z     vdW  Elec       q    Type
REMARK                         _______ _______ _______ _____ _____    ______ ____
ROOT
ATOM      1  C   UNL     1       5.741  -1.455  -2.615  0.00  0.00    +0.032 C 
ATOM      2  C   UNL     1       5.467  -1.199  -1.134  0.00  0.00    +0.059 C 
ATOM      3  C   UNL     1       3.995  -1.425  -0.833  0.00  0.00    +0.017 C 
ATOM      4  C   UNL     1       3.294  -2.350  -1.511  0.00  0.00    +0.036 C 
ATOM      5  C   UNL     1       1.836  -2.682  -1.308  0.00  0.00    +0.137 C 
ATOM      6  N   UNL     1       1.248  -2.106  -0.117  0.00  0.00    -0.331 N 
ATOM      7  C   UNL     1       1.122  -0.725   0.026  0.00  0.00    +0.049 A 
ATOM      8  C   UNL     1      -0.118  -0.108   0.037  0.00  0.00    +0.025 A 
ATOM      9  C   UNL     1      -0.190   1.273   0.078  0.00  0.00    +0.002 A 
ATOM     10  C   UNL     1       0.965   2.034   0.106  0.00  0.00    +0.002 A 
ATOM     11  C   UNL     1       2.206   1.419   0.112  0.00  0.00    +0.025 A 
ATOM     12  C   UNL     1       2.279   0.037   0.089  0.00  0.00    +0.052 A 
ATOM     13  N   UNL     1       3.488  -0.645   0.155  0.00  0.00    -0.316 N 
ATOM     14  C   UNL     1       3.918  -3.109  -2.530  0.00  0.00    +0.163 C 
ATOM     15  O   UNL     1       3.267  -3.954  -3.112  0.00  0.00    -0.292 OA
ATOM     16  C   UNL     1       5.352  -2.907  -2.918  0.00  0.00    +0.088 C 
ATOM     17  H   UNL     1       0.891  -2.761   0.692  0.00  0.00    +0.147 HD
ATOM     18  H   UNL     1       4.045  -0.516   1.095  0.00  0.00    +0.152 HD
ENDROOT
BRANCH   5  19
ATOM     19  C   UNL     1       1.064  -2.193  -2.506  0.00  0.00    -0.004 A 
ATOM     20  C   UNL     1       1.629  -1.267  -3.362  0.00  0.00    +0.007 A 
ATOM     21  C   UNL     1       0.922  -0.822  -4.463  0.00  0.00    +0.000 A 
ATOM     22  C   UNL     1      -0.354  -1.296  -4.704  0.00  0.00    +0.001 A 
ATOM     23  C   UNL     1      -0.922  -2.218  -3.846  0.00  0.00    +0.020 A 
ATOM     24  C   UNL     1      -0.214  -2.667  -2.746  0.00  0.00    +0.046 A 
ATOM     25 CL   UNL     1      -0.927  -3.825  -1.667  0.00  0.00    -0.083 Cl
ENDBRANCH   5  19
BRANCH   1  29
ATOM     26  C   UNL     1       9.890  -0.863  -3.448  0.00  0.00    +0.121 A 
ATOM     27  C   UNL     1       8.933  -0.118  -4.122  0.00  0.00    +0.046 A 
ATOM     28  C   UNL     1       7.592  -0.311  -3.851  0.00  0.00    +0.007 A 
ATOM     29  C   UNL     1       7.204  -1.246  -2.909  0.00  0.00    -0.043 A 
ATOM     30  C   UNL     1       8.156  -1.985  -2.232  0.00  0.00    +0.007 A 
ATOM     31  C   UNL     1       9.498  -1.800  -2.503  0.00  0.00    +0.046 A 
BRANCH  26  32
ATOM     32  O   UNL     1      11.210  -0.675  -3.713  0.00  0.00    -0.492 OA
BRANCH  32  33
ATOM     33  C   UNL     1      12.139  -1.476  -2.981  0.00  0.00    +0.232 C 
BRANCH  33  35
ATOM     34  C   UNL     1      13.877   0.319  -3.016  0.00  0.00    +0.010 C 
ATOM     35  C   UNL     1      13.565  -1.126  -3.412  0.00  0.00    +0.020 C 
ATOM     36  C   UNL     1      14.552  -2.069  -2.722  0.00  0.00    +0.010 C 
ENDBRANCH  33  35
ENDBRANCH  32  33
ENDBRANCH  26  32
ENDBRANCH   1  29
TORSDOF 5
