REMARK  Name = ZINC13399320
REMARK  4 active torsions:
REMARK  status: ('A' for Active; 'I' for Inactive)
REMARK    1  A    between atoms: C_9  and  C_11
REMARK    2  A    between atoms: C_16  and  C_27
REMARK    3  A    between atoms: C_18  and  N_22
REMARK    4  A    between atoms: C_20  and  O_21
REMARK                            x       y       z     vdW  Elec       q    Type
REMARK                         _______ _______ _______ _____ _____    ______ ____
ROOT
ATOM      1  C   UNL     1      -0.013   1.086   0.008  0.00  0.00    +0.025 C 
ATOM      2  C   UNL     1       1.016   0.075  -0.457  0.00  0.00    +0.162 C 
ATOM      3  O   UNL     1       0.962  -1.077  -0.098  0.00  0.00    -0.292 OA
ATOM      4  C   UNL     1       2.114   0.550  -1.382  0.00  0.00    +0.093 C 
ATOM      5  C   UNL     1       1.481   1.219  -2.605  0.00  0.00    +0.094 C 
ATOM      6  C   UNL     1       0.016   3.296  -1.354  0.00  0.00    +0.185 C 
ATOM      7  C   UNL     1      -0.461   1.868  -1.210  0.00  0.00    +0.124 C 
ENDROOT
BRANCH   1  16
ATOM      8  C   UNL     1       1.097  -0.133   4.703  0.00  0.00    +0.000 A 
ATOM      9  C   UNL     1       0.876  -0.894   3.570  0.00  0.00    +0.000 A 
ATOM     10  C   UNL     1       0.280  -0.323   2.464  0.00  0.00    +0.002 A 
ATOM     11  C   UNL     1      -0.099   1.012   2.481  0.00  0.00    -0.054 A 
ATOM     12  C   UNL     1       0.125   1.770   3.610  0.00  0.00    -0.047 A 
ATOM     13  C   UNL     1       0.722   1.195   4.722  0.00  0.00    +0.004 A 
ATOM     14  C   UNL     1      -0.259   3.227   3.673  0.00  0.00    +0.016 C 
ATOM     15  C   UNL     1      -1.248   3.554   2.554  0.00  0.00    -0.077 C 
ATOM     16  C   UNL     1      -0.749   1.589   1.252  0.00  0.00    -0.003 C 
ATOM     17  N   UNL     1      -0.696   3.057   1.280  0.00  0.00    +0.387 N 
ATOM     18  H   UNL     1       0.279   3.365   1.189  0.00  0.00    -0.085 HD
ATOM     19  H   UNL     1      -1.248   3.433   0.500  0.00  0.00    -0.085 HD
ENDBRANCH   1  16
BRANCH   6  20
ATOM     20  N   UNL     1      -0.419   3.829  -2.648  0.00  0.00    -0.241 N 
ATOM     21  C   UNL     1      -0.531   3.150  -3.803  0.00  0.00    +0.219 A 
ATOM     22  N   UNL     1      -0.949   3.981  -4.723  0.00  0.00    -0.223 NA
ATOM     23  C   UNL     1      -1.114   5.194  -4.196  0.00  0.00    +0.245 A 
ATOM     24  N   UNL     1      -0.807   5.150  -2.926  0.00  0.00    -0.158 NA
ENDBRANCH   6  20
BRANCH   5  25
ATOM     25  C   UNL     1       2.567   1.733  -3.514  0.00  0.00    +0.111 A 
ATOM     26  C   UNL     1       2.768   1.358  -4.790  0.00  0.00    +0.045 A 
ATOM     27  C   UNL     1       3.885   2.086  -5.261  0.00  0.00    +0.041 A 
ATOM     28  C   UNL     1       4.304   2.858  -4.242  0.00  0.00    +0.195 A 
ATOM     29  O   UNL     1       3.502   2.640  -3.187  0.00  0.00    -0.467 OA
ENDBRANCH   5  25
BRANCH   7  31
ATOM     30  H   UNL     1      -1.388   0.425  -1.776  0.00  0.00    +0.292 HD
ATOM     31  O   UNL     1      -1.179   1.366  -2.041  0.00  0.00    -0.509 OA
ENDBRANCH   7  31
TORSDOF 4
