REMARK  Name = ZINC30963193
REMARK  8 active torsions:
REMARK  status: ('A' for Active; 'I' for Inactive)
REMARK    1  A    between atoms: C_1  and  C_2
REMARK    2  A    between atoms: C_5  and  S_9
REMARK    3  A    between atoms: C_7  and  C_8
REMARK    4  A    between atoms: S_9  and  N_12
REMARK    5  A    between atoms: C_18  and  C_20
REMARK    6  A    between atoms: C_20  and  C_22
REMARK    7  A    between atoms: C_20  and  N_23
REMARK    8  A    between atoms: C_24  and  C_26
REMARK                            x       y       z     vdW  Elec       q    Type
REMARK                         _______ _______ _______ _____ _____    ______ ____
ROOT
ATOM      1  N   UNL     1      -0.971  11.414  -3.311  0.00  0.00    -0.174 NA
ATOM      2  C   UNL     1      -1.286  10.465  -4.388  0.00  0.00    +0.128 C 
ATOM      3  C   UNL     1      -2.486   9.614  -3.956  0.00  0.00    +0.125 C 
ATOM      4  N   UNL     1      -2.231   9.093  -2.606  0.00  0.00    -0.297 N 
ATOM      5  C   UNL     1      -1.921  10.042  -1.527  0.00  0.00    +0.125 C 
ATOM      6  C   UNL     1      -0.716  10.893  -1.961  0.00  0.00    +0.128 C 
ATOM      7  C   UNL     1      -2.285   7.769  -2.359  0.00  0.00    +0.236 C 
ATOM      8  O   UNL     1      -2.468   6.990  -3.270  0.00  0.00    -0.274 OA
ENDROOT
BRANCH   1   9
ATOM      9  S   UNL     1      -0.906  13.041  -3.614  0.00  0.00    +0.061 S 
ATOM     10  O   UNL     1      -0.073  13.607  -2.611  0.00  0.00    -0.153 OA
ATOM     11  O   UNL     1      -0.634  13.185  -5.001  0.00  0.00    -0.153 OA
BRANCH   9  16
ATOM     12  C   UNL     1      -6.446  15.248  -2.700  0.00  0.00    +0.044 C 
ATOM     13  C   UNL     1      -5.062  14.697  -2.929  0.00  0.00    -0.047 A 
ATOM     14  C   UNL     1      -4.698  14.242  -4.182  0.00  0.00    +0.005 A 
ATOM     15  C   UNL     1      -3.427  13.741  -4.392  0.00  0.00    +0.029 A 
ATOM     16  C   UNL     1      -2.524  13.685  -3.347  0.00  0.00    +0.106 A 
ATOM     17  C   UNL     1      -2.888  14.141  -2.094  0.00  0.00    +0.032 A 
ATOM     18  C   UNL     1      -4.158  14.647  -1.885  0.00  0.00    -0.046 A 
ATOM     19  C   UNL     1      -4.555  15.144  -0.519  0.00  0.00    +0.044 C 
ENDBRANCH   9  16
ENDBRANCH   1   9
BRANCH   7  20
ATOM     20  C   UNL     1      -2.117   7.257  -0.952  0.00  0.00    +0.156 C 
ATOM     21  C   UNL     1      -3.458   7.330  -0.219  0.00  0.00    +0.038 C 
BRANCH  20  22
ATOM     22  N   UNL     1      -1.657   5.867  -0.990  0.00  0.00    -0.304 N 
ATOM     23  C   UNL     1      -0.970   5.356   0.051  0.00  0.00    +0.220 C 
ATOM     24  O   UNL     1      -0.732   6.047   1.019  0.00  0.00    -0.275 OA
ATOM     25  H   UNL     1      -1.872   5.240  -1.867  0.00  0.00    +0.149 HD
BRANCH  23  26
ATOM     26  C   UNL     1      -0.496   3.926   0.012  0.00  0.00    +0.048 C 
ATOM     27  C   UNL     1       0.441   3.731  -1.181  0.00  0.00    +0.019 C 
ATOM     28  C   UNL     1       0.922   2.279  -1.220  0.00  0.00    -0.009 C 
ATOM     29  C   UNL     1       1.670   1.954   0.074  0.00  0.00    +0.007 C 
ATOM     30  C   UNL     1       0.733   2.149   1.268  0.00  0.00    -0.009 C 
ATOM     31  C   UNL     1       0.252   3.601   1.307  0.00  0.00    +0.019 C 
ATOM     32  C   UNL     1      -0.472   1.216   1.127  0.00  0.00    +0.007 C 
ATOM     33  C   UNL     1      -1.220   1.541  -0.168  0.00  0.00    -0.009 C 
ATOM     34  C   UNL     1      -0.283   1.347  -1.361  0.00  0.00    +0.007 C 
ATOM     35  C   UNL     1      -1.701   2.993  -0.128  0.00  0.00    +0.019 C 
ENDBRANCH  23  26
ENDBRANCH  20  22
ENDBRANCH   7  20
TORSDOF 5
