REMARK  Name = ZINC14461013
REMARK  6 active torsions:
REMARK  status: ('A' for Active; 'I' for Inactive)
REMARK    1  A    between atoms: C_4  and  C_7
REMARK    2  A    between atoms: C_7  and  C_8
REMARK    3  A    between atoms: C_8  and  N_9
REMARK    4  A    between atoms: C_10  and  C_12
REMARK    5  A    between atoms: C_19  and  C_28
REMARK    6  A    between atoms: C_33  and  O_34
REMARK                            x       y       z     vdW  Elec       q    Type
REMARK                         _______ _______ _______ _____ _____    ______ ____
ROOT
ATOM      1  C   UNL     1       2.045   4.885   1.673  0.00  0.00    +0.058 A 
ATOM      2  C   UNL     1       1.797   6.163   1.172  0.00  0.00    +0.015 A 
ATOM      3  C   UNL     1       0.610   6.421   0.522  0.00  0.00    +0.001 A 
ATOM      4  C   UNL     1      -0.332   5.421   0.367  0.00  0.00    +0.006 A 
ATOM      5  C   UNL     1      -0.104   4.144   0.860  0.00  0.00    -0.019 A 
ATOM      6  C   UNL     1       1.083   3.868   1.513  0.00  0.00    +0.044 A 
ATOM      7  N   UNL     1       1.372   2.612   2.026  0.00  0.00    -0.336 N 
ATOM      8  C   UNL     1       0.156   1.884   2.392  0.00  0.00    +0.108 C 
ATOM      9  C   UNL     1      -0.758   1.726   1.182  0.00  0.00    +0.029 C 
ATOM     10  C   UNL     1      -1.182   3.113   0.651  0.00  0.00    +0.049 C 
ATOM     11  C   UNL     1      -1.331   2.885  -0.845  0.00  0.00    -0.023 C 
ATOM     12  C   UNL     1      -0.653   1.829  -1.219  0.00  0.00    -0.030 C 
ATOM     13  C   UNL     1       0.049   1.199  -0.030  0.00  0.00    +0.033 C 
ATOM     14  H   UNL     1       1.932   2.078   1.379  0.00  0.00    +0.147 HD
ENDROOT
BRANCH   8  15
ATOM     15  C   UNL     1      -0.580   2.646   3.464  0.00  0.00    +0.015 A 
ATOM     16  C   UNL     1      -1.948   2.817   3.375  0.00  0.00    +0.024 A 
ATOM     17  C   UNL     1      -2.624   3.513   4.361  0.00  0.00    +0.018 A 
ATOM     18  C   UNL     1      -1.931   4.047   5.433  0.00  0.00    +0.019 A 
ATOM     19  C   UNL     1      -0.563   3.883   5.522  0.00  0.00    +0.047 A 
ATOM     20  C   UNL     1       0.117   3.181   4.537  0.00  0.00    +0.122 A 
ATOM     21 BR   UNL     1      -4.498   3.740   4.239  0.00  0.00    -0.050 Br
BRANCH  20  22
ATOM     22  O   UNL     1       1.464   3.019   4.624  0.00  0.00    -0.506 OA
ATOM     23  H   UNL     1       1.973   3.722   4.197  0.00  0.00    +0.292 HD
ENDBRANCH  20  22
ENDBRANCH   8  15
BRANCH   1  25
ATOM     24  N   UNL     1       4.232   5.572   2.523  0.00  0.00    -0.311 N 
ATOM     25  C   UNL     1       3.312   4.598   2.370  0.00  0.00    +0.246 C 
ATOM     26  O   UNL     1       3.528   3.484   2.807  0.00  0.00    -0.270 OA
ATOM     27  H   UNL     1       4.060   6.460   2.175  0.00  0.00    +0.149 HD
BRANCH  24  28
ATOM     28  C   UNL     1       5.491   5.287   3.215  0.00  0.00    +0.109 C 
BRANCH  28  29
ATOM     29  C   UNL     1       6.351   6.553   3.252  0.00  0.00    +0.054 C 
BRANCH  29  33
ATOM     30  C   UNL     1      10.023   5.723   5.271  0.00  0.00    +0.000 A 
ATOM     31  C   UNL     1       9.931   5.546   3.903  0.00  0.00    +0.000 A 
ATOM     32  C   UNL     1       8.742   5.815   3.249  0.00  0.00    +0.004 A 
ATOM     33  C   UNL     1       7.646   6.260   3.964  0.00  0.00    -0.046 A 
ATOM     34  C   UNL     1       7.740   6.442   5.331  0.00  0.00    +0.004 A 
ATOM     35  C   UNL     1       8.926   6.168   5.985  0.00  0.00    +0.000 A 
ENDBRANCH  29  33
ENDBRANCH  28  29
ENDBRANCH  24  28
ENDBRANCH   1  25
TORSDOF 6
