REMARK  Name = ZINC13776895
REMARK  10 active torsions:
REMARK  status: ('A' for Active; 'I' for Inactive)
REMARK    1  A    between atoms: C_1  and  C_2
REMARK    2  A    between atoms: C_2  and  O_3
REMARK    3  A    between atoms: O_3  and  C_4
REMARK    4  A    between atoms: C_9  and  N_12
REMARK    5  A    between atoms: N_15  and  C_16
REMARK    6  A    between atoms: C_16  and  C_17
REMARK    7  A    between atoms: C_17  and  N_18
REMARK    8  A    between atoms: N_21  and  C_24
REMARK    9  A    between atoms: C_31  and  O_34
REMARK   10  A    between atoms: C_32  and  O_33
REMARK                            x       y       z     vdW  Elec       q    Type
REMARK                         _______ _______ _______ _____ _____    ______ ____
ROOT
ATOM      1  N   UNL     1      -6.070  -3.754   2.196  0.00  0.00    -0.275 NA
ATOM      2  C   UNL     1      -7.245  -4.261   1.953  0.00  0.00    +0.132 C 
ATOM      3  C   UNL     1      -8.374  -4.756   2.790  0.00  0.00    +0.132 C 
ATOM      4  N   UNL     1      -8.638  -4.880   4.060  0.00  0.00    -0.277 NA
ATOM      5  C   UNL     1      -9.055  -5.042   1.512  0.00  0.00    +0.188 C 
ATOM      6  C   UNL     1      -8.014  -4.578   0.733  0.00  0.00    +0.188 C 
ENDROOT
BRANCH   1  12
ATOM      7  C   UNL     1      -1.580  -1.774  -0.038  0.00  0.00    +0.403 C 
ATOM      8  O   UNL     1      -0.604  -2.497  -0.065  0.00  0.00    -0.226 OA
ATOM      9  N   UNL     1      -2.816  -2.310  -0.019  0.00  0.00    -0.267 N 
ATOM     10  C   UNL     1      -4.006  -1.449   0.008  0.00  0.00    +0.113 C 
ATOM     11  C   UNL     1      -4.889  -1.865   1.188  0.00  0.00    +0.046 C 
ATOM     12  C   UNL     1      -5.198  -3.360   1.087  0.00  0.00    +0.109 C 
ATOM     13  C   UNL     1      -3.894  -4.158   1.155  0.00  0.00    +0.046 C 
ATOM     14  C   UNL     1      -3.000  -3.768  -0.031  0.00  0.00    +0.113 C 
BRANCH   7  15
ATOM     15  O   UNL     1      -1.427  -0.436  -0.026  0.00  0.00    -0.451 OA
BRANCH  15  17
ATOM     16  C   UNL     1      -0.114   1.593  -0.030  0.00  0.00    +0.048 C 
ATOM     17  C   UNL     1      -0.088   0.064  -0.047  0.00  0.00    +0.230 C 
ENDBRANCH  15  17
ENDBRANCH   7  15
ENDBRANCH   1  12
BRANCH   6  18
ATOM     18  O   UNL     1      -7.790  -4.462  -0.598  0.00  0.00    -0.502 OA
ATOM     19  H   UNL     1      -8.522  -4.772  -1.148  0.00  0.00    +0.292 HD
ENDBRANCH   6  18
BRANCH   5  20
ATOM     20  O   UNL     1     -10.268  -5.565   1.211  0.00  0.00    -0.502 OA
ATOM     21  H   UNL     1     -10.442  -5.634   0.263  0.00  0.00    +0.292 HD
ENDBRANCH   5  20
BRANCH   4  22
ATOM     22  C   UNL     1      -7.651  -4.459   5.057  0.00  0.00    +0.157 C 
BRANCH  22  23
ATOM     23  C   UNL     1      -8.207  -3.280   5.859  0.00  0.00    +0.107 C 
BRANCH  23  24
ATOM     24  N   UNL     1      -7.217  -2.859   6.859  0.00  0.00    -0.298 NA
ATOM     25  C   UNL     1      -6.015  -2.315   6.213  0.00  0.00    +0.103 C 
ATOM     26  C   UNL     1      -4.941  -2.057   7.276  0.00  0.00    +0.120 C 
ATOM     27  N   UNL     1      -5.519  -1.207   8.328  0.00  0.00    -0.327 N 
ATOM     28  C   UNL     1      -6.798  -1.617   8.928  0.00  0.00    +0.120 C 
ATOM     29  C   UNL     1      -7.799  -1.893   7.801  0.00  0.00    +0.103 C 
BRANCH  27  30
ATOM     30  C   UNL     1      -4.871  -0.043   8.746  0.00  0.00    +0.031 A 
ATOM     31  C   UNL     1      -5.485   0.805   9.659  0.00  0.00    +0.023 A 
ATOM     32  C   UNL     1      -4.842   1.956  10.072  0.00  0.00    +0.003 A 
ATOM     33  C   UNL     1      -3.588   2.265   9.577  0.00  0.00    +0.020 A 
ATOM     34  C   UNL     1      -2.974   1.422   8.667  0.00  0.00    +0.043 A 
ATOM     35  C   UNL     1      -3.610   0.266   8.255  0.00  0.00    +0.043 A 
ATOM     36 CL   UNL     1      -1.400   1.814   8.048  0.00  0.00    -0.083 Cl
ENDBRANCH  27  30
ENDBRANCH  23  24
ENDBRANCH  22  23
ENDBRANCH   4  22
TORSDOF 9
