REMARK  Name = ZINC25443643
REMARK  12 active torsions:
REMARK  status: ('A' for Active; 'I' for Inactive)
REMARK    1  A    between atoms: C_1  and  C_2
REMARK    2  A    between atoms: C_2  and  C_3
REMARK    3  A    between atoms: C_2  and  O_4
REMARK    4  A    between atoms: O_4  and  C_5
REMARK    5  A    between atoms: C_8  and  C_11
REMARK    6  A    between atoms: N_13  and  C_14
REMARK    7  A    between atoms: C_14  and  C_15
REMARK    8  A    between atoms: N_17  and  C_18
REMARK    9  A    between atoms: C_18  and  C_19
REMARK   10  A    between atoms: C_19  and  N_26
REMARK   11  A    between atoms: N_26  and  C_27
REMARK   12  A    between atoms: N_26  and  C_28
REMARK                            x       y       z     vdW  Elec       q    Type
REMARK                         _______ _______ _______ _____ _____    ______ ____
ROOT
ATOM      1  C   UNL     1       3.304  -3.611   0.311  0.00  0.00    +0.230 C 
ATOM      2  O   UNL     1       3.598  -2.611  -0.309  0.00  0.00    -0.274 OA
ATOM      3  N   UNL     1       4.115  -4.687   0.276  0.00  0.00    -0.315 N 
ATOM      4  H   UNL     1       3.848  -5.594   0.839  0.00  0.00    +0.149 HD
ENDROOT
BRANCH   1   5
ATOM      5  C   UNL     1       2.033  -3.650   1.119  0.00  0.00    +0.200 C 
BRANCH   5   8
ATOM      6  C   UNL     1       0.167  -2.172   1.636  0.00  0.00    +0.244 C 
ATOM      7  O   UNL     1      -0.308  -3.058   2.319  0.00  0.00    -0.270 OA
ATOM      8  N   UNL     1       1.335  -2.368   0.994  0.00  0.00    -0.303 N 
ATOM      9  H   UNL     1       1.765  -1.566   0.376  0.00  0.00    +0.150 HD
BRANCH   6  13
ATOM     10  C   UNL     1      -1.856   1.545   1.274  0.00  0.00    +0.121 A 
ATOM     11  C   UNL     1      -2.401   0.532   2.055  0.00  0.00    +0.046 A 
ATOM     12  C   UNL     1      -1.748  -0.674   2.175  0.00  0.00    +0.016 A 
ATOM     13  C   UNL     1      -0.537  -0.880   1.510  0.00  0.00    +0.037 A 
ATOM     14  C   UNL     1       0.008   0.141   0.726  0.00  0.00    +0.016 A 
ATOM     15  C   UNL     1      -0.651   1.344   0.611  0.00  0.00    +0.046 A 
BRANCH  10  16
ATOM     16  O   UNL     1      -2.503   2.732   1.158  0.00  0.00    -0.489 OA
BRANCH  16  18
ATOM     17  C   UNL     1      -2.907   4.756  -0.100  0.00  0.00    +0.051 C 
ATOM     18  C   UNL     1      -1.863   3.747   0.382  0.00  0.00    +0.167 C 
ATOM     19  C   UNL     1      -0.819   4.464   1.240  0.00  0.00    +0.051 C 
ENDBRANCH  16  18
ENDBRANCH  10  16
ENDBRANCH   6  13
ENDBRANCH   5   8
ENDBRANCH   1   5
BRANCH   3  20
ATOM     20  C   UNL     1       5.350  -4.649  -0.510  0.00  0.00    +0.092 C 
BRANCH  20  21
ATOM     21  C   UNL     1       6.054  -6.005  -0.419  0.00  0.00    -0.050 C 
ATOM     22  C   UNL     1       7.545  -5.799  -0.385  0.00  0.00    -0.010 C 
ATOM     23  C   UNL     1       7.973  -4.479  -1.054  0.00  0.00    -0.001 C 
ATOM     24  C   UNL     1       7.207  -4.195  -2.360  0.00  0.00    -0.000 C 
ATOM     25  C   UNL     1       7.037  -5.426  -3.208  0.00  0.00    -0.000 C 
ATOM     26  C   UNL     1       5.671  -6.063  -2.881  0.00  0.00    -0.001 C 
ATOM     27  C   UNL     1       5.705  -6.853  -1.659  0.00  0.00    -0.010 C 
BRANCH  21  28
ATOM     28  N   UNL     1       5.620  -6.706   0.796  0.00  0.00    +0.381 N 
ATOM     29  C   UNL     1       6.223  -8.043   0.876  0.00  0.00    -0.096 C 
ATOM     30  C   UNL     1       5.929  -5.918   1.997  0.00  0.00    -0.096 C 
ATOM     31  H   UNL     1       4.529  -6.829   0.744  0.00  0.00    -0.082 HD
ENDBRANCH  21  28
ENDBRANCH  20  21
ENDBRANCH   3  20
TORSDOF 8
