REMARK  Name = ZINC63686450
REMARK  6 active torsions:
REMARK  status: ('A' for Active; 'I' for Inactive)
REMARK    1  A    between atoms: C_1  and  O_2
REMARK    2  A    between atoms: O_2  and  C_3
REMARK    3  A    between atoms: C_7  and  C_9
REMARK    4  A    between atoms: C_12  and  S_16
REMARK    5  A    between atoms: S_16  and  C_17
REMARK    6  A    between atoms: C_17  and  C_18
REMARK                            x       y       z     vdW  Elec       q    Type
REMARK                         _______ _______ _______ _____ _____    ______ ____
ROOT
ATOM      1  C   UNL     1       1.389  -4.130   2.211  0.00  0.00    +0.199 C 
ATOM      2  N   UNL     1       2.690  -4.568   2.775  0.00  0.00    -0.261 NA
ATOM      3  C   UNL     1       3.483  -4.793   1.540  0.00  0.00    +0.254 C 
ATOM      4  N   UNL     1       2.484  -5.053   0.496  0.00  0.00    -0.184 NA
ATOM      5  N   UNL     1       1.355  -4.696   0.857  0.00  0.00    -0.290 N 
ATOM      6  H   UNL     1       3.102  -3.841   3.341  0.00  0.00    +0.127 HD
ATOM      7  H   UNL     1       0.553  -4.779   0.317  0.00  0.00    +0.184 HD
ENDROOT
BRANCH   1  12
ATOM      8  C   UNL     1       2.162  -0.539   1.323  0.00  0.00    +0.120 A 
ATOM      9  C   UNL     1       1.193   0.138   2.050  0.00  0.00    +0.045 A 
ATOM     10  C   UNL     1       0.293  -0.568   2.825  0.00  0.00    +0.004 A 
ATOM     11  C   UNL     1       0.357  -1.948   2.876  0.00  0.00    +0.007 A 
ATOM     12  C   UNL     1       1.321  -2.625   2.153  0.00  0.00    -0.006 A 
ATOM     13  C   UNL     1       2.220  -1.924   1.372  0.00  0.00    +0.052 A 
BRANCH   8  15
ATOM     14  C   UNL     1       2.929   1.577   0.558  0.00  0.00    +0.277 C 
ATOM     15  O   UNL     1       3.048   0.153   0.560  0.00  0.00    -0.495 OA
ENDBRANCH   8  15
ENDBRANCH   1  12
BRANCH   3  16
ATOM     16  S   UNL     1       4.575  -6.228   1.744  0.00  0.00    -0.111 S 
BRANCH  16  17
ATOM     17  C   UNL     1       3.437  -7.602   2.072  0.00  0.00    +0.125 C 
BRANCH  17  18
ATOM     18  C   UNL     1       4.225  -8.872   2.264  0.00  0.00    +0.030 A 
ATOM     19  N   UNL     1       4.763  -9.475   1.176  0.00  0.00    -0.356 N 
ATOM     20  C   UNL     1       5.494 -10.638   1.282  0.00  0.00    +0.069 A 
ATOM     21  C   UNL     1       5.691 -11.219   2.547  0.00  0.00    +0.046 A 
ATOM     22  C   UNL     1       6.428 -12.396   2.668  0.00  0.00    +0.014 A 
ATOM     23  C   UNL     1       6.957 -12.982   1.551  0.00  0.00    +0.002 A 
ATOM     24  C   UNL     1       6.767 -12.414   0.300  0.00  0.00    +0.022 A 
ATOM     25  C   UNL     1       6.041 -11.250   0.158  0.00  0.00    +0.065 A 
ATOM     26 CL   UNL     1       5.811 -10.552  -1.415  0.00  0.00    -0.081 Cl
ATOM     27  C   UNL     1       5.103 -10.555   3.724  0.00  0.00    +0.190 A 
ATOM     28  O   UNL     1       5.244 -11.017   4.845  0.00  0.00    -0.287 OA
ATOM     29  C   UNL     1       4.373  -9.362   3.512  0.00  0.00    +0.073 A 
ATOM     30  H   UNL     1       4.630  -9.078   0.301  0.00  0.00    +0.166 HD
ENDBRANCH  17  18
ENDBRANCH  16  17
ENDBRANCH   3  16
TORSDOF 5
