REMARK  Name = ZINC38668905
REMARK  6 active torsions:
REMARK  status: ('A' for Active; 'I' for Inactive)
REMARK    1  A    between atoms: C_5  and  C_7
REMARK    2  A    between atoms: C_12  and  C_15
REMARK    3  A    between atoms: C_15  and  C_16
REMARK    4  A    between atoms: C_16  and  N_17
REMARK    5  A    between atoms: N_17  and  S_18
REMARK    6  A    between atoms: S_18  and  C_21
REMARK                            x       y       z     vdW  Elec       q    Type
REMARK                         _______ _______ _______ _____ _____    ______ ____
ROOT
ATOM      1  C   UNL     1       0.423  -1.439  -0.183  0.00  0.00    +0.186 A 
ATOM      2  N   UNL     1       1.620  -2.030  -0.295  0.00  0.00    -0.200 NA
ATOM      3  C   UNL     1       1.459  -3.323  -0.336  0.00  0.00    +0.196 A 
ATOM      4  N   UNL     1       0.134  -3.627  -0.252  0.00  0.00    -0.210 N 
ATOM      5  N   UNL     1      -0.508  -2.365  -0.148  0.00  0.00    -0.144 NA
ATOM      6  C   UNL     1      -0.208  -4.957  -0.282  0.00  0.00    +0.054 A 
ATOM      7  C   UNL     1       0.729  -5.901  -0.390  0.00  0.00    +0.072 A 
ATOM      8  S   UNL     1       2.222  -4.923  -0.459  0.00  0.00    -0.056 S 
ENDROOT
BRANCH   1  13
ATOM      9  C   UNL     1      -1.322   1.879   0.089  0.00  0.00    +0.001 A 
ATOM     10  C   UNL     1      -0.252   2.754   0.041  0.00  0.00    +0.003 A 
ATOM     11  C   UNL     1       1.038   2.272  -0.079  0.00  0.00    +0.039 A 
ATOM     12  C   UNL     1       1.265   0.910  -0.152  0.00  0.00    +0.134 A 
ATOM     13  C   UNL     1       0.188   0.023  -0.105  0.00  0.00    +0.056 A 
ATOM     14  C   UNL     1      -1.109   0.518   0.017  0.00  0.00    +0.014 A 
ATOM     15  F   UNL     1       2.525   0.438  -0.270  0.00  0.00    -0.205 F 
ENDBRANCH   1  13
BRANCH   6  16
ATOM     16  C   UNL     1      -1.659  -5.354  -0.193  0.00  0.00    +0.073 C 
BRANCH  16  17
ATOM     17  C   UNL     1      -2.078  -5.427   1.277  0.00  0.00    +0.112 C 
BRANCH  17  18
ATOM     18  N   UNL     1      -3.488  -5.814   1.365  0.00  0.00    -0.190 NA
ATOM     19  H   UNL     1      -4.056  -5.760   0.579  0.00  0.00    +0.148 HD
BRANCH  18  20
ATOM     20  S   UNL     1      -4.114  -6.343   2.803  0.00  0.00    +0.059 S 
ATOM     21  O   UNL     1      -5.493  -6.603   2.576  0.00  0.00    -0.153 OA
ATOM     22  O   UNL     1      -3.223  -7.336   3.293  0.00  0.00    -0.153 OA
BRANCH  20  23
ATOM     23  C   UNL     1      -4.035  -4.994   3.934  0.00  0.00    +0.119 A 
ATOM     24  C   UNL     1      -3.237  -5.080   5.059  0.00  0.00    +0.029 A 
ATOM     25  C   UNL     1      -3.175  -4.022   5.945  0.00  0.00    +0.002 A 
ATOM     26  C   UNL     1      -3.911  -2.876   5.707  0.00  0.00    +0.001 A 
ATOM     27  C   UNL     1      -4.710  -2.789   4.583  0.00  0.00    +0.017 A 
ATOM     28  C   UNL     1      -4.768  -3.846   3.692  0.00  0.00    +0.044 A 
ATOM     29 BR   UNL     1      -5.855  -3.724   2.150  0.00  0.00    -0.048 Br
ENDBRANCH  20  23
ENDBRANCH  18  20
ENDBRANCH  17  18
ENDBRANCH  16  17
ENDBRANCH   6  16
TORSDOF 6
