REMARK  Name = ZINC17045861
REMARK  9 active torsions:
REMARK  status: ('A' for Active; 'I' for Inactive)
REMARK    1  A    between atoms: C_4  and  C_7
REMARK    2  A    between atoms: C_7  and  O_8
REMARK    3  A    between atoms: O_8  and  C_9
REMARK    4  A    between atoms: C_11  and  N_24
REMARK    5  A    between atoms: C_13  and  O_23
REMARK    6  A    between atoms: C_15  and  O_22
REMARK    7  A    between atoms: C_17  and  C_20
REMARK    8  A    between atoms: C_20  and  O_21
REMARK    9  A    between atoms: C_25  and  C_27
REMARK                            x       y       z     vdW  Elec       q    Type
REMARK                         _______ _______ _______ _____ _____    ______ ____
ROOT
ATOM      1  C   UNL     1       4.070   4.917  -1.471  0.00  0.00    +0.274 C 
ATOM      2  C   UNL     1       4.270   5.341  -2.928  0.00  0.00    +0.160 C 
ATOM      3  C   UNL     1       5.611   6.070  -3.061  0.00  0.00    +0.171 C 
ATOM      4  C   UNL     1       6.731   5.150  -2.564  0.00  0.00    +0.176 C 
ATOM      5  C   UNL     1       6.436   4.733  -1.121  0.00  0.00    +0.178 C 
ATOM      6  O   UNL     1       5.162   4.089  -1.064  0.00  0.00    -0.341 OA
ENDROOT
BRANCH   2   7
ATOM      7  N   UNL     1       3.184   6.238  -3.330  0.00  0.00    -0.301 N 
ATOM      8  C   UNL     1       2.018   5.728  -3.774  0.00  0.00    +0.245 C 
ATOM      9  O   UNL     1       1.868   4.524  -3.841  0.00  0.00    -0.270 OA
ATOM     10  H   UNL     1       3.303   7.199  -3.276  0.00  0.00    +0.150 HD
BRANCH   8  11
ATOM     11  C   UNL     1       0.922   6.633  -4.180  0.00  0.00    +0.037 A 
ATOM     12  C   UNL     1       1.089   8.017  -4.098  0.00  0.00    +0.013 A 
ATOM     13  C   UNL     1       0.063   8.856  -4.483  0.00  0.00    +0.001 A 
ATOM     14  C   UNL     1      -1.132   8.329  -4.938  0.00  0.00    +0.000 A 
ATOM     15  C   UNL     1      -1.306   6.958  -5.017  0.00  0.00    +0.001 A 
ATOM     16  C   UNL     1      -0.287   6.108  -4.640  0.00  0.00    +0.013 A 
ENDBRANCH   8  11
ENDBRANCH   2   7
BRANCH   4  17
ATOM     17  O   UNL     1       6.798   3.988  -3.393  0.00  0.00    -0.387 OA
ATOM     18  H   UNL     1       7.484   3.358  -3.133  0.00  0.00    +0.210 HD
ENDBRANCH   4  17
BRANCH   3  19
ATOM     19  O   UNL     1       5.587   7.262  -2.272  0.00  0.00    -0.387 OA
ATOM     20  H   UNL     1       6.409   7.771  -2.304  0.00  0.00    +0.210 HD
ENDBRANCH   3  19
BRANCH   1  21
ATOM     21  O   UNL     1       2.848   4.187  -1.350  0.00  0.00    -0.345 OA
BRANCH  21  22
ATOM     22  C   UNL     1       2.451   3.937  -0.001  0.00  0.00    +0.198 C 
BRANCH  22  26
ATOM     23  C   UNL     1      -1.219   1.751   0.017  0.00  0.00    +0.000 A 
ATOM     24  C   UNL     1      -0.013   1.076   0.008  0.00  0.00    +0.000 A 
ATOM     25  C   UNL     1       1.175   1.783   0.000  0.00  0.00    +0.006 A 
ATOM     26  C   UNL     1       1.156   3.165   0.008  0.00  0.00    -0.022 A 
ATOM     27  C   UNL     1      -0.050   3.840   0.023  0.00  0.00    +0.006 A 
ATOM     28  C   UNL     1      -1.238   3.133   0.030  0.00  0.00    +0.000 A 
ENDBRANCH  22  26
ENDBRANCH  21  22
ENDBRANCH   1  21
BRANCH   5  29
ATOM     29  C   UNL     1       7.519   3.765  -0.638  0.00  0.00    +0.190 C 
BRANCH  29  30
ATOM     30  O   UNL     1       7.309   3.466   0.743  0.00  0.00    -0.392 OA
ATOM     31  H   UNL     1       7.960   2.857   1.117  0.00  0.00    +0.210 HD
ENDBRANCH  29  30
ENDBRANCH   5  29
TORSDOF 9
