REMARK  Name = ZINC06507351
REMARK  8 active torsions:
REMARK  status: ('A' for Active; 'I' for Inactive)
REMARK    1  A    between atoms: C_1  and  C_2
REMARK    2  A    between atoms: C_2  and  N_3
REMARK    3  A    between atoms: C_7  and  C_9
REMARK    4  A    between atoms: C_9  and  N_10
REMARK    5  A    between atoms: N_10  and  C_11
REMARK    6  A    between atoms: C_14  and  S_20
REMARK    7  A    between atoms: C_16  and  N_17
REMARK    8  A    between atoms: S_20  and  C_23
REMARK                            x       y       z     vdW  Elec       q    Type
REMARK                         _______ _______ _______ _____ _____    ______ ____
ROOT
ATOM      1  C   UNL     1      -2.122  -1.722  -3.925  0.00  0.00    +0.058 A 
ATOM      2  C   UNL     1      -1.655  -2.496  -4.979  0.00  0.00    +0.027 A 
ATOM      3  C   UNL     1      -2.531  -2.937  -5.951  0.00  0.00    +0.029 A 
ATOM      4  C   UNL     1      -3.873  -2.608  -5.876  0.00  0.00    +0.090 A 
ATOM      5  C   UNL     1      -4.341  -1.838  -4.828  0.00  0.00    +0.061 A 
ATOM      6  C   UNL     1      -3.471  -1.398  -3.849  0.00  0.00    +0.149 A 
ENDROOT
BRANCH   4   7
ATOM      7  S   UNL     1      -4.987  -3.173  -7.118  0.00  0.00    -0.006 S 
ATOM      8  O   UNL     1      -6.044  -2.224  -7.116  0.00  0.00    -0.170 OA
ATOM      9  O   UNL     1      -4.180  -3.355  -8.274  0.00  0.00    -0.170 OA
ATOM     10  C   UNL     1      -5.585  -4.776  -6.514  0.00  0.00    +0.200 C 
ENDBRANCH   4   7
BRANCH   6  11
ATOM     11  N   UNL     1      -3.974  -0.578  -2.724  0.00  0.00    +0.058 N 
ATOM     12  O   UNL     1      -3.522  -0.733  -1.614  0.00  0.00    -0.126 OA
ATOM     13  O   UNL     1      -4.838   0.246  -2.916  0.00  0.00    -0.126 OA
ENDBRANCH   6  11
BRANCH   1  14
ATOM     14  N   UNL     1      -1.239  -1.274  -2.940  0.00  0.00    -0.344 N 
ATOM     15  H   UNL     1      -1.548  -0.665  -2.252  0.00  0.00    +0.146 HD
BRANCH  14  16
ATOM     16  C   UNL     1       0.155  -1.726  -2.946  0.00  0.00    +0.086 C 
BRANCH  16  21
ATOM     17  N   UNL     1       0.764   0.374  -1.820  0.00  0.00    +0.382 N 
ATOM     18  C   UNL     1       2.110   0.968  -1.969  0.00  0.00    -0.078 C 
ATOM     19  C   UNL     1       3.078  -0.098  -1.398  0.00  0.00    -0.020 C 
ATOM     20  C   UNL     1       2.407  -1.415  -1.869  0.00  0.00    -0.016 C 
ATOM     21  C   UNL     1       0.901  -1.093  -1.770  0.00  0.00    -0.051 C 
ATOM     22  H   UNL     1       0.191   0.635  -2.608  0.00  0.00    -0.081 HD
BRANCH  17  24
ATOM     23  C   UNL     1      -0.108   2.360  -0.683  0.00  0.00    -0.017 C 
ATOM     24  C   UNL     1       0.146   0.855  -0.577  0.00  0.00    -0.082 C 
ENDBRANCH  17  24
ENDBRANCH  16  21
ENDBRANCH  14  16
ENDBRANCH   1  14
TORSDOF 6
