REMARK  Name = ZINC67270751
REMARK  9 active torsions:
REMARK  status: ('A' for Active; 'I' for Inactive)
REMARK    1  A    between atoms: C_1  and  C_2
REMARK    2  A    between atoms: N_5  and  C_8
REMARK    3  A    between atoms: C_8  and  C_10
REMARK    4  A    between atoms: C_8  and  C_11
REMARK    5  A    between atoms: C_11  and  N_12
REMARK    6  A    between atoms: C_13  and  C_15
REMARK    7  A    between atoms: C_20  and  N_21
REMARK    8  A    between atoms: N_21  and  S_22
REMARK    9  A    between atoms: S_22  and  C_25
REMARK                            x       y       z     vdW  Elec       q    Type
REMARK                         _______ _______ _______ _____ _____    ______ ____
ROOT
ATOM      1  N   UNL     1       1.955  -3.921   2.403  0.00  0.00    -0.313 N 
ATOM      2  C   UNL     1       2.600  -4.105   3.572  0.00  0.00    +0.246 C 
ATOM      3  O   UNL     1       3.703  -4.619   3.584  0.00  0.00    -0.270 OA
ATOM      4  H   UNL     1       1.076  -3.512   2.393  0.00  0.00    +0.149 HD
ENDROOT
BRANCH   2   5
ATOM      5  C   UNL     1       1.970  -3.682   4.836  0.00  0.00    +0.064 A 
ATOM      6  C   UNL     1       0.701  -3.097   4.827  0.00  0.00    +0.053 A 
ATOM      7  C   UNL     1       0.117  -2.704   6.014  0.00  0.00    +0.124 A 
ATOM      8  C   UNL     1       0.783  -2.888   7.217  0.00  0.00    +0.040 A 
ATOM      9  C   UNL     1       2.037  -3.465   7.240  0.00  0.00    +0.030 A 
ATOM     10  C   UNL     1       2.638  -3.871   6.056  0.00  0.00    +0.086 A 
ATOM     11  F   UNL     1      -1.110  -2.138   6.004  0.00  0.00    -0.205 F 
BRANCH  10  12
ATOM     12  N   UNL     1       3.898  -4.457   6.078  0.00  0.00    -0.102 NA
BRANCH  12  13
ATOM     13  S   UNL     1       4.683  -4.679   7.519  0.00  0.00    +0.059 S 
ATOM     14  O   UNL     1       4.909  -3.366   8.014  0.00  0.00    -0.154 OA
ATOM     15  O   UNL     1       3.869  -5.594   8.239  0.00  0.00    -0.154 OA
ATOM     16  C   UNL     1       6.260  -5.459   7.076  0.00  0.00    +0.220 C 
ENDBRANCH  12  13
ENDBRANCH  10  12
ENDBRANCH   2   5
BRANCH   1  17
ATOM     17  C   UNL     1       2.582  -4.341   1.147  0.00  0.00    +0.089 C 
BRANCH  17  18
ATOM     18  C   UNL     1       1.710  -3.900  -0.030  0.00  0.00    -0.054 C 
ATOM     19  C   UNL     1       2.420  -4.233  -1.344  0.00  0.00    -0.012 C 
BRANCH  18  24
ATOM     20  C   UNL     1       1.236   1.728  -0.822  0.00  0.00    +0.007 C 
ATOM     21  C   UNL     1       1.521   0.239  -1.027  0.00  0.00    -0.018 C 
ATOM     22  C   UNL     1       2.531  -0.238   0.020  0.00  0.00    -0.016 C 
ATOM     23  C   UNL     1       2.752  -1.744  -0.140  0.00  0.00    -0.078 C 
ATOM     24  N   UNL     1       1.479  -2.451   0.048  0.00  0.00    +0.382 N 
ATOM     25  C   UNL     1       0.528  -2.052  -0.997  0.00  0.00    -0.078 C 
ATOM     26  C   UNL     1       0.223  -0.558  -0.869  0.00  0.00    -0.016 C 
ATOM     27  H   UNL     1       1.099  -2.221   0.953  0.00  0.00    -0.081 HD
ENDBRANCH  18  24
ENDBRANCH  17  18
ENDBRANCH   1  17
TORSDOF 6
