REMARK  Name = ZINC09585954
REMARK  8 active torsions:
REMARK  status: ('A' for Active; 'I' for Inactive)
REMARK    1  A    between atoms: C_1  and  C_2
REMARK    2  A    between atoms: C_6  and  N_9
REMARK    3  A    between atoms: C_7  and  C_8
REMARK    4  A    between atoms: C_10  and  C_12
REMARK    5  A    between atoms: C_12  and  N_62
REMARK    6  A    between atoms: C_18  and  C_20
REMARK    7  A    between atoms: C_27  and  C_32
REMARK    8  A    between atoms: C_29  and  C_31
REMARK                            x       y       z     vdW  Elec       q    Type
REMARK                         _______ _______ _______ _____ _____    ______ ____
ROOT
ATOM      1  C   UNL     1       0.692   7.775   1.126  0.00  0.00    -0.059 C 
ATOM      2  C   UNL     1       0.428   6.451   1.851  0.00  0.00    +0.089 C 
ATOM      3  N   UNL     1       1.308   5.421   1.277  0.00  0.00    -0.301 N 
ATOM      4  C   UNL     1       2.746   5.711   1.178  0.00  0.00    +0.089 C 
ATOM      5  C   UNL     1       2.917   7.066   0.474  0.00  0.00    -0.059 C 
ATOM      6  C   UNL     1       0.809   4.241   0.858  0.00  0.00    +0.250 C 
ATOM      7  O   UNL     1      -0.392   4.055   0.854  0.00  0.00    -0.270 OA
ATOM      8  N   UNL     1       2.136   8.083   1.210  0.00  0.00    +0.387 N 
ATOM      9  H   UNL     1       2.421   8.073   2.196  0.00  0.00    -0.081 HD
ENDROOT
BRANCH   6  10
ATOM     10  C   UNL     1       1.722   3.173   0.406  0.00  0.00    +0.079 A 
ATOM     11  C   UNL     1       2.766   2.751   1.229  0.00  0.00    +0.017 A 
ATOM     12  C   UNL     1       3.620   1.755   0.809  0.00  0.00    +0.001 A 
ATOM     13  C   UNL     1       3.441   1.167  -0.433  0.00  0.00    +0.007 A 
ATOM     14  C   UNL     1       2.412   1.573  -1.252  0.00  0.00    +0.001 A 
ATOM     15  C   UNL     1       1.541   2.581  -0.857  0.00  0.00    +0.137 A 
ATOM     16  O   UNL     1       0.612   2.835  -1.814  0.00  0.00    -0.487 OA
ATOM     17  C   UNL     1       0.545   1.721  -2.720  0.00  0.00    +0.178 C 
ATOM     18  C   UNL     1       1.969   1.122  -2.631  0.00  0.00    +0.060 C 
ATOM     19  C   UNL     1       1.927  -0.405  -2.719  0.00  0.00    +0.016 C 
ATOM     20  C   UNL     1       0.246   2.196  -4.143  0.00  0.00    +0.052 C 
ENDBRANCH   6  10
BRANCH   8  21
ATOM     21  C   UNL     1       2.398   9.425   0.649  0.00  0.00    +0.019 C 
BRANCH  21  23
ATOM     22  N   UNL     1       4.304  10.999   0.546  0.00  0.00    -0.287 N 
ATOM     23  C   UNL     1       3.827   9.802   0.944  0.00  0.00    +0.201 C 
ATOM     24  O   UNL     1       4.548   9.029   1.538  0.00  0.00    -0.278 OA
ATOM     25  H   UNL     1       3.711  11.642   0.127  0.00  0.00    +0.155 HD
BRANCH  22  31
ATOM     26  C   UNL     1       8.389  13.249  -1.009  0.00  0.00    +0.044 C 
ATOM     27  C   UNL     1       7.658  12.402   0.001  0.00  0.00    -0.046 A 
ATOM     28  C   UNL     1       8.322  11.936   1.121  0.00  0.00    +0.004 A 
ATOM     29  C   UNL     1       7.655  11.159   2.050  0.00  0.00    +0.002 A 
ATOM     30  C   UNL     1       6.323  10.847   1.863  0.00  0.00    +0.023 A 
ATOM     31  C   UNL     1       5.653  11.313   0.739  0.00  0.00    +0.036 A 
ATOM     32  C   UNL     1       6.328  12.088  -0.195  0.00  0.00    -0.026 A 
ATOM     33  C   UNL     1       5.607  12.591  -1.419  0.00  0.00    +0.046 C 
ENDBRANCH  22  31
ENDBRANCH  21  23
ENDBRANCH   8  21
TORSDOF 4
