REMARK  Name = ZINC44783692
REMARK  4 active torsions:
REMARK  status: ('A' for Active; 'I' for Inactive)
REMARK    1  A    between atoms: C_4  and  N_8
REMARK    2  A    between atoms: C_9  and  C_11
REMARK    3  A    between atoms: C_11  and  C_17
REMARK    4  A    between atoms: N_18  and  O_19
REMARK                            x       y       z     vdW  Elec       q    Type
REMARK                         _______ _______ _______ _____ _____    ______ ____
ROOT
ATOM      1  C   UNL     1       4.995  -2.770   0.161  0.00  0.00    +0.105 C 
ATOM      2  C   UNL     1       5.537  -2.137   1.444  0.00  0.00    +0.024 C 
ATOM      3  C   UNL     1       4.681  -2.581   2.633  0.00  0.00    +0.001 C 
ATOM      4  C   UNL     1       4.731  -4.105   2.756  0.00  0.00    +0.000 C 
ATOM      5  C   UNL     1       4.189  -4.738   1.472  0.00  0.00    +0.001 C 
ATOM      6  C   UNL     1       5.045  -4.294   0.284  0.00  0.00    +0.024 C 
ENDROOT
BRANCH   1   7
ATOM      7  C   UNL     1       5.838  -2.333  -1.009  0.00  0.00    +0.147 C 
ATOM      8  N   UNL     1       5.491  -2.655  -2.211  0.00  0.00    -0.076 NA
ATOM      9  N   UNL     1       6.978  -1.589  -0.798  0.00  0.00    -0.343 N 
ATOM     10  H   UNL     1       7.281  -1.414   0.107  0.00  0.00    +0.144 HD
ATOM     11  H   UNL     1       7.477  -1.242  -1.553  0.00  0.00    +0.144 HD
BRANCH   8  12
ATOM     12  O   UNL     1       4.237  -3.271  -2.445  0.00  0.00    -0.408 OA
ATOM     13  H   UNL     1       4.067  -3.475  -3.375  0.00  0.00    +0.328 HD
ENDBRANCH   8  12
ENDBRANCH   1   7
BRANCH   1  15
ATOM     14  N   UNL     1       3.260  -1.018  -0.036  0.00  0.00    -0.283 N 
ATOM     15  C   UNL     1       3.570  -2.330  -0.053  0.00  0.00    +0.231 C 
ATOM     16  O   UNL     1       2.702  -3.155  -0.241  0.00  0.00    -0.274 OA
ATOM     17  H   UNL     1       3.965  -0.354   0.018  0.00  0.00    +0.155 HD
BRANCH  14  21
ATOM     18  C   UNL     1      -0.726   0.186  -0.218  0.00  0.00    +0.021 A 
ATOM     19  C   UNL     1       0.206   0.980   0.424  0.00  0.00    +0.023 A 
ATOM     20  C   UNL     1       1.528   0.584   0.486  0.00  0.00    +0.062 A 
ATOM     21  C   UNL     1       1.921  -0.614  -0.097  0.00  0.00    +0.053 A 
ATOM     22  C   UNL     1       0.984  -1.410  -0.741  0.00  0.00    +0.044 A 
ATOM     23  C   UNL     1      -0.338  -1.008  -0.800  0.00  0.00    +0.043 A 
ATOM     24 CL   UNL     1      -1.512  -2.003  -1.604  0.00  0.00    -0.083 Cl
ATOM     25 CL   UNL     1       2.697   1.583   1.292  0.00  0.00    -0.082 Cl
ENDBRANCH  14  21
ENDBRANCH   1  15
TORSDOF 4
