REMARK  Name = ZINC02425384
REMARK  10 active torsions:
REMARK  status: ('A' for Active; 'I' for Inactive)
REMARK    1  A    between atoms: C_1  and  C_2
REMARK    2  A    between atoms: C_2  and  C_3
REMARK    3  A    between atoms: C_2  and  O_4
REMARK    4  A    between atoms: O_4  and  C_5
REMARK    5  A    between atoms: C_5  and  C_6
REMARK    6  A    between atoms: C_6  and  C_7
REMARK    7  A    between atoms: C_7  and  N_8
REMARK    8  A    between atoms: C_9  and  C_11
REMARK    9  A    between atoms: N_22  and  C_25
REMARK   10  A    between atoms: C_23  and  N_24
REMARK                            x       y       z     vdW  Elec       q    Type
REMARK                         _______ _______ _______ _____ _____    ______ ____
ROOT
ATOM      1  C   UNL     1      -2.443   0.876   0.018  0.00  0.00    +0.104 A 
ATOM      2  C   UNL     1      -3.205   0.432  -1.160  0.00  0.00    +0.123 A 
ATOM      3  C   UNL     1      -4.375  -0.270  -0.625  0.00  0.00    +0.166 A 
ATOM      4  N   UNL     1      -5.255  -0.786  -1.455  0.00  0.00    -0.225 NA
ATOM      5  C   UNL     1      -5.076  -0.668  -2.777  0.00  0.00    +0.092 A 
ATOM      6  C   UNL     1      -6.012  -1.218  -3.672  0.00  0.00    +0.030 A 
ATOM      7  C   UNL     1      -5.822  -1.091  -5.013  0.00  0.00    +0.002 A 
ATOM      8  C   UNL     1      -4.709  -0.423  -5.519  0.00  0.00    +0.002 A 
ATOM      9  C   UNL     1      -3.782   0.121  -4.686  0.00  0.00    +0.030 A 
ATOM     10  C   UNL     1      -3.944   0.011  -3.292  0.00  0.00    +0.090 A 
ATOM     11  N   UNL     1      -3.038   0.543  -2.463  0.00  0.00    -0.241 NA
ATOM     12  N   UNL     1      -4.277  -0.224   0.753  0.00  0.00    -0.280 N 
ATOM     13  C   UNL     1      -3.149   0.439   1.134  0.00  0.00    +0.117 A 
ENDROOT
BRANCH  12  14
ATOM     14  C   UNL     1      -5.208  -0.786   1.637  0.00  0.00    +0.050 A 
ATOM     15  C   UNL     1      -6.502  -0.287   1.694  0.00  0.00    +0.027 A 
ATOM     16  C   UNL     1      -7.420  -0.846   2.562  0.00  0.00    +0.017 A 
ATOM     17  C   UNL     1      -7.046  -1.896   3.382  0.00  0.00    +0.018 A 
ATOM     18  C   UNL     1      -5.755  -2.391   3.332  0.00  0.00    +0.017 A 
ATOM     19  C   UNL     1      -4.836  -1.839   2.461  0.00  0.00    +0.027 A 
ATOM     20 BR   UNL     1      -8.302  -2.654   4.576  0.00  0.00    -0.050 Br
ENDBRANCH  12  14
BRANCH   1  22
ATOM     21  N   UNL     1      -0.011   0.966   0.007  0.00  0.00    -0.311 N 
ATOM     22  C   UNL     1      -1.187   1.624   0.017  0.00  0.00    +0.250 C 
ATOM     23  O   UNL     1      -1.204   2.841   0.023  0.00  0.00    -0.270 OA
ATOM     24  H   UNL     1       0.002  -0.004   0.002  0.00  0.00    +0.149 HD
BRANCH  21  25
ATOM     25  C   UNL     1       1.248   1.716  -0.001  0.00  0.00    +0.107 C 
BRANCH  25  26
ATOM     26  C   UNL     1       2.424   0.737  -0.017  0.00  0.00    +0.047 C 
BRANCH  26  27
ATOM     27  C   UNL     1       3.738   1.520  -0.025  0.00  0.00    +0.161 C 
BRANCH  27  28
ATOM     28  O   UNL     1       4.837   0.607  -0.041  0.00  0.00    -0.377 OA
BRANCH  28  30
ATOM     29  C   UNL     1       6.590   1.456   1.389  0.00  0.00    +0.037 C 
ATOM     30  C   UNL     1       6.118   1.238  -0.050  0.00  0.00    +0.112 C 
ATOM     31  C   UNL     1       7.121   0.348  -0.785  0.00  0.00    +0.037 C 
ENDBRANCH  28  30
ENDBRANCH  27  28
ENDBRANCH  26  27
ENDBRANCH  25  26
ENDBRANCH  21  25
ENDBRANCH   1  22
BRANCH  13  32
ATOM     32  N   UNL     1      -2.766   0.649   2.433  0.00  0.00    -0.343 N 
ATOM     33  H   UNL     1      -1.949   1.134   2.626  0.00  0.00    +0.144 HD
ATOM     34  H   UNL     1      -3.313   0.312   3.160  0.00  0.00    +0.144 HD
ENDBRANCH  13  32
TORSDOF 8
