REMARK  Name = ZINC63486274
REMARK  9 active torsions:
REMARK  status: ('A' for Active; 'I' for Inactive)
REMARK    1  A    between atoms: C_1  and  C_2
REMARK    2  A    between atoms: C_4  and  C_29
REMARK    3  A    between atoms: C_10  and  C_12
REMARK    4  A    between atoms: C_12  and  C_13
REMARK    5  A    between atoms: N_15  and  C_16
REMARK    6  A    between atoms: C_16  and  C_17
REMARK    7  A    between atoms: C_17  and  C_18
REMARK    8  A    between atoms: C_21  and  O_27
REMARK    9  A    between atoms: O_27  and  C_28
REMARK                            x       y       z     vdW  Elec       q    Type
REMARK                         _______ _______ _______ _____ _____    ______ ____
ROOT
ATOM      1  C   UNL     1       0.639  -1.733   5.480  0.00  0.00    +0.220 C 
ATOM      2  O   UNL     1      -0.523  -1.422   5.324  0.00  0.00    -0.275 OA
ATOM      3  N   UNL     1       1.139  -1.872   6.724  0.00  0.00    -0.315 N 
ATOM      4  H   UNL     1       2.068  -2.121   6.848  0.00  0.00    +0.149 HD
ENDROOT
BRANCH   1   5
ATOM      5  C   UNL     1       1.524  -1.965   4.282  0.00  0.00    +0.166 C 
BRANCH   5  14
ATOM      6  C   UNL     1      -0.018   1.503   0.010  0.00  0.00    +0.062 C 
ATOM      7  C   UNL     1       0.002  -0.004   0.002  0.00  0.00    +0.028 C 
ATOM      8  C   UNL     1       0.007  -0.732  -1.149  0.00  0.00    +0.042 C 
ATOM      9  C   UNL     1       0.015  -2.143  -1.079  0.00  0.00    +0.038 C 
ATOM     10  N   UNL     1      -0.239  -2.805   0.009  0.00  0.00    -0.244 NA
ATOM     11  C   UNL     1      -0.592  -2.093   1.240  0.00  0.00    +0.309 C 
ATOM     12  N   UNL     1       0.023  -0.748   1.149  0.00  0.00    -0.214 N 
ATOM     13  N   UNL     1       0.621  -0.537   2.386  0.00  0.00    -0.250 N 
ATOM     14  C   UNL     1       0.729  -1.747   3.021  0.00  0.00    +0.096 C 
ATOM     15  N   UNL     1       0.044  -2.692   2.417  0.00  0.00    -0.338 N 
ATOM     16  C   UNL     1       0.336  -2.919  -2.330  0.00  0.00    +0.065 C 
ATOM     17  H   UNL     1       0.911   0.319   2.739  0.00  0.00    +0.171 HD
ATOM     18  H   UNL     1      -0.021  -3.622   2.686  0.00  0.00    +0.164 HD
ENDBRANCH   5  14
ENDBRANCH   1   5
BRANCH   3  19
ATOM     19  C   UNL     1       0.278  -1.647   7.888  0.00  0.00    +0.108 C 
BRANCH  19  20
ATOM     20  C   UNL     1       1.085  -1.868   9.169  0.00  0.00    +0.052 C 
BRANCH  20  21
ATOM     21  C   UNL     1       0.200  -1.637  10.367  0.00  0.00    -0.040 C 
ATOM     22  C   UNL     1      -0.478  -2.572  11.069  0.00  0.00    +0.002 A 
ATOM     23  C   UNL     1      -0.594  -4.029  10.934  0.00  0.00    +0.055 A 
ATOM     24  C   UNL     1      -1.367  -4.720  11.806  0.00  0.00    +0.121 A 
ATOM     25  C   UNL     1      -2.072  -4.090  12.846  0.00  0.00    +0.047 A 
ATOM     26  C   UNL     1      -2.029  -2.756  13.050  0.00  0.00    +0.029 A 
ATOM     27  C   UNL     1      -1.222  -1.910  12.165  0.00  0.00    +0.043 A 
ATOM     28  N   UNL     1      -1.011  -0.618  12.142  0.00  0.00    -0.380 N 
ATOM     29  C   UNL     1      -0.103  -0.312  11.030  0.00  0.00    +0.144 C 
ATOM     30  H   UNL     1      -1.389   0.029  12.759  0.00  0.00    +0.160 HD
BRANCH  24  31
ATOM     31  O   UNL     1      -1.464  -6.069  11.669  0.00  0.00    -0.495 OA
ATOM     32  C   UNL     1      -2.290  -6.758  12.609  0.00  0.00    +0.277 C 
ENDBRANCH  24  31
ENDBRANCH  20  21
ENDBRANCH  19  20
ENDBRANCH   3  19
TORSDOF 6
