REMARK  Name = ZINC50035825
REMARK  5 active torsions:
REMARK  status: ('A' for Active; 'I' for Inactive)
REMARK    1  A    between atoms: C_1  and  C_2
REMARK    2  A    between atoms: C_5  and  S_7
REMARK    3  A    between atoms: S_7  and  C_8
REMARK    4  A    between atoms: C_10  and  C_16
REMARK    5  A    between atoms: C_11  and  N_15
REMARK                            x       y       z     vdW  Elec       q    Type
REMARK                         _______ _______ _______ _____ _____    ______ ____
ROOT
ATOM      1  C   UNL     1       0.080  -4.818   2.097  0.00  0.00    +0.051 A 
ATOM      2  C   UNL     1       0.205  -4.879   0.722  0.00  0.00    +0.032 A 
ATOM      3  C   UNL     1       0.287  -6.121   0.084  0.00  0.00    +0.058 A 
ATOM      4  C   UNL     1       0.242  -7.298   0.847  0.00  0.00    +0.040 A 
ATOM      5  C   UNL     1       0.116  -7.222   2.228  0.00  0.00    +0.063 A 
ATOM      6  C   UNL     1       0.041  -5.991   2.850  0.00  0.00    +0.139 A 
ATOM      7  F   UNL     1      -0.076  -5.924   4.195  0.00  0.00    -0.204 F 
ENDROOT
BRANCH   3   8
ATOM      8  C   UNL     1       0.420  -6.193  -1.381  0.00  0.00    +0.243 C 
ATOM      9  O   UNL     1       0.380  -7.271  -1.943  0.00  0.00    -0.270 OA
ATOM     10  N   UNL     1       0.585  -5.064  -2.099  0.00  0.00    -0.325 N 
ATOM     11  H   UNL     1       0.617  -4.205  -1.651  0.00  0.00    +0.145 HD
ATOM     12  H   UNL     1       0.673  -5.112  -3.064  0.00  0.00    +0.145 HD
ENDBRANCH   3   8
BRANCH   4  13
ATOM     13  N   UNL     1       0.322  -8.538   0.221  0.00  0.00    -0.357 N 
ATOM     14  H   UNL     1       0.323  -8.593  -0.747  0.00  0.00    +0.142 HD
ATOM     15  H   UNL     1       0.378  -9.347   0.753  0.00  0.00    +0.142 HD
ENDBRANCH   4  13
BRANCH   1  16
ATOM     16  S   UNL     1      -0.023  -3.254   2.902  0.00  0.00    -0.060 S 
BRANCH  16  21
ATOM     17  C   UNL     1      -4.312  -1.116   5.030  0.00  0.00    +0.066 C 
ATOM     18  C   UNL     1      -3.641  -2.203   4.231  0.00  0.00    +0.047 A 
ATOM     19  C   UNL     1      -4.372  -3.229   3.734  0.00  0.00    +0.070 A 
ATOM     20  S   UNL     1      -3.098  -4.175   2.909  0.00  0.00    -0.069 S 
ATOM     21  C   UNL     1      -1.729  -3.100   3.317  0.00  0.00    +0.140 A 
ATOM     22  N   UNL     1      -2.342  -2.154   4.011  0.00  0.00    -0.238 NA
ENDBRANCH  16  21
ENDBRANCH   1  16
TORSDOF 4
