REMARK  Name = ZINC08651247
REMARK  11 active torsions:
REMARK  status: ('A' for Active; 'I' for Inactive)
REMARK    1  A    between atoms: C_1  and  C_2
REMARK    2  A    between atoms: C_2  and  C_3
REMARK    3  A    between atoms: C_2  and  C_4
REMARK    4  A    between atoms: C_4  and  N_5
REMARK    5  A    between atoms: C_6  and  C_29
REMARK    6  A    between atoms: C_9  and  S_10
REMARK    7  A    between atoms: S_10  and  C_11
REMARK    8  A    between atoms: C_11  and  C_12
REMARK    9  A    between atoms: N_14  and  N_15
REMARK   10  A    between atoms: C_18  and  C_22
REMARK   11  A    between atoms: C_18  and  C_23
REMARK                            x       y       z     vdW  Elec       q    Type
REMARK                         _______ _______ _______ _____ _____    ______ ____
ROOT
ATOM      1  C   UNL     1      -0.063   1.832   0.059  0.00  0.00    +0.240 C 
ATOM      2  O   UNL     1       0.132   0.635   0.042  0.00  0.00    -0.273 OA
ATOM      3  N   UNL     1       0.981   2.684   0.063  0.00  0.00    -0.223 N 
ATOM      4  H   UNL     1       0.825   3.641   0.076  0.00  0.00    +0.174 HD
ENDROOT
BRANCH   3   5
ATOM      5  N   UNL     1       2.291   2.187   0.049  0.00  0.00    -0.137 N 
ATOM      6  C   UNL     1       3.094   2.203  -1.033  0.00  0.00    +0.267 C 
ATOM      7  O   UNL     1       2.830   2.631  -2.136  0.00  0.00    -0.271 OA
ATOM      8  C   UNL     1       4.397   1.571  -0.585  0.00  0.00    +0.137 C 
ATOM      9  N   UNL     1       4.154   1.243   0.831  0.00  0.00    -0.280 N 
ATOM     10  C   UNL     1       2.901   1.645   1.109  0.00  0.00    +0.327 C 
ATOM     11  O   UNL     1       2.379   1.525   2.200  0.00  0.00    -0.251 OA
ATOM     12  C   UNL     1       4.688   0.305  -1.392  0.00  0.00    +0.047 C 
ATOM     13  H   UNL     1       4.777   0.823   1.443  0.00  0.00    +0.152 HD
BRANCH   8  14
ATOM     14  C   UNL     1       5.534   2.553  -0.714  0.00  0.00    -0.015 A 
ATOM     15  C   UNL     1       5.500   3.525  -1.696  0.00  0.00    +0.006 A 
ATOM     16  C   UNL     1       6.540   4.428  -1.811  0.00  0.00    +0.000 A 
ATOM     17  C   UNL     1       7.619   4.353  -0.950  0.00  0.00    +0.000 A 
ATOM     18  C   UNL     1       7.655   3.378   0.029  0.00  0.00    +0.000 A 
ATOM     19  C   UNL     1       6.613   2.478   0.147  0.00  0.00    +0.006 A 
ENDBRANCH   8  14
ENDBRANCH   3   5
BRANCH   1  20
ATOM     20  C   UNL     1      -1.472   2.366   0.068  0.00  0.00    +0.174 C 
BRANCH  20  21
ATOM     21  S   UNL     1      -2.641   0.984   0.051  0.00  0.00    -0.077 S 
BRANCH  21  26
ATOM     22  N   UNL     1      -5.417   1.330   0.060  0.00  0.00    -0.302 N 
ATOM     23  C   UNL     1      -6.284   2.398   0.076  0.00  0.00    +0.168 A 
ATOM     24  N   UNL     1      -5.551   3.488   0.090  0.00  0.00    -0.128 NA
ATOM     25  N   UNL     1      -4.304   3.178   0.089  0.00  0.00    -0.122 NA
ATOM     26  C   UNL     1      -4.164   1.872   0.066  0.00  0.00    +0.192 A 
BRANCH  23  27
ATOM     27  C   UNL     1      -7.760   2.332   0.078  0.00  0.00    +0.054 A 
ATOM     28  C   UNL     1      -8.427   1.520  -0.840  0.00  0.00    +0.014 A 
ATOM     29  C   UNL     1      -9.805   1.463  -0.833  0.00  0.00    +0.001 A 
ATOM     30  C   UNL     1     -10.528   2.208   0.082  0.00  0.00    +0.003 A 
ATOM     31  C   UNL     1      -9.876   3.015   0.996  0.00  0.00    +0.039 A 
ATOM     32  C   UNL     1      -8.495   3.079   1.004  0.00  0.00    +0.134 A 
ATOM     33  F   UNL     1      -7.858   3.863   1.900  0.00  0.00    -0.205 F 
ENDBRANCH  23  27
BRANCH  22  34
ATOM     34  C   UNL     1      -5.767  -0.093   0.041  0.00  0.00    +0.129 C 
BRANCH  34  36
ATOM     35  C   UNL     1      -6.848   0.023   2.291  0.00  0.00    +0.009 C 
ATOM     36  C   UNL     1      -5.742  -0.643   1.469  0.00  0.00    +0.003 C 
ATOM     37  C   UNL     1      -5.972  -2.155   1.437  0.00  0.00    +0.009 C 
ENDBRANCH  34  36
ENDBRANCH  22  34
ENDBRANCH  21  26
ENDBRANCH  20  21
ENDBRANCH   1  20
TORSDOF 8
