REMARK  Name = ZINC21227766
REMARK  6 active torsions:
REMARK  status: ('A' for Active; 'I' for Inactive)
REMARK    1  A    between atoms: C_1  and  C_2
REMARK    2  A    between atoms: C_2  and  C_3
REMARK    3  A    between atoms: C_2  and  O_4
REMARK    4  A    between atoms: O_4  and  C_5
REMARK    5  A    between atoms: C_8  and  C_11
REMARK    6  A    between atoms: C_16  and  C_26
REMARK                            x       y       z     vdW  Elec       q    Type
REMARK                         _______ _______ _______ _____ _____    ______ ____
ROOT
ATOM      1  C   UNL     1       6.019  -0.878  -1.680  0.00  0.00    +0.032 C 
ATOM      2  C   UNL     1       5.925  -0.959  -0.157  0.00  0.00    +0.059 C 
ATOM      3  C   UNL     1       4.468  -1.027   0.269  0.00  0.00    +0.017 C 
ATOM      4  C   UNL     1       3.558  -1.638  -0.509  0.00  0.00    +0.036 C 
ATOM      5  C   UNL     1       2.087  -1.785  -0.203  0.00  0.00    +0.137 C 
ATOM      6  N   UNL     1       1.716  -1.440   1.152  0.00  0.00    -0.331 N 
ATOM      7  C   UNL     1       1.851  -0.135   1.624  0.00  0.00    +0.049 A 
ATOM      8  C   UNL     1       0.746   0.641   1.934  0.00  0.00    +0.025 A 
ATOM      9  C   UNL     1       0.925   1.964   2.300  0.00  0.00    +0.002 A 
ATOM     10  C   UNL     1       2.195   2.509   2.356  0.00  0.00    +0.002 A 
ATOM     11  C   UNL     1       3.302   1.732   2.062  0.00  0.00    +0.025 A 
ATOM     12  C   UNL     1       3.126   0.404   1.713  0.00  0.00    +0.052 A 
ATOM     13  N   UNL     1       4.196  -0.448   1.466  0.00  0.00    -0.316 N 
ATOM     14  C   UNL     1       3.945  -2.205  -1.746  0.00  0.00    +0.163 C 
ATOM     15  O   UNL     1       3.107  -2.771  -2.420  0.00  0.00    -0.292 OA
ATOM     16  C   UNL     1       5.353  -2.133  -2.256  0.00  0.00    +0.088 C 
ATOM     17  H   UNL     1       1.321  -2.213   1.828  0.00  0.00    +0.147 HD
ATOM     18  H   UNL     1       4.846  -0.642   2.331  0.00  0.00    +0.152 HD
ENDROOT
BRANCH   5  19
ATOM     19  C   UNL     1       1.312  -0.903  -1.149  0.00  0.00    -0.009 A 
ATOM     20  C   UNL     1       1.958   0.105  -1.840  0.00  0.00    +0.007 A 
ATOM     21  C   UNL     1       1.249   0.911  -2.710  0.00  0.00    +0.000 A 
ATOM     22  C   UNL     1      -0.109   0.716  -2.883  0.00  0.00    +0.001 A 
ATOM     23  C   UNL     1      -0.756  -0.288  -2.189  0.00  0.00    +0.015 A 
ATOM     24  C   UNL     1      -0.046  -1.099  -1.321  0.00  0.00    +0.023 A 
ATOM     25 BR   UNL     1      -0.932  -2.472  -0.370  0.00  0.00    -0.050 Br
ENDBRANCH   5  19
BRANCH   1  29
ATOM     26  C   UNL     1      10.119  -0.734  -2.876  0.00  0.00    +0.121 A 
ATOM     27  C   UNL     1       9.255   0.291  -3.233  0.00  0.00    +0.046 A 
ATOM     28  C   UNL     1       7.930   0.242  -2.845  0.00  0.00    +0.007 A 
ATOM     29  C   UNL     1       7.465  -0.827  -2.102  0.00  0.00    -0.043 A 
ATOM     30  C   UNL     1       8.325  -1.847  -1.739  0.00  0.00    +0.007 A 
ATOM     31  C   UNL     1       9.650  -1.805  -2.129  0.00  0.00    +0.046 A 
BRANCH  26  32
ATOM     32  O   UNL     1      11.423  -0.688  -3.256  0.00  0.00    -0.489 OA
BRANCH  32  34
ATOM     33  C   UNL     1      12.126   1.624  -3.272  0.00  0.00    +0.051 C 
ATOM     34  C   UNL     1      11.811   0.386  -4.115  0.00  0.00    +0.167 C 
ATOM     35  C   UNL     1      13.053  -0.019  -4.910  0.00  0.00    +0.051 C 
ENDBRANCH  32  34
ENDBRANCH  26  32
ENDBRANCH   1  29
TORSDOF 4
