REMARK  Name = ZINC36609809
REMARK  17 active torsions:
REMARK  status: ('A' for Active; 'I' for Inactive)
REMARK    1  A    between atoms: C_1  and  C_2
REMARK    2  A    between atoms: C_2  and  C_3
REMARK    3  A    between atoms: C_2  and  C_4
REMARK    4  A    between atoms: C_2  and  C_5
REMARK    5  A    between atoms: C_5  and  C_6
REMARK    6  A    between atoms: C_6  and  C_7
REMARK    7  A    between atoms: C_6  and  C_8
REMARK    8  A    between atoms: C_6  and  N_9
REMARK    9  A    between atoms: C_10  and  C_12
REMARK   10  A    between atoms: C_12  and  C_14
REMARK   11  A    between atoms: C_12  and  N_23
REMARK   12  A    between atoms: C_15  and  O_22
REMARK   13  A    between atoms: C_17  and  O_21
REMARK   14  A    between atoms: C_19  and  O_20
REMARK   15  A    between atoms: N_23  and  C_24
REMARK   16  A    between atoms: C_30  and  C_32
REMARK   17  A    between atoms: C_35  and  O_38
REMARK                            x       y       z     vdW  Elec       q    Type
REMARK                         _______ _______ _______ _____ _____    ______ ____
ROOT
ATOM      1  C   UNL     1       5.013  -0.190  -4.338  0.00  0.00    +0.204 C 
ENDROOT
BRANCH   1   2
ATOM      2  C   UNL     1       4.995  -1.647  -4.723  0.00  0.00    +0.065 A 
ATOM      3  C   UNL     1       5.741  -2.565  -3.998  0.00  0.00    +0.129 A 
ATOM      4  C   UNL     1       5.724  -3.906  -4.352  0.00  0.00    +0.091 A 
ATOM      5  C   UNL     1       4.962  -4.329  -5.430  0.00  0.00    +0.124 A 
ATOM      6  C   UNL     1       4.215  -3.412  -6.154  0.00  0.00    +0.091 A 
ATOM      7  C   UNL     1       4.228  -2.072  -5.798  0.00  0.00    +0.129 A 
BRANCH   7   8
ATOM      8  O   UNL     1       3.493  -1.173  -6.504  0.00  0.00    -0.506 OA
ATOM      9  H   UNL     1       3.965  -0.779  -7.250  0.00  0.00    +0.292 HD
ENDBRANCH   7   8
BRANCH   5  10
ATOM     10  O   UNL     1       4.946  -5.643  -5.777  0.00  0.00    -0.507 OA
ATOM     11  H   UNL     1       4.255  -6.157  -5.339  0.00  0.00    +0.292 HD
ENDBRANCH   5  10
BRANCH   3  12
ATOM     12  O   UNL     1       6.488  -2.150  -2.942  0.00  0.00    -0.506 OA
ATOM     13  H   UNL     1       6.043  -2.235  -2.088  0.00  0.00    +0.292 HD
ENDBRANCH   3  12
ENDBRANCH   1   2
BRANCH   1  15
ATOM     14  N   UNL     1       3.229  -0.433  -2.642  0.00  0.00    -0.308 N 
ATOM     15  C   UNL     1       4.482  -0.034  -2.937  0.00  0.00    +0.239 C 
ATOM     16  O   UNL     1       5.183   0.451  -2.074  0.00  0.00    -0.273 OA
ATOM     17  H   UNL     1       2.669  -0.821  -3.332  0.00  0.00    +0.149 HD
BRANCH  14  18
ATOM     18  C   UNL     1       2.714  -0.281  -1.279  0.00  0.00    +0.030 C 
ATOM     19  C   UNL     1       2.972   1.146  -0.792  0.00  0.00    +0.031 C 
ATOM     20  C   UNL     1       3.421  -1.272  -0.353  0.00  0.00    +0.031 C 
BRANCH  18  21
ATOM     21  C   UNL     1       1.209  -0.559  -1.269  0.00  0.00    +0.031 C 
BRANCH  21  23
ATOM     22  C   UNL     1       0.757  -0.626  -3.725  0.00  0.00    +0.010 C 
ATOM     23  C   UNL     1       0.548   0.174  -2.438  0.00  0.00    -0.036 C 
ATOM     24  C   UNL     1       1.175   1.561  -2.591  0.00  0.00    +0.010 C 
ATOM     25  C   UNL     1      -0.951   0.319  -2.167  0.00  0.00    +0.010 C 
ENDBRANCH  21  23
ENDBRANCH  18  21
ENDBRANCH  14  18
ENDBRANCH   1  15
BRANCH   1  26
ATOM     26  N   UNL     1       6.387   0.314  -4.400  0.00  0.00    -0.251 N 
ATOM     27  C   UNL     1       6.642   1.609  -4.129  0.00  0.00    +0.252 C 
ATOM     28  O   UNL     1       7.790   1.988  -3.995  0.00  0.00    -0.270 OA
BRANCH  26  29
ATOM     29  C   UNL     1       7.434  -0.549  -4.739  0.00  0.00    +0.038 A 
ATOM     30  C   UNL     1       7.457  -1.159  -5.986  0.00  0.00    +0.023 A 
ATOM     31  C   UNL     1       8.492  -2.011  -6.318  0.00  0.00    +0.002 A 
ATOM     32  C   UNL     1       9.505  -2.256  -5.410  0.00  0.00    +0.000 A 
ATOM     33  C   UNL     1       9.486  -1.650  -4.167  0.00  0.00    +0.002 A 
ATOM     34  C   UNL     1       8.457  -0.793  -3.831  0.00  0.00    +0.023 A 
ENDBRANCH  26  29
BRANCH  27  35
ATOM     35  C   UNL     1       5.528   2.568  -3.996  0.00  0.00    +0.037 A 
ATOM     36  C   UNL     1       4.207   2.113  -4.001  0.00  0.00    +0.016 A 
ATOM     37  C   UNL     1       3.171   3.011  -3.876  0.00  0.00    +0.046 A 
ATOM     38  C   UNL     1       3.438   4.369  -3.746  0.00  0.00    +0.117 A 
ATOM     39  C   UNL     1       4.750   4.826  -3.741  0.00  0.00    +0.046 A 
ATOM     40  C   UNL     1       5.792   3.934  -3.859  0.00  0.00    +0.016 A 
BRANCH  38  41
ATOM     41  O   UNL     1       2.413   5.251  -3.624  0.00  0.00    -0.507 OA
ATOM     42  H   UNL     1       2.144   5.417  -2.710  0.00  0.00    +0.292 HD
ENDBRANCH  38  41
ENDBRANCH  27  35
ENDBRANCH   1  26
TORSDOF 12
