REMARK  Name = ZINC12489803
REMARK  13 active torsions:
REMARK  status: ('A' for Active; 'I' for Inactive)
REMARK    1  A    between atoms: C_1  and  C_2
REMARK    2  A    between atoms: C_2  and  C_3
REMARK    3  A    between atoms: C_3  and  C_5
REMARK    4  A    between atoms: C_3  and  C_6
REMARK    5  A    between atoms: C_9  and  N_12
REMARK    6  A    between atoms: N_12  and  C_13
REMARK    7  A    between atoms: C_13  and  C_15
REMARK    8  A    between atoms: C_13  and  C_21
REMARK    9  A    between atoms: N_23  and  C_24
REMARK   10  A    between atoms: C_24  and  C_25
REMARK   11  A    between atoms: C_31  and  C_33
REMARK   12  A    between atoms: C_33  and  N_34
REMARK   13  A    between atoms: C_35  and  C_37
REMARK                            x       y       z     vdW  Elec       q    Type
REMARK                         _______ _______ _______ _____ _____    ______ ____
ROOT
ATOM      1  N   UNL     1      -1.228   2.084  -0.328  0.00  0.00    -0.254 N 
ATOM      2  C   UNL     1      -2.426   1.468  -0.360  0.00  0.00    +0.238 C 
ATOM      3  O   UNL     1      -3.438   2.098  -0.137  0.00  0.00    -0.274 OA
ENDROOT
BRANCH   1   7
ATOM      4  C   UNL     1       2.209  -0.009  -1.405  0.00  0.00    -0.044 A 
ATOM      5  C   UNL     1       1.552  -0.320  -0.229  0.00  0.00    +0.006 A 
ATOM      6  C   UNL     1       0.413   0.373   0.132  0.00  0.00    +0.024 A 
ATOM      7  C   UNL     1      -0.071   1.384  -0.688  0.00  0.00    +0.037 A 
ATOM      8  C   UNL     1       0.592   1.694  -1.868  0.00  0.00    +0.024 A 
ATOM      9  C   UNL     1       1.729   0.997  -2.223  0.00  0.00    +0.006 A 
BRANCH   4  10
ATOM     10  C   UNL     1       3.451  -0.768  -1.795  0.00  0.00    +0.016 C 
ATOM     11  C   UNL     1       3.224  -1.462  -3.140  0.00  0.00    +0.012 C 
BRANCH  10  13
ATOM     12  C   UNL     1       5.911  -0.580  -2.189  0.00  0.00    +0.004 C 
ATOM     13  C   UNL     1       4.627   0.204  -1.915  0.00  0.00    +0.004 C 
ENDBRANCH  10  13
ENDBRANCH   4  10
ENDBRANCH   1   7
BRANCH   1  14
ATOM     14  C   UNL     1      -1.137   3.488   0.082  0.00  0.00    +0.197 C 
BRANCH  14  15
ATOM     15  C   UNL     1       0.279   3.972  -0.096  0.00  0.00    -0.018 A 
ATOM     16  C   UNL     1       1.316   3.331   0.555  0.00  0.00    +0.006 A 
ATOM     17  C   UNL     1       2.615   3.772   0.388  0.00  0.00    +0.000 A 
ATOM     18  C   UNL     1       2.876   4.861  -0.422  0.00  0.00    +0.000 A 
ATOM     19  C   UNL     1       1.839   5.506  -1.070  0.00  0.00    +0.000 A 
ATOM     20  C   UNL     1       0.540   5.061  -0.906  0.00  0.00    +0.006 A 
ENDBRANCH  14  15
BRANCH  14  21
ATOM     21  C   UNL     1      -1.532   3.614   1.531  0.00  0.00    +0.239 C 
ATOM     22  O   UNL     1      -1.858   2.628   2.159  0.00  0.00    -0.273 OA
ATOM     23  N   UNL     1      -1.523   4.822   2.129  0.00  0.00    -0.311 N 
ATOM     24  H   UNL     1      -1.263   5.609   1.627  0.00  0.00    +0.149 HD
BRANCH  23  25
ATOM     25  C   UNL     1      -1.908   4.944   3.538  0.00  0.00    +0.135 C 
BRANCH  25  26
ATOM     26  C   UNL     1      -1.812   6.410   3.967  0.00  0.00    +0.135 C 
ATOM     27  C   UNL     1      -2.130   6.551   5.472  0.00  0.00    +0.035 C 
ATOM     28  C   UNL     1      -2.914   7.879   5.567  0.00  0.00    +0.031 C 
ATOM     29  C   UNL     1      -2.977   8.383   4.108  0.00  0.00    +0.160 C 
ATOM     30  O   UNL     1      -2.823   7.196   3.298  0.00  0.00    -0.375 OA
ENDBRANCH  25  26
ENDBRANCH  23  25
ENDBRANCH  14  21
ENDBRANCH   1  14
BRANCH   2  31
ATOM     31  C   UNL     1      -2.509  -0.004  -0.673  0.00  0.00    +0.201 C 
BRANCH  31  32
ATOM     32  N   UNL     1      -3.914  -0.404  -0.771  0.00  0.00    -0.302 N 
ATOM     33  C   UNL     1      -4.232  -1.685  -1.046  0.00  0.00    +0.251 C 
ATOM     34  O   UNL     1      -3.352  -2.509  -1.212  0.00  0.00    -0.270 OA
ATOM     35  H   UNL     1      -4.616   0.252  -0.639  0.00  0.00    +0.150 HD
BRANCH  33  36
ATOM     36  C   UNL     1      -5.639  -2.085  -1.145  0.00  0.00    +0.074 A 
ATOM     37  C   UNL     1      -6.175  -3.335  -1.415  0.00  0.00    +0.021 A 
ATOM     38  C   UNL     1      -7.543  -3.434  -1.449  0.00  0.00    +0.008 A 
ATOM     39  C   UNL     1      -8.295  -2.326  -1.221  0.00  0.00    +0.046 A 
ATOM     40  S   UNL     1      -7.108  -1.093  -0.941  0.00  0.00    -0.092 S 
ENDBRANCH  33  36
ENDBRANCH  31  32
ENDBRANCH   2  31
TORSDOF 11
