REMARK  Name = ZINC36586822
REMARK  17 active torsions:
REMARK  status: ('A' for Active; 'I' for Inactive)
REMARK    1  A    between atoms: C_1  and  C_2
REMARK    2  A    between atoms: C_2  and  C_3
REMARK    3  A    between atoms: C_2  and  C_4
REMARK    4  A    between atoms: C_2  and  N_5
REMARK    5  A    between atoms: C_6  and  C_8
REMARK    6  A    between atoms: C_8  and  C_10
REMARK    7  A    between atoms: C_8  and  N_19
REMARK    8  A    between atoms: C_13  and  N_16
REMARK    9  A    between atoms: N_16  and  C_17
REMARK   10  A    between atoms: N_16  and  C_18
REMARK   11  A    between atoms: N_19  and  C_30
REMARK   12  A    between atoms: C_20  and  C_22
REMARK   13  A    between atoms: C_23  and  O_29
REMARK   14  A    between atoms: C_27  and  O_28
REMARK   15  A    between atoms: C_30  and  C_31
REMARK   16  A    between atoms: C_30  and  C_32
REMARK   17  A    between atoms: C_30  and  C_33
REMARK                            x       y       z     vdW  Elec       q    Type
REMARK                         _______ _______ _______ _____ _____    ______ ____
ROOT
ATOM      1  C   UNL     1       2.202   0.161  -3.828  0.00  0.00    +0.193 C 
ENDROOT
BRANCH   1   2
ATOM      2  C   UNL     1       2.487  -1.209  -4.388  0.00  0.00    -0.018 A 
ATOM      3  C   UNL     1       3.211  -2.122  -3.643  0.00  0.00    +0.008 A 
ATOM      4  C   UNL     1       3.474  -3.378  -4.154  0.00  0.00    +0.023 A 
ATOM      5  C   UNL     1       3.011  -3.723  -5.417  0.00  0.00    +0.029 A 
ATOM      6  C   UNL     1       2.285  -2.804  -6.163  0.00  0.00    +0.023 A 
ATOM      7  C   UNL     1       2.020  -1.551  -5.644  0.00  0.00    +0.008 A 
BRANCH   5   8
ATOM      8  N   UNL     1       3.276  -4.992  -5.937  0.00  0.00    -0.336 N 
ATOM      9  C   UNL     1       4.043  -5.961  -5.149  0.00  0.00    +0.129 C 
ATOM     10  C   UNL     1       2.787  -5.355  -7.270  0.00  0.00    +0.129 C 
ENDBRANCH   5   8
ENDBRANCH   1   2
BRANCH   1  12
ATOM     11  N   UNL     1      -0.222  -0.332  -3.785  0.00  0.00    -0.309 N 
ATOM     12  C   UNL     1       0.860   0.154  -3.143  0.00  0.00    +0.239 C 
ATOM     13  O   UNL     1       0.752   0.585  -2.015  0.00  0.00    -0.273 OA
ATOM     14  H   UNL     1      -0.136  -0.677  -4.687  0.00  0.00    +0.149 HD
BRANCH  11  16
ATOM     15  C   UNL     1      -1.923   1.094  -2.760  0.00  0.00    +0.031 C 
ATOM     16  C   UNL     1      -1.527  -0.339  -3.119  0.00  0.00    +0.026 C 
ATOM     17  C   UNL     1      -1.444  -1.181  -1.844  0.00  0.00    +0.031 C 
ATOM     18  C   UNL     1      -2.575  -0.938  -4.059  0.00  0.00    +0.031 C 
ENDBRANCH  11  16
ENDBRANCH   1  12
BRANCH   1  19
ATOM     19  N   UNL     1       3.242   0.519  -2.860  0.00  0.00    -0.277 N 
ATOM     20  C   UNL     1       3.281  -0.089  -1.658  0.00  0.00    +0.255 C 
ATOM     21  O   UNL     1       2.421  -0.894  -1.355  0.00  0.00    -0.270 OA
BRANCH  20  22
ATOM     22  C   UNL     1       4.365   0.222  -0.711  0.00  0.00    +0.119 A 
ATOM     23  C   UNL     1       4.220   1.270   0.209  0.00  0.00    +0.133 A 
ATOM     24  C   UNL     1       5.247   1.554   1.096  0.00  0.00    +0.046 A 
ATOM     25  C   UNL     1       6.410   0.807   1.076  0.00  0.00    +0.007 A 
ATOM     26  C   UNL     1       6.564  -0.228   0.173  0.00  0.00    +0.046 A 
ATOM     27  C   UNL     1       5.548  -0.532  -0.719  0.00  0.00    +0.133 A 
BRANCH  27  28
ATOM     28  O   UNL     1       5.698  -1.553  -1.600  0.00  0.00    -0.506 OA
ATOM     29  H   UNL     1       6.094  -1.290  -2.442  0.00  0.00    +0.292 HD
ENDBRANCH  27  28
BRANCH  23  30
ATOM     30  O   UNL     1       3.080   2.005   0.231  0.00  0.00    -0.506 OA
ATOM     31  H   UNL     1       2.399   1.656   0.822  0.00  0.00    +0.292 HD
ENDBRANCH  23  30
ENDBRANCH  20  22
BRANCH  19  32
ATOM     32  C   UNL     1       4.239   1.537  -3.199  0.00  0.00    +0.030 C 
ATOM     33  C   UNL     1       3.903   2.146  -4.562  0.00  0.00    +0.031 C 
ATOM     34  C   UNL     1       4.230   2.635  -2.133  0.00  0.00    +0.031 C 
ATOM     35  C   UNL     1       5.626   0.894  -3.257  0.00  0.00    +0.031 C 
ENDBRANCH  19  32
ENDBRANCH   1  19
TORSDOF 9
