REMARK  Name = ZINC13676624
REMARK  6 active torsions:
REMARK  status: ('A' for Active; 'I' for Inactive)
REMARK    1  A    between atoms: C_1  and  C_2
REMARK    2  A    between atoms: C_5  and  N_9
REMARK    3  A    between atoms: C_6  and  C_8
REMARK    4  A    between atoms: N_9  and  S_10
REMARK    5  A    between atoms: S_10  and  C_13
REMARK    6  A    between atoms: C_15  and  C_20
REMARK                            x       y       z     vdW  Elec       q    Type
REMARK                         _______ _______ _______ _____ _____    ______ ____
ROOT
ATOM      1  C   UNL     1       2.260   0.151  -2.634  0.00  0.00    +0.127 A 
ATOM      2  C   UNL     1       3.270  -0.105  -3.538  0.00  0.00    +0.043 A 
ATOM      3  C   UNL     1       3.144   0.324  -4.860  0.00  0.00    +0.039 A 
ATOM      4  C   UNL     1       2.001   1.020  -5.257  0.00  0.00    +0.014 A 
ATOM      5  C   UNL     1       1.000   1.275  -4.343  0.00  0.00    +0.023 A 
ATOM      6  C   UNL     1       1.129   0.842  -3.033  0.00  0.00    +0.068 A 
ATOM      7 CL   UNL     1      -0.135   1.167  -1.888  0.00  0.00    -0.082 Cl
ENDROOT
BRANCH   3   8
ATOM      8  C   UNL     1       4.220   0.048  -5.835  0.00  0.00    +0.251 C 
ATOM      9  O   UNL     1       5.270  -0.436  -5.460  0.00  0.00    -0.270 OA
ATOM     10  N   UNL     1       4.037   0.333  -7.139  0.00  0.00    -0.267 N 
ATOM     11  C   UNL     1       2.868   1.022  -7.692  0.00  0.00    +0.118 C 
ATOM     12  C   UNL     1       3.128   1.107  -9.205  0.00  0.00    +0.056 C 
ATOM     13  C   UNL     1       4.470   0.436  -9.399  0.00  0.00    -0.024 A 
ATOM     14  C   UNL     1       4.936   0.019  -8.162  0.00  0.00    +0.040 A 
ATOM     15  C   UNL     1       6.171  -0.628  -8.086  0.00  0.00    +0.024 A 
ATOM     16  C   UNL     1       6.914  -0.843  -9.228  0.00  0.00    +0.002 A 
ATOM     17  C   UNL     1       6.441  -0.420 -10.456  0.00  0.00    +0.000 A 
ATOM     18  C   UNL     1       5.215   0.214 -10.540  0.00  0.00    +0.005 A 
ENDBRANCH   3   8
BRANCH   1  19
ATOM     19  S   UNL     1       2.414  -0.396  -0.966  0.00  0.00    +0.074 S 
ATOM     20  O   UNL     1       3.694  -1.002  -0.853  0.00  0.00    -0.150 OA
ATOM     21  O   UNL     1       1.213  -1.089  -0.653  0.00  0.00    -0.150 OA
BRANCH  19  22
ATOM     22  N   UNL     1       2.444   0.955  -0.008  0.00  0.00    -0.216 N 
ATOM     23  H   UNL     1       1.705   1.141   0.591  0.00  0.00    +0.174 HD
BRANCH  22  28
ATOM     24  C   UNL     1       6.870   4.493  -0.235  0.00  0.00    +0.044 C 
ATOM     25  C   UNL     1       5.694   3.553  -0.175  0.00  0.00    -0.050 A 
ATOM     26  C   UNL     1       5.299   2.867  -1.310  0.00  0.00    +0.005 A 
ATOM     27  C   UNL     1       4.219   2.009  -1.259  0.00  0.00    +0.025 A 
ATOM     28  C   UNL     1       3.534   1.826  -0.064  0.00  0.00    +0.051 A 
ATOM     29  C   UNL     1       3.936   2.512   1.075  0.00  0.00    -0.028 A 
ATOM     30  C   UNL     1       5.015   3.373   1.016  0.00  0.00    +0.008 A 
ATOM     31  C   UNL     1       3.197   2.316   2.373  0.00  0.00    +0.046 C 
ENDBRANCH  22  28
ENDBRANCH  19  22
ENDBRANCH   1  19
TORSDOF 4
