REMARK  Name = ZINC62824924
REMARK  3 active torsions:
REMARK  status: ('A' for Active; 'I' for Inactive)
REMARK    1  A    between atoms: C_3  and  N_11
REMARK    2  A    between atoms: C_4  and  C_8
REMARK    3  A    between atoms: C_17  and  O_20
REMARK                            x       y       z     vdW  Elec       q    Type
REMARK                         _______ _______ _______ _____ _____    ______ ____
ROOT
ATOM      1  N   UNL     1       3.429   2.073  -0.040  0.00  0.00    -0.269 N 
ATOM      2  C   UNL     1       3.349   3.412  -0.172  0.00  0.00    +0.307 C 
ATOM      3  O   UNL     1       2.262   3.957  -0.182  0.00  0.00    -0.252 OA
ATOM      4  N   UNL     1       4.473   4.145  -0.293  0.00  0.00    -0.283 N 
ATOM      5  C   UNL     1       5.845   3.616  -0.302  0.00  0.00    +0.112 C 
ATOM      6  C   UNL     1       6.797   4.816  -0.489  0.00  0.00    +0.052 C 
ATOM      7  C   UNL     1       5.883   5.887  -1.141  0.00  0.00    +0.133 C 
ATOM      8  C   UNL     1       4.530   5.611  -0.443  0.00  0.00    +0.140 C 
ATOM      9  H   UNL     1       4.295   1.645   0.052  0.00  0.00    +0.156 HD
ENDROOT
BRANCH   1  12
ATOM     10  C   UNL     1      -0.028   1.003  -0.656  0.00  0.00    +0.016 A 
ATOM     11  C   UNL     1       1.121   1.767  -0.662  0.00  0.00    +0.025 A 
ATOM     12  C   UNL     1       2.269   1.303  -0.035  0.00  0.00    +0.049 A 
ATOM     13  C   UNL     1       2.255   0.052   0.605  0.00  0.00    +0.085 A 
ATOM     14  C   UNL     1       1.083  -0.711   0.602  0.00  0.00    +0.031 A 
ATOM     15  C   UNL     1      -0.047  -0.232  -0.026  0.00  0.00    +0.014 A 
ATOM     16  I   UNL     1      -1.801  -1.377  -0.029  0.00  0.00    -0.044 I 
BRANCH  13  17
ATOM     17  C   UNL     1       3.465  -0.452   1.273  0.00  0.00    +0.388 C 
ATOM     18  O   UNL     1       3.478  -1.581   1.744  0.00  0.00    -0.241 OA
ATOM     19  O   UNL     1       4.458   0.258   1.358  0.00  0.00    -0.241 OA
ENDBRANCH  13  17
ENDBRANCH   1  12
BRANCH   7  20
ATOM     20  O   UNL     1       6.352   7.206  -0.851  0.00  0.00    -0.390 OA
ATOM     21  H   UNL     1       5.812   7.909  -1.237  0.00  0.00    +0.210 HD
ENDBRANCH   7  20
TORSDOF 3
