REMARK  Name = ZINC06439540
REMARK  8 active torsions:
REMARK  status: ('A' for Active; 'I' for Inactive)
REMARK    1  A    between atoms: C_1  and  C_2
REMARK    2  A    between atoms: C_2  and  O_3
REMARK    3  A    between atoms: O_3  and  C_4
REMARK    4  A    between atoms: C_6  and  C_12
REMARK    5  A    between atoms: C_9  and  O_10
REMARK    6  A    between atoms: O_10  and  C_11
REMARK    7  A    between atoms: C_21  and  C_25
REMARK    8  A    between atoms: C_26  and  O_28
REMARK                            x       y       z     vdW  Elec       q    Type
REMARK                         _______ _______ _______ _____ _____    ______ ____
ROOT
ATOM      1  C   UNL     1       1.532   0.032   6.141  0.00  0.00    +0.224 C 
ATOM      2  N   UNL     1       2.222  -1.261   5.983  0.00  0.00    -0.313 N 
ATOM      3  C   UNL     1       1.441  -2.386   6.081  0.00  0.00    +0.080 A 
ATOM      4  C   UNL     1       0.231  -2.398   6.786  0.00  0.00    +0.068 A 
ATOM      5  C   UNL     1      -0.472  -3.669   6.815  0.00  0.00    -0.023 A 
ATOM      6  C   UNL     1       0.124  -4.683   6.147  0.00  0.00    -0.004 A 
ATOM      7  S   UNL     1       1.610  -3.979   5.481  0.00  0.00    -0.078 S 
ATOM      8  C   UNL     1      -0.371  -6.088   6.006  0.00  0.00    +0.046 C 
ATOM      9  C   UNL     1      -1.849  -6.125   6.422  0.00  0.00    -0.009 C 
ATOM     10  C   UNL     1      -2.004  -5.384   7.753  0.00  0.00    +0.008 C 
ATOM     11  C   UNL     1      -1.796  -3.884   7.540  0.00  0.00    +0.037 C 
ATOM     12  C   UNL     1      -2.299  -7.578   6.588  0.00  0.00    +0.008 C 
ATOM     13  C   UNL     1      -0.192  -1.130   7.434  0.00  0.00    +0.220 C 
ATOM     14  N   UNL     1       0.468  -0.046   7.135  0.00  0.00    -0.223 NA
ATOM     15  H   UNL     1       3.306  -1.287   5.797  0.00  0.00    +0.149 HD
ENDROOT
BRANCH   1  18
ATOM     16  C   UNL     1      -0.748   1.595   3.566  0.00  0.00    +0.162 A 
ATOM     17  C   UNL     1      -0.201   1.221   4.783  0.00  0.00    +0.056 A 
ATOM     18  C   UNL     1       0.938   0.439   4.817  0.00  0.00    -0.002 A 
ATOM     19  C   UNL     1       1.534   0.028   3.639  0.00  0.00    +0.011 A 
ATOM     20  C   UNL     1       0.990   0.393   2.422  0.00  0.00    +0.050 A 
ATOM     21  C   UNL     1      -0.148   1.182   2.380  0.00  0.00    +0.162 A 
BRANCH  21  22
ATOM     22  O   UNL     1      -0.682   1.547   1.184  0.00  0.00    -0.491 OA
ATOM     23  C   UNL     1      -0.013   1.086   0.008  0.00  0.00    +0.277 C 
ENDBRANCH  21  22
BRANCH  16  24
ATOM     24  O   UNL     1      -1.869   2.365   3.531  0.00  0.00    -0.489 OA
BRANCH  24  26
ATOM     25  C   UNL     1      -3.676   3.607   4.547  0.00  0.00    +0.048 C 
ATOM     26  C   UNL     1      -2.430   2.752   4.787  0.00  0.00    +0.226 C 
ENDBRANCH  24  26
ENDBRANCH  16  24
ENDBRANCH   1  18
BRANCH  13  27
ATOM     27  O   UNL     1      -1.228  -1.101   8.303  0.00  0.00    -0.492 OA
ATOM     28  H   UNL     1      -1.526  -0.152   8.773  0.00  0.00    +0.294 HD
ENDBRANCH  13  27
TORSDOF 5
