REMARK  Name = ZINC39683911
REMARK  6 active torsions:
REMARK  status: ('A' for Active; 'I' for Inactive)
REMARK    1  A    between atoms: C_1  and  C_2
REMARK    2  A    between atoms: C_2  and  C_4
REMARK    3  A    between atoms: C_2  and  N_8
REMARK    4  A    between atoms: N_6  and  C_7
REMARK    5  A    between atoms: C_9  and  C_11
REMARK    6  A    between atoms: C_22  and  C_24
REMARK                            x       y       z     vdW  Elec       q    Type
REMARK                         _______ _______ _______ _____ _____    ______ ____
ROOT
ATOM      1  C   UNL     1      -3.994  -0.879  -1.070  0.00  0.00    +0.100 C 
ATOM      2  C   UNL     1      -3.792  -2.349  -0.637  0.00  0.00    +0.121 C 
ATOM      3  N   UNL     1      -4.693  -3.126  -1.521  0.00  0.00    -0.296 N 
ATOM      4  C   UNL     1      -4.572  -2.465  -2.843  0.00  0.00    +0.115 C 
ATOM      5  C   UNL     1      -4.505  -0.960  -2.518  0.00  0.00    -0.004 C 
ATOM      6  C   UNL     1      -5.892  -0.335  -2.624  0.00  0.00    -0.010 C 
ATOM      7  C   UNL     1      -6.355  -0.376  -4.083  0.00  0.00    -0.082 C 
ATOM      8  N   UNL     1      -5.400   0.358  -4.922  0.00  0.00    +0.379 N 
ATOM      9  C   UNL     1      -4.090  -0.303  -4.887  0.00  0.00    -0.082 C 
ATOM     10  C   UNL     1      -3.532  -0.260  -3.462  0.00  0.00    -0.010 C 
ATOM     11  C   UNL     1      -5.450  -4.192  -1.197  0.00  0.00    +0.249 C 
ATOM     12  O   UNL     1      -6.069  -4.783  -2.061  0.00  0.00    -0.270 OA
ATOM     13  H   UNL     1      -5.738   0.382  -5.872  0.00  0.00    -0.086 HD
ATOM     14  H   UNL     1      -5.308   1.302  -4.577  0.00  0.00    -0.086 HD
ENDROOT
BRANCH  11  15
ATOM     15  C   UNL     1      -5.529  -4.643   0.207  0.00  0.00    +0.073 A 
ATOM     16  C   UNL     1      -4.411  -4.544   1.039  0.00  0.00    +0.016 A 
ATOM     17  C   UNL     1      -4.491  -4.966   2.349  0.00  0.00    +0.002 A 
ATOM     18  C   UNL     1      -5.674  -5.487   2.844  0.00  0.00    +0.023 A 
ATOM     19  C   UNL     1      -6.787  -5.589   2.028  0.00  0.00    +0.077 A 
ATOM     20  C   UNL     1      -6.723  -5.165   0.712  0.00  0.00    +0.154 A 
ATOM     21  F   UNL     1      -7.811  -5.259  -0.084  0.00  0.00    -0.203 F 
ATOM     22 CL   UNL     1      -8.266  -6.244   2.658  0.00  0.00    -0.081 Cl
ENDBRANCH  11  15
BRANCH   1  24
ATOM     23  N   UNL     1      -2.676   1.193  -0.771  0.00  0.00    -0.304 N 
ATOM     24  C   UNL     1      -2.686  -0.133  -1.016  0.00  0.00    +0.219 C 
ATOM     25  O   UNL     1      -1.642  -0.724  -1.192  0.00  0.00    -0.275 OA
ATOM     26  H   UNL     1      -3.511   1.666  -0.629  0.00  0.00    +0.149 HD
BRANCH  23  28
ATOM     27  C   UNL     1      -0.991   2.326  -2.134  0.00  0.00    +0.038 C 
ATOM     28  C   UNL     1      -1.405   1.919  -0.718  0.00  0.00    +0.156 C 
BRANCH  28  29
ATOM     29  C   UNL     1      -1.565   3.152   0.132  0.00  0.00    +0.233 C 
ATOM     30  O   UNL     1      -2.636   3.401   0.644  0.00  0.00    -0.274 OA
ATOM     31  N   UNL     1      -0.518   3.979   0.324  0.00  0.00    -0.317 N 
ATOM     32  C   UNL     1      -0.675   5.179   1.151  0.00  0.00    +0.128 C 
ATOM     33  H   UNL     1       0.338   3.781  -0.085  0.00  0.00    +0.148 HD
ENDBRANCH  28  29
ENDBRANCH  23  28
ENDBRANCH   1  24
TORSDOF 4
