REMARK  Name = ZINC14949597
REMARK  8 active torsions:
REMARK  status: ('A' for Active; 'I' for Inactive)
REMARK    1  A    between atoms: C_4  and  C_7
REMARK    2  A    between atoms: C_7  and  N_10
REMARK    3  A    between atoms: C_11  and  C_13
REMARK    4  A    between atoms: C_13  and  C_14
REMARK    5  A    between atoms: C_14  and  C_16
REMARK    6  A    between atoms: C_14  and  C_23
REMARK    7  A    between atoms: C_19  and  O_22
REMARK    8  A    between atoms: C_28  and  O_29
REMARK                            x       y       z     vdW  Elec       q    Type
REMARK                         _______ _______ _______ _____ _____    ______ ____
ROOT
ATOM      1  C   UNL     1      -3.354   2.124  -0.611  0.00  0.00    +0.061 C 
ENDROOT
BRANCH   1   2
ATOM      2  C   UNL     1      -4.822   1.790  -0.659  0.00  0.00    -0.039 A 
ATOM      3  C   UNL     1      -5.478   1.390   0.491  0.00  0.00    +0.008 A 
ATOM      4  C   UNL     1      -6.825   1.089   0.450  0.00  0.00    +0.045 A 
ATOM      5  C   UNL     1      -7.518   1.176  -0.748  0.00  0.00    +0.117 A 
ATOM      6  C   UNL     1      -6.857   1.572  -1.902  0.00  0.00    +0.045 A 
ATOM      7  C   UNL     1      -5.511   1.878  -1.855  0.00  0.00    +0.008 A 
BRANCH   5   8
ATOM      8  O   UNL     1      -8.843   0.874  -0.792  0.00  0.00    -0.507 OA
ATOM      9  H   UNL     1      -9.028  -0.056  -0.981  0.00  0.00    +0.292 HD
ENDBRANCH   5   8
ENDBRANCH   1   2
BRANCH   1  10
ATOM     10  C   UNL     1      -3.158   3.424   0.126  0.00  0.00    +0.002 A 
ATOM     11  C   UNL     1      -3.515   3.525   1.457  0.00  0.00    +0.008 A 
ATOM     12  C   UNL     1      -3.331   4.716   2.134  0.00  0.00    +0.001 A 
ATOM     13  C   UNL     1      -2.800   5.812   1.480  0.00  0.00    +0.004 A 
ATOM     14  C   UNL     1      -2.446   5.718   0.148  0.00  0.00    +0.046 A 
ATOM     15  C   UNL     1      -2.625   4.522  -0.533  0.00  0.00    +0.121 A 
BRANCH  15  16
ATOM     16  O   UNL     1      -2.277   4.426  -1.843  0.00  0.00    -0.506 OA
ATOM     17  H   UNL     1      -2.989   4.653  -2.457  0.00  0.00    +0.292 HD
ENDBRANCH  15  16
ENDBRANCH   1  10
BRANCH   1  18
ATOM     18  C   UNL     1      -2.600   1.008   0.116  0.00  0.00    +0.108 C 
BRANCH  18  20
ATOM     19  N   UNL     1      -0.253   0.424   0.635  0.00  0.00    -0.306 N 
ATOM     20  C   UNL     1      -1.119   1.280   0.057  0.00  0.00    +0.215 C 
ATOM     21  O   UNL     1      -0.707   2.270  -0.510  0.00  0.00    -0.276 OA
ATOM     22  H   UNL     1      -0.575  -0.406   1.018  0.00  0.00    +0.150 HD
BRANCH  19  23
ATOM     23  C   UNL     1       1.175   0.746   0.679  0.00  0.00    +0.060 C 
ATOM     24  C   UNL     1       2.100  -0.012  -0.275  0.00  0.00    +0.033 C 
ATOM     25  C   UNL     1       2.124  -0.324   1.223  0.00  0.00    +0.033 C 
BRANCH  23  29
ATOM     26  C   UNL     1       2.119   4.828   1.515  0.00  0.00    +0.000 A 
ATOM     27  C   UNL     1       1.523   4.044   2.485  0.00  0.00    +0.000 A 
ATOM     28  C   UNL     1       1.217   2.723   2.214  0.00  0.00    +0.006 A 
ATOM     29  C   UNL     1       1.508   2.186   0.974  0.00  0.00    -0.024 A 
ATOM     30  C   UNL     1       2.110   2.969   0.006  0.00  0.00    +0.006 A 
ATOM     31  C   UNL     1       2.411   4.291   0.275  0.00  0.00    +0.000 A 
ENDBRANCH  23  29
ENDBRANCH  19  23
ENDBRANCH  18  20
ENDBRANCH   1  18
TORSDOF 8
