REMARK  Name = ZINC09452517
REMARK  6 active torsions:
REMARK  status: ('A' for Active; 'I' for Inactive)
REMARK    1  A    between atoms: C_6  and  C_7
REMARK    2  A    between atoms: C_7  and  S_8
REMARK    3  A    between atoms: S_8  and  C_9
REMARK    4  A    between atoms: C_12  and  C_15
REMARK    5  A    between atoms: N_13  and  N_14
REMARK    6  A    between atoms: C_17  and  C_21
REMARK                            x       y       z     vdW  Elec       q    Type
REMARK                         _______ _______ _______ _____ _____    ______ ____
ROOT
ATOM      1  C   UNL     1      -3.334  -1.973  -1.519  0.00  0.00    +0.209 A 
ATOM      2  N   UNL     1      -3.906  -2.320  -0.388  0.00  0.00    -0.120 NA
ATOM      3  N   UNL     1      -4.992  -2.966  -0.623  0.00  0.00    -0.125 NA
ATOM      4  C   UNL     1      -5.180  -3.072  -1.917  0.00  0.00    +0.202 A 
ATOM      5  N   UNL     1      -4.127  -2.434  -2.531  0.00  0.00    -0.222 N 
ENDROOT
BRANCH   4   6
ATOM      6  C   UNL     1      -6.313  -3.745  -2.589  0.00  0.00    +0.132 A 
ATOM      7  C   UNL     1      -7.390  -4.384  -1.948  0.00  0.00    +0.061 A 
ATOM      8  C   UNL     1      -8.218  -4.875  -2.914  0.00  0.00    +0.066 A 
ATOM      9  N   UNL     1      -7.676  -4.553  -4.123  0.00  0.00    -0.276 N 
ATOM     10  H   UNL     1      -8.048  -4.774  -4.992  0.00  0.00    +0.189 HD
ATOM     11  N   UNL     1      -6.490  -3.844  -3.892  0.00  0.00    -0.170 NA
BRANCH   8  12
ATOM     12  C   UNL     1      -9.476  -5.621  -2.691  0.00  0.00    -0.000 A 
ATOM     13  C   UNL     1      -9.917  -5.877  -1.392  0.00  0.00    +0.013 A 
ATOM     14  C   UNL     1     -11.090  -6.573  -1.189  0.00  0.00    +0.039 A 
ATOM     15  C   UNL     1     -11.831  -7.018  -2.272  0.00  0.00    +0.123 A 
ATOM     16  C   UNL     1     -11.397  -6.767  -3.564  0.00  0.00    +0.039 A 
ATOM     17  C   UNL     1     -10.227  -6.067  -3.778  0.00  0.00    +0.013 A 
ATOM     18  F   UNL     1     -12.979  -7.700  -2.068  0.00  0.00    -0.205 F 
ENDBRANCH   8  12
ENDBRANCH   4   6
BRANCH   5  19
ATOM     19  N   UNL     1      -3.917  -2.294  -3.874  0.00  0.00    -0.295 N 
ATOM     20  H   UNL     1      -3.380  -3.067  -4.238  0.00  0.00    +0.163 HD
ATOM     21  H   UNL     1      -4.791  -2.196  -4.369  0.00  0.00    +0.163 HD
ENDBRANCH   5  19
BRANCH   1  22
ATOM     22  S   UNL     1      -1.829  -1.075  -1.697  0.00  0.00    -0.080 S 
BRANCH  22  23
ATOM     23  C   UNL     1      -1.293  -0.775   0.010  0.00  0.00    +0.112 C 
BRANCH  23  29
ATOM     24  C   UNL     1      -0.017   1.378   0.010  0.00  0.00    +0.005 A 
ATOM     25  C   UNL     1       1.171   2.086   0.002  0.00  0.00    +0.015 A 
ATOM     26  C   UNL     1       2.378   1.411  -0.013  0.00  0.00    +0.018 A 
ATOM     27  C   UNL     1       2.396   0.027  -0.021  0.00  0.00    +0.015 A 
ATOM     28  C   UNL     1       1.208  -0.679  -0.013  0.00  0.00    +0.005 A 
ATOM     29  C   UNL     1       0.002  -0.004   0.002  0.00  0.00    -0.037 A 
ATOM     30 BR   UNL     1       4.003   2.378  -0.024  0.00  0.00    -0.050 Br
ENDBRANCH  23  29
ENDBRANCH  22  23
ENDBRANCH   1  22
TORSDOF 6
