REMARK  Name = ZINC19863718
REMARK  7 active torsions:
REMARK  status: ('A' for Active; 'I' for Inactive)
REMARK    1  A    between atoms: C_1  and  C_2
REMARK    2  A    between atoms: C_2  and  C_21
REMARK    3  A    between atoms: N_3  and  N_4
REMARK    4  A    between atoms: C_5  and  C_7
REMARK    5  A    between atoms: C_7  and  O_8
REMARK    6  A    between atoms: O_8  and  C_9
REMARK    7  A    between atoms: C_14  and  C_15
REMARK                            x       y       z     vdW  Elec       q    Type
REMARK                         _______ _______ _______ _____ _____    ______ ____
ROOT
ATOM      1  N   UNL     1      -3.969   5.088   4.663  0.00  0.00    -0.204 N 
ATOM      2  C   UNL     1      -3.254   4.467   3.705  0.00  0.00    +0.270 C 
ATOM      3  O   UNL     1      -2.069   4.701   3.585  0.00  0.00    -0.270 OA
ATOM      4  H   UNL     1      -5.043   4.877   4.772  0.00  0.00    +0.177 HD
ENDROOT
BRANCH   1   7
ATOM      5  C   UNL     1      -5.506   6.312   6.593  0.00  0.00    +0.068 C 
ATOM      6  C   UNL     1      -4.035   6.602   6.444  0.00  0.00    +0.063 C 
ATOM      7  N   UNL     1      -3.346   6.004   5.521  0.00  0.00    -0.184 NA
BRANCH   6   8
ATOM      8  C   UNL     1      -3.378   7.566   7.346  0.00  0.00    -0.002 A 
ATOM      9  C   UNL     1      -4.118   8.216   8.337  0.00  0.00    +0.011 A 
ATOM     10  C   UNL     1      -3.497   9.111   9.182  0.00  0.00    +0.016 A 
ATOM     11  C   UNL     1      -2.145   9.376   9.042  0.00  0.00    +0.018 A 
ATOM     12  C   UNL     1      -1.407   8.739   8.058  0.00  0.00    +0.016 A 
ATOM     13  C   UNL     1      -2.014   7.837   7.211  0.00  0.00    +0.011 A 
ATOM     14 BR   UNL     1      -1.303  10.611  10.199  0.00  0.00    -0.050 Br
ENDBRANCH   6   8
ENDBRANCH   1   7
BRANCH   2  15
ATOM     15  C   UNL     1      -3.925   3.482   2.782  0.00  0.00    +0.326 C 
BRANCH  15  16
ATOM     16  O   UNL     1      -2.964   2.962   1.861  0.00  0.00    -0.482 OA
BRANCH  16  17
ATOM     17  C   UNL     1      -3.409   2.055   0.953  0.00  0.00    +0.132 A 
ATOM     18  C   UNL     1      -4.741   1.672   0.948  0.00  0.00    +0.048 A 
ATOM     19  C   UNL     1      -5.193   0.750   0.024  0.00  0.00    +0.023 A 
ATOM     20  C   UNL     1      -4.320   0.201  -0.902  0.00  0.00    +0.042 A 
ATOM     21  C   UNL     1      -2.992   0.576  -0.912  0.00  0.00    +0.035 A 
ATOM     22  C   UNL     1      -2.523   1.503   0.019  0.00  0.00    +0.063 A 
ATOM     23 CL   UNL     1      -4.901  -0.957  -2.057  0.00  0.00    -0.084 Cl
BRANCH  22  24
ATOM     24  C   UNL     1      -1.102   1.905   0.017  0.00  0.00    +0.171 A 
ATOM     25  C   UNL     1      -0.013   1.076   0.008  0.00  0.00    +0.072 A 
ATOM     26  C   UNL     1       1.085   1.960   0.002  0.00  0.00    +0.157 A 
ATOM     27  N   UNL     1       0.592   3.166   0.013  0.00  0.00    -0.086 NA
ATOM     28  O   UNL     1      -0.617   3.160   0.025  0.00  0.00    -0.355 OA
ENDBRANCH  22  24
ENDBRANCH  16  17
ENDBRANCH  15  16
ENDBRANCH   2  15
TORSDOF 6
