REMARK  Name = ZINC15063807
REMARK  7 active torsions:
REMARK  status: ('A' for Active; 'I' for Inactive)
REMARK    1  A    between atoms: C_1  and  C_2
REMARK    2  A    between atoms: C_3  and  C_16
REMARK    3  A    between atoms: N_8  and  C_9
REMARK    4  A    between atoms: N_8  and  C_10
REMARK    5  A    between atoms: C_16  and  C_18
REMARK    6  A    between atoms: C_16  and  N_55
REMARK    7  A    between atoms: C_19  and  N_55
REMARK                            x       y       z     vdW  Elec       q    Type
REMARK                         _______ _______ _______ _____ _____    ______ ____
ROOT
ATOM      1  C   UNL     1       1.220   3.568   0.009  0.00  0.00    +0.066 C 
ATOM      2  C   UNL     1       1.192   2.061   0.002  0.00  0.00    +0.045 A 
ATOM      3  C   UNL     1      -0.017   1.382   0.010  0.00  0.00    -0.022 A 
ATOM      4  C   UNL     1       0.002  -0.004   0.002  0.00  0.00    +0.118 A 
ATOM      5  N   UNL     1       1.165  -0.634  -0.013  0.00  0.00    -0.223 NA
ATOM      6  C   UNL     1       2.303   0.045  -0.020  0.00  0.00    +0.218 A 
ATOM      7  N   UNL     1       2.320   1.371  -0.013  0.00  0.00    -0.219 NA
ATOM      8  N   UNL     1       3.502  -0.645  -0.035  0.00  0.00    -0.300 N 
ATOM      9  C   UNL     1       4.770   0.088  -0.043  0.00  0.00    +0.132 C 
ENDROOT
BRANCH   8  10
ATOM     10  C   UNL     1       3.504  -2.110  -0.043  0.00  0.00    +0.076 C 
ATOM     11  C   UNL     1       4.237  -2.626   1.197  0.00  0.00    +0.022 C 
ATOM     12  C   UNL     1       4.239  -4.156   1.189  0.00  0.00    +0.002 C 
ATOM     13  C   UNL     1       4.948  -4.659  -0.070  0.00  0.00    +0.000 C 
ATOM     14  C   UNL     1       4.215  -4.143  -1.310  0.00  0.00    +0.002 C 
ATOM     15  C   UNL     1       4.213  -2.613  -1.302  0.00  0.00    +0.022 C 
ENDBRANCH   8  10
BRANCH   3  16
ATOM     16  C   UNL     1      -1.323   2.134   0.020  0.00  0.00    -0.040 C 
ATOM     17  C   UNL     1      -1.709   2.505  -1.413  0.00  0.00    -0.009 C 
BRANCH  16  18
ATOM     18  N   UNL     1      -2.370   1.277   0.606  0.00  0.00    +0.385 N 
ATOM     19  H   UNL     1      -1.959   0.699   1.348  0.00  0.00    -0.085 HD
ATOM     20  H   UNL     1      -2.759   0.669  -0.125  0.00  0.00    -0.085 HD
BRANCH  18  21
ATOM     21  C   UNL     1      -3.450   2.105   1.175  0.00  0.00    -0.070 C 
ATOM     22  C   UNL     1      -3.067   2.527   2.591  0.00  0.00    -0.005 C 
ATOM     23  C   UNL     1      -4.031   3.607   3.092  0.00  0.00    +0.067 C 
ATOM     24  S   UNL     1      -5.706   2.904   3.162  0.00  0.00    -0.161 S 
ATOM     25  C   UNL     1      -5.931   2.208   1.498  0.00  0.00    +0.067 C 
ATOM     26  C   UNL     1      -4.743   1.294   1.183  0.00  0.00    -0.005 C 
ENDBRANCH  18  21
ENDBRANCH  16  18
ENDBRANCH   3  16
TORSDOF 4
