REMARK  Name = ZINC39574232
REMARK  9 active torsions:
REMARK  status: ('A' for Active; 'I' for Inactive)
REMARK    1  A    between atoms: C_1  and  C_2
REMARK    2  A    between atoms: C_5  and  C_8
REMARK    3  A    between atoms: C_8  and  O_9
REMARK    4  A    between atoms: O_9  and  C_10
REMARK    5  A    between atoms: C_15  and  C_16
REMARK    6  A    between atoms: C_18  and  C_22
REMARK    7  A    between atoms: N_24  and  N_25
REMARK    8  A    between atoms: C_26  and  C_27
REMARK    9  A    between atoms: C_32  and  O_33
REMARK                            x       y       z     vdW  Elec       q    Type
REMARK                         _______ _______ _______ _____ _____    ______ ____
ROOT
ATOM      1  C   UNL     1       4.074  -5.686  -0.051  0.00  0.00    +0.095 C 
ATOM      2  C   UNL     1       3.999  -4.341  -0.038  0.00  0.00    +0.041 C 
ATOM      3  C   UNL     1       5.451  -3.895  -0.046  0.00  0.00    +0.240 C 
ATOM      4  N   UNL     1       6.192  -5.167  -0.064  0.00  0.00    -0.170 NA
ATOM      5  N   UNL     1       5.373  -6.088  -0.060  0.00  0.00    -0.153 NA
ENDROOT
BRANCH   1  11
ATOM      6  C   UNL     1       1.608  -6.079  -0.040  0.00  0.00    +0.130 A 
ATOM      7  C   UNL     1       0.522  -6.939  -0.044  0.00  0.00    +0.046 A 
ATOM      8  C   UNL     1       0.722  -8.306  -0.053  0.00  0.00    +0.004 A 
ATOM      9  C   UNL     1       2.005  -8.824  -0.058  0.00  0.00    +0.001 A 
ATOM     10  C   UNL     1       3.096  -7.979  -0.054  0.00  0.00    +0.014 A 
ATOM     11  C   UNL     1       2.906  -6.599  -0.050  0.00  0.00    +0.044 A 
BRANCH   6  12
ATOM     12  O   UNL     1       1.413  -4.734  -0.032  0.00  0.00    -0.487 OA
BRANCH  12  13
ATOM     13  C   UNL     1       0.059  -4.275  -0.021  0.00  0.00    +0.264 C 
BRANCH  13  18
ATOM     14  C   UNL     1      -0.018   1.503   0.010  0.00  0.00    +0.044 C 
ATOM     15  C   UNL     1       0.002  -0.004   0.002  0.00  0.00    -0.050 A 
ATOM     16  C   UNL     1       0.006  -0.689  -1.199  0.00  0.00    +0.004 A 
ATOM     17  C   UNL     1       0.025  -2.071  -1.206  0.00  0.00    +0.007 A 
ATOM     18  C   UNL     1       0.040  -2.768  -0.013  0.00  0.00    -0.010 A 
ATOM     19  C   UNL     1       0.037  -2.084   1.188  0.00  0.00    +0.007 A 
ATOM     20  C   UNL     1       0.023  -0.702   1.195  0.00  0.00    +0.004 A 
ENDBRANCH  13  18
ENDBRANCH  12  13
ENDBRANCH   6  12
ENDBRANCH   1  11
BRANCH   3  21
ATOM     21  C   UNL     1       5.751  -3.082  -1.279  0.00  0.00    +0.263 C 
ATOM     22  O   UNL     1       6.307  -3.599  -2.225  0.00  0.00    -0.271 OA
ATOM     23  N   UNL     1       5.402  -1.782  -1.330  0.00  0.00    -0.205 N 
ATOM     24  H   UNL     1       4.957  -1.369  -0.574  0.00  0.00    +0.177 HD
BRANCH  23  25
ATOM     25  N   UNL     1       5.682  -1.026  -2.477  0.00  0.00    -0.188 NA
ATOM     26  C   UNL     1       5.345   0.227  -2.526  0.00  0.00    +0.142 C 
BRANCH  26  27
ATOM     27  C   UNL     1       5.639   1.021  -3.732  0.00  0.00    +0.036 A 
ATOM     28  C   UNL     1       5.285   2.371  -3.787  0.00  0.00    +0.013 A 
ATOM     29  C   UNL     1       5.563   3.109  -4.918  0.00  0.00    +0.001 A 
ATOM     30  C   UNL     1       6.193   2.518  -6.000  0.00  0.00    +0.004 A 
ATOM     31  C   UNL     1       6.549   1.183  -5.958  0.00  0.00    +0.046 A 
ATOM     32  C   UNL     1       6.282   0.428  -4.827  0.00  0.00    +0.125 A 
BRANCH  32  33
ATOM     33  O   UNL     1       6.636  -0.882  -4.783  0.00  0.00    -0.506 OA
ATOM     34  H   UNL     1       5.954  -1.485  -5.109  0.00  0.00    +0.292 HD
ENDBRANCH  32  33
ENDBRANCH  26  27
ENDBRANCH  23  25
ENDBRANCH   3  21
TORSDOF 8
