REMARK  Name = ZINC39639737
REMARK  7 active torsions:
REMARK  status: ('A' for Active; 'I' for Inactive)
REMARK    1  A    between atoms: C_1  and  C_2
REMARK    2  A    between atoms: C_9  and  C_16
REMARK    3  A    between atoms: C_11  and  O_12
REMARK    4  A    between atoms: C_16  and  O_17
REMARK    5  A    between atoms: O_17  and  C_18
REMARK    6  A    between atoms: C_18  and  C_20
REMARK    7  A    between atoms: C_26  and  C_28
REMARK                            x       y       z     vdW  Elec       q    Type
REMARK                         _______ _______ _______ _____ _____    ______ ____
ROOT
ATOM      1  O   UNL     1      -3.343  -7.507  -0.517  0.00  0.00    -0.460 OA
ENDROOT
BRANCH   1   2
ATOM      2  C   UNL     1      -4.617  -7.900  -0.360  0.00  0.00    +0.311 C 
ATOM      3  O   UNL     1      -4.881  -9.077  -0.286  0.00  0.00    -0.251 OA
BRANCH   2   4
ATOM      4  C   UNL     1      -5.717  -6.874  -0.276  0.00  0.00    +0.110 C 
ATOM      5  C   UNL     1      -5.464  -5.952   0.920  0.00  0.00    +0.015 C 
ATOM      6  C   UNL     1      -6.581  -4.910   1.005  0.00  0.00    +0.001 C 
ATOM      7  C   UNL     1      -7.926  -5.618   1.182  0.00  0.00    +0.001 C 
ATOM      8  C   UNL     1      -8.179  -6.539  -0.013  0.00  0.00    +0.013 C 
ATOM      9  C   UNL     1      -7.062  -7.581  -0.099  0.00  0.00    +0.089 C 
BRANCH   9  10
ATOM     10  C   UNL     1      -7.038  -8.397   1.168  0.00  0.00    +0.224 C 
ATOM     11  O   UNL     1      -6.114  -8.282   1.946  0.00  0.00    -0.275 OA
ATOM     12  N   UNL     1      -8.042  -9.254   1.437  0.00  0.00    -0.271 N 
ATOM     13  C   UNL     1      -9.154  -9.556   0.532  0.00  0.00    +0.118 C 
ATOM     14  C   UNL     1     -10.022 -10.577   1.285  0.00  0.00    +0.056 C 
ATOM     15  C   UNL     1      -9.311 -10.782   2.604  0.00  0.00    -0.024 A 
ATOM     16  C   UNL     1      -8.173  -9.991   2.619  0.00  0.00    +0.039 A 
ATOM     17  C   UNL     1      -7.345 -10.016   3.742  0.00  0.00    +0.024 A 
ATOM     18  C   UNL     1      -7.656 -10.821   4.817  0.00  0.00    +0.002 A 
ATOM     19  C   UNL     1      -8.791 -11.610   4.791  0.00  0.00    +0.000 A 
ATOM     20  C   UNL     1      -9.621 -11.584   3.685  0.00  0.00    +0.005 A 
ENDBRANCH   9  10
ENDBRANCH   2   4
ENDBRANCH   1   2
BRANCH   1  21
ATOM     21  C   UNL     1      -2.352  -8.534  -0.590  0.00  0.00    +0.268 C 
BRANCH  21  30
ATOM     22  C   UNL     1       4.180  -8.801  -6.522  0.00  0.00    +0.109 C 
ATOM     23  C   UNL     1       3.377  -8.667  -5.253  0.00  0.00    +0.214 C 
ATOM     24  O   UNL     1       3.920  -8.302  -4.225  0.00  0.00    -0.276 OA
ATOM     25  N   UNL     1       2.088  -8.944  -5.256  0.00  0.00    -0.286 N 
ATOM     26  C   UNL     1       1.334  -8.687  -4.152  0.00  0.00    +0.037 A 
ATOM     27  C   UNL     1       0.069  -9.286  -4.015  0.00  0.00    +0.024 A 
ATOM     28  C   UNL     1      -0.693  -9.037  -2.918  0.00  0.00    +0.014 A 
ATOM     29  C   UNL     1      -0.216  -8.178  -1.912  0.00  0.00    +0.024 A 
ATOM     30  C   UNL     1      -0.992  -7.907  -0.765  0.00  0.00    +0.007 A 
ATOM     31  C   UNL     1      -0.478  -7.056   0.193  0.00  0.00    +0.095 A 
ATOM     32  C   UNL     1       0.775  -6.489   0.014  0.00  0.00    +0.285 A 
ATOM     33  O   UNL     1       1.507  -6.748  -1.075  0.00  0.00    -0.425 OA
ATOM     34  C   UNL     1       1.053  -7.572  -2.042  0.00  0.00    +0.141 A 
ATOM     35  C   UNL     1       1.823  -7.836  -3.161  0.00  0.00    +0.070 A 
ATOM     36  H   UNL     1       1.677  -9.332  -6.045  0.00  0.00    +0.155 HD
BRANCH  32  37
ATOM     37  O   UNL     1       1.265  -5.661   0.956  0.00  0.00    -0.480 OA
ATOM     38  H   UNL     1       2.143  -5.310   0.753  0.00  0.00    +0.295 HD
ENDBRANCH  32  37
ENDBRANCH  21  30
ENDBRANCH   1  21
TORSDOF 6
