REMARK  Name = ZINC35911708
REMARK  9 active torsions:
REMARK  status: ('A' for Active; 'I' for Inactive)
REMARK    1  A    between atoms: C_1  and  C_2
REMARK    2  A    between atoms: C_4  and  C_14
REMARK    3  A    between atoms: N_6  and  C_7
REMARK    4  A    between atoms: C_15  and  C_36
REMARK    5  A    between atoms: C_21  and  C_24
REMARK    6  A    between atoms: C_24  and  C_25
REMARK    7  A    between atoms: N_27  and  C_28
REMARK    8  A    between atoms: C_28  and  C_29
REMARK    9  A    between atoms: C_29  and  C_30
REMARK                            x       y       z     vdW  Elec       q    Type
REMARK                         _______ _______ _______ _____ _____    ______ ____
ROOT
ATOM      1  C   UNL     1       0.042  -3.331  -1.537  0.00  0.00    +0.088 A 
ATOM      2  C   UNL     1       0.057  -4.606  -0.981  0.00  0.00    +0.055 A 
ATOM      3  N   UNL     1       0.068  -5.656  -1.794  0.00  0.00    -0.227 NA
ATOM      4  C   UNL     1       0.065  -5.509  -3.096  0.00  0.00    +0.180 A 
ATOM      5  N   UNL     1       0.051  -4.296  -3.733  0.00  0.00    -0.258 N 
ATOM      6  C   UNL     1       0.034  -3.187  -2.935  0.00  0.00    +0.268 A 
ATOM      7  O   UNL     1       0.017  -2.074  -3.435  0.00  0.00    -0.266 OA
ATOM      8  C   UNL     1       0.051  -4.318  -5.107  0.00  0.00    +0.044 A 
ATOM      9  C   UNL     1       0.063  -5.470  -5.777  0.00  0.00    +0.071 A 
ATOM     10  S   UNL     1       0.076  -6.665  -4.450  0.00  0.00    -0.057 S 
ATOM     11  C   UNL     1       0.061  -4.792   0.514  0.00  0.00    +0.066 C 
ENDROOT
BRANCH   1  15
ATOM     12  C   UNL     1      -0.018   1.503   0.010  0.00  0.00    +0.066 C 
ATOM     13  C   UNL     1       0.002  -0.004   0.002  0.00  0.00    +0.042 A 
ATOM     14  C   UNL     1       0.008  -0.793  -1.094  0.00  0.00    +0.053 A 
ATOM     15  C   UNL     1       0.029  -2.135  -0.662  0.00  0.00    +0.100 A 
ATOM     16  N   UNL     1       0.035  -2.139   0.655  0.00  0.00    -0.166 NA
ATOM     17  N   UNL     1       0.023  -0.810   1.096  0.00  0.00    -0.236 N 
BRANCH  17  18
ATOM     18  C   UNL     1       0.030  -0.385   2.431  0.00  0.00    +0.067 A 
ATOM     19  C   UNL     1       0.702   0.777   2.788  0.00  0.00    +0.028 A 
ATOM     20  C   UNL     1       0.707   1.193   4.105  0.00  0.00    +0.003 A 
ATOM     21  C   UNL     1       0.044   0.455   5.068  0.00  0.00    +0.020 A 
ATOM     22  C   UNL     1      -0.626  -0.703   4.716  0.00  0.00    +0.043 A 
ATOM     23  C   UNL     1      -0.640  -1.122   3.398  0.00  0.00    +0.047 A 
ATOM     24 CL   UNL     1      -1.457  -1.627   5.928  0.00  0.00    -0.083 Cl
ENDBRANCH  17  18
ENDBRANCH   1  15
BRANCH   8  25
ATOM     25  C   UNL     1       0.035  -3.018  -5.869  0.00  0.00    +0.150 C 
BRANCH  25  26
ATOM     26  C   UNL     1      -1.386  -2.538  -6.015  0.00  0.00    +0.219 C 
ATOM     27  O   UNL     1      -2.297  -3.188  -5.547  0.00  0.00    -0.275 OA
ATOM     28  N   UNL     1      -1.645  -1.387  -6.666  0.00  0.00    -0.315 N 
ATOM     29  H   UNL     1      -0.917  -0.867  -7.041  0.00  0.00    +0.149 HD
BRANCH  28  30
ATOM     30  C   UNL     1      -3.027  -0.920  -6.809  0.00  0.00    +0.110 C 
BRANCH  30  31
ATOM     31  C   UNL     1      -3.043   0.400  -7.582  0.00  0.00    +0.074 C 
BRANCH  31  32
ATOM     32  C   UNL     1      -4.464   0.879  -7.728  0.00  0.00    +0.043 A 
ATOM     33  C   UNL     1      -4.804   2.148  -7.299  0.00  0.00    +0.023 A 
ATOM     34  C   UNL     1      -6.114   2.580  -7.438  0.00  0.00    +0.003 A 
ATOM     35  C   UNL     1      -7.037   1.715  -8.006  0.00  0.00    +0.020 A 
ATOM     36  C   UNL     1      -6.623   0.460  -8.412  0.00  0.00    +0.111 A 
ATOM     37  N   UNL     1      -5.367   0.085  -8.268  0.00  0.00    -0.260 NA
ENDBRANCH  31  32
ENDBRANCH  30  31
ENDBRANCH  28  30
ENDBRANCH  25  26
ENDBRANCH   8  25
TORSDOF 7
