REMARK  Name = ZINC16681915
REMARK  6 active torsions:
REMARK  status: ('A' for Active; 'I' for Inactive)
REMARK    1  A    between atoms: C_1  and  C_2
REMARK    2  A    between atoms: C_2  and  N_3
REMARK    3  A    between atoms: N_3  and  C_4
REMARK    4  A    between atoms: C_14  and  N_15
REMARK    5  A    between atoms: C_16  and  C_18
REMARK    6  A    between atoms: C_18  and  C_19
REMARK                            x       y       z     vdW  Elec       q    Type
REMARK                         _______ _______ _______ _____ _____    ______ ____
ROOT
ATOM      1  C   UNL     1       2.153   4.296  -0.893  0.00  0.00    +0.066 A 
ATOM      2  C   UNL     1       0.917   3.500  -0.837  0.00  0.00    +0.040 A 
ATOM      3  C   UNL     1       0.706   2.438  -1.718  0.00  0.00    +0.013 A 
ATOM      4  C   UNL     1      -0.461   1.711  -1.640  0.00  0.00    +0.001 A 
ATOM      5  C   UNL     1      -1.425   2.033  -0.696  0.00  0.00    +0.004 A 
ATOM      6  C   UNL     1      -1.226   3.077   0.183  0.00  0.00    +0.047 A 
ATOM      7  C   UNL     1      -0.056   3.823   0.122  0.00  0.00    +0.141 A 
ATOM      8  O   UNL     1       0.149   4.850   0.974  0.00  0.00    -0.421 OA
ATOM      9  C   UNL     1       1.270   5.589   0.939  0.00  0.00    +0.361 A 
ATOM     10  O   UNL     1       1.402   6.504   1.733  0.00  0.00    -0.243 OA
ATOM     11  C   UNL     1       2.296   5.335   0.011  0.00  0.00    +0.141 A 
ENDROOT
BRANCH  11  12
ATOM     12  N   UNL     1       3.456   6.128   0.002  0.00  0.00    -0.278 N 
ATOM     13  C   UNL     1       3.389   7.416  -0.390  0.00  0.00    +0.218 C 
ATOM     14  O   UNL     1       2.314   7.915  -0.649  0.00  0.00    -0.275 OA
ATOM     15  H   UNL     1       4.305   5.749   0.278  0.00  0.00    +0.155 HD
BRANCH  13  16
ATOM     16  C   UNL     1       4.648   8.236  -0.505  0.00  0.00    +0.103 C 
BRANCH  16  17
ATOM     17  C   UNL     1       4.294   9.652  -0.965  0.00  0.00    -0.020 C 
ATOM     18  C   UNL     1       3.601   9.588  -2.327  0.00  0.00    +0.011 C 
ATOM     19  C   UNL     1       3.248  11.004  -2.786  0.00  0.00    -0.010 C 
ATOM     20  C   UNL     1       4.526  11.836  -2.903  0.00  0.00    +0.007 C 
ATOM     21  C   UNL     1       5.220  11.900  -1.541  0.00  0.00    -0.010 C 
ATOM     22  C   UNL     1       5.573  10.484  -1.082  0.00  0.00    +0.011 C 
ATOM     23  C   UNL     1       4.281  12.548  -0.521  0.00  0.00    +0.007 C 
ATOM     24  C   UNL     1       3.003  11.716  -0.404  0.00  0.00    -0.010 C 
ATOM     25  C   UNL     1       2.309  11.652  -1.766  0.00  0.00    +0.007 C 
ATOM     26  C   UNL     1       3.356  10.300   0.056  0.00  0.00    +0.011 C 
ENDBRANCH  16  17
ENDBRANCH  13  16
ENDBRANCH  11  12
BRANCH   1  27
ATOM     27  N   UNL     1       3.140   4.017  -1.819  0.00  0.00    -0.342 N 
ATOM     28  H   UNL     1       3.992   3.726  -1.363  0.00  0.00    +0.146 HD
BRANCH  27  30
ATOM     29  C   UNL     1       4.476   4.822  -3.707  0.00  0.00    +0.024 C 
ATOM     30  C   UNL     1       3.380   5.170  -2.697  0.00  0.00    +0.098 C 
ENDBRANCH  27  30
ENDBRANCH   1  27
TORSDOF 5
