REMARK  Name = ZINC13958959
REMARK  6 active torsions:
REMARK  status: ('A' for Active; 'I' for Inactive)
REMARK    1  A    between atoms: C_1  and  C_2
REMARK    2  A    between atoms: C_5  and  C_36
REMARK    3  A    between atoms: C_10  and  C_12
REMARK    4  A    between atoms: N_14  and  C_28
REMARK    5  A    between atoms: N_19  and  C_22
REMARK    6  A    between atoms: C_28  and  C_29
REMARK                            x       y       z     vdW  Elec       q    Type
REMARK                         _______ _______ _______ _____ _____    ______ ____
ROOT
ATOM      1  C   UNL     1      -1.893   0.040   3.456  0.00  0.00    +0.081 A 
ATOM      2  C   UNL     1      -2.679   0.182   2.349  0.00  0.00    +0.101 A 
ATOM      3  N   UNL     1      -3.967  -0.239   2.327  0.00  0.00    -0.347 N 
ATOM      4  C   UNL     1      -4.574  -0.825   3.376  0.00  0.00    +0.101 A 
ATOM      5  C   UNL     1      -3.900  -1.030   4.552  0.00  0.00    +0.085 A 
ATOM      6  C   UNL     1      -4.210  -1.610   5.855  0.00  0.00    +0.283 A 
ATOM      7  O   UNL     1      -5.274  -2.094   6.207  0.00  0.00    -0.265 OA
ATOM      8  N   UNL     1      -3.078  -1.519   6.586  0.00  0.00    -0.196 N 
ATOM      9  N   UNL     1      -2.067  -0.905   5.842  0.00  0.00    -0.162 NA
ATOM     10  C   UNL     1      -2.486  -0.600   4.647  0.00  0.00    +0.112 A 
ENDROOT
BRANCH   1  18
ATOM     11  C   UNL     1       4.111  -0.438   2.411  0.00  0.00    +0.009 C 
ATOM     12  C   UNL     1       2.632  -0.820   2.503  0.00  0.00    +0.004 C 
ATOM     13  C   UNL     1       2.240  -1.640   1.272  0.00  0.00    +0.009 C 
ATOM     14  C   UNL     1       0.769  -2.051   1.378  0.00  0.00    +0.004 C 
ATOM     15  C   UNL     1      -0.106  -0.794   1.421  0.00  0.00    +0.111 C 
ATOM     16  N   UNL     1       0.360   0.069   2.515  0.00  0.00    -0.297 N 
ATOM     17  C   UNL     1       1.778   0.451   2.558  0.00  0.00    +0.111 C 
ATOM     18  C   UNL     1      -0.497   0.504   3.460  0.00  0.00    +0.250 C 
ATOM     19  O   UNL     1      -0.117   1.280   4.316  0.00  0.00    -0.270 OA
ATOM     20  C   UNL     1       0.387  -2.899   0.164  0.00  0.00    +0.009 C 
ENDBRANCH   1  18
BRANCH   8  21
ATOM     21  C   UNL     1      -2.941  -1.964   7.906  0.00  0.00    +0.069 A 
ATOM     22  C   UNL     1      -4.012  -1.872   8.786  0.00  0.00    +0.028 A 
ATOM     23  C   UNL     1      -3.875  -2.317  10.086  0.00  0.00    +0.002 A 
ATOM     24  C   UNL     1      -2.671  -2.844  10.515  0.00  0.00    +0.000 A 
ATOM     25  C   UNL     1      -1.601  -2.932   9.643  0.00  0.00    +0.002 A 
ATOM     26  C   UNL     1      -1.733  -2.494   8.340  0.00  0.00    +0.028 A 
ENDBRANCH   8  21
BRANCH   3  27
ATOM     27  C   UNL     1      -4.738  -0.048   1.096  0.00  0.00    +0.156 C 
BRANCH  27  28
ATOM     28  C   UNL     1      -4.482  -1.200   0.158  0.00  0.00    -0.028 A 
ATOM     29  C   UNL     1      -3.389  -1.171  -0.688  0.00  0.00    +0.008 A 
ATOM     30  C   UNL     1      -3.150  -2.229  -1.544  0.00  0.00    +0.038 A 
ATOM     31  C   UNL     1      -4.012  -3.312  -1.563  0.00  0.00    +0.123 A 
ATOM     32  C   UNL     1      -5.109  -3.337  -0.720  0.00  0.00    +0.038 A 
ATOM     33  C   UNL     1      -5.343  -2.281   0.140  0.00  0.00    +0.008 A 
ATOM     34  F   UNL     1      -3.782  -4.344  -2.404  0.00  0.00    -0.205 F 
ENDBRANCH  27  28
ENDBRANCH   3  27
TORSDOF 4
