REMARK  Name = ZINC43619565
REMARK  7 active torsions:
REMARK  status: ('A' for Active; 'I' for Inactive)
REMARK    1  A    between atoms: C_1  and  O_2
REMARK    2  A    between atoms: O_2  and  C_3
REMARK    3  A    between atoms: C_8  and  C_9
REMARK    4  A    between atoms: C_10  and  C_11
REMARK    5  A    between atoms: C_11  and  N_12
REMARK    6  A    between atoms: N_24  and  C_25
REMARK    7  A    between atoms: C_25  and  C_26
REMARK                            x       y       z     vdW  Elec       q    Type
REMARK                         _______ _______ _______ _____ _____    ______ ____
ROOT
ATOM      1  N   UNL     1      -1.738  -5.966  -0.283  0.00  0.00    +0.382 N 
ATOM      2  C   UNL     1      -0.978  -6.987  -1.016  0.00  0.00    -0.077 C 
ATOM      3  C   UNL     1      -1.936  -8.068  -1.521  0.00  0.00    +0.004 C 
ATOM      4  C   UNL     1      -2.652  -8.712  -0.335  0.00  0.00    +0.076 C 
ATOM      5  C   UNL     1      -3.354  -7.640   0.497  0.00  0.00    -0.007 C 
ATOM      6  C   UNL     1      -2.345  -6.566   0.911  0.00  0.00    -0.073 C 
ATOM      7  C   UNL     1      -3.920  -8.300   1.762  0.00  0.00    +0.013 C 
ATOM      8  C   UNL     1      -2.748  -8.748   2.639  0.00  0.00    +0.096 C 
ATOM      9  C   UNL     1      -1.754  -9.514   1.814  0.00  0.00    +0.216 C 
ATOM     10  O   UNL     1      -0.945 -10.211   2.389  0.00  0.00    -0.276 OA
ATOM     11  N   UNL     1      -1.710  -9.450   0.493  0.00  0.00    -0.294 N 
ATOM     12  H   UNL     1      -2.463  -5.596  -0.879  0.00  0.00    -0.081 HD
ENDROOT
BRANCH   1  13
ATOM     13  C   UNL     1      -0.835  -4.880   0.121  0.00  0.00    -0.051 C 
BRANCH  13  15
ATOM     14  C   UNL     1      -0.454  -2.873  -1.240  0.00  0.00    +0.005 C 
ATOM     15  C   UNL     1      -0.307  -4.184  -1.107  0.00  0.00    -0.045 C 
BRANCH  14  21
ATOM     16  C   UNL     1      -0.089  -0.806  -2.589  0.00  0.00    +0.127 A 
ATOM     17  C   UNL     1       0.405  -0.175  -3.718  0.00  0.00    +0.046 A 
ATOM     18  C   UNL     1       1.043  -0.910  -4.700  0.00  0.00    +0.004 A 
ATOM     19  C   UNL     1       1.192  -2.279  -4.562  0.00  0.00    +0.001 A 
ATOM     20  C   UNL     1       0.705  -2.922  -3.444  0.00  0.00    +0.011 A 
ATOM     21  C   UNL     1       0.064  -2.190  -2.444  0.00  0.00    +0.016 A 
BRANCH  16  23
ATOM     22  C   UNL     1      -0.836   1.322  -1.840  0.00  0.00    +0.277 C 
ATOM     23  O   UNL     1      -0.716  -0.085  -1.624  0.00  0.00    -0.495 OA
ENDBRANCH  16  23
ENDBRANCH  14  21
ENDBRANCH  13  15
ENDBRANCH   1  13
BRANCH  11  24
ATOM     24  C   UNL     1      -0.644 -10.197  -0.178  0.00  0.00    +0.143 C 
BRANCH  24  25
ATOM     25  C   UNL     1      -1.163 -11.550  -0.593  0.00  0.00    -0.030 A 
ATOM     26  C   UNL     1      -1.073 -12.621   0.277  0.00  0.00    +0.008 A 
ATOM     27  C   UNL     1      -1.550 -13.861  -0.102  0.00  0.00    +0.038 A 
ATOM     28  C   UNL     1      -2.117 -14.032  -1.353  0.00  0.00    +0.123 A 
ATOM     29  C   UNL     1      -2.206 -12.959  -2.223  0.00  0.00    +0.038 A 
ATOM     30  C   UNL     1      -1.734 -11.718  -1.840  0.00  0.00    +0.008 A 
ATOM     31  F   UNL     1      -2.582 -15.245  -1.725  0.00  0.00    -0.205 F 
ENDBRANCH  24  25
ENDBRANCH  11  24
TORSDOF 6
