REMARK  Name = ZINC12267414
REMARK  8 active torsions:
REMARK  status: ('A' for Active; 'I' for Inactive)
REMARK    1  A    between atoms: C_4  and  C_7
REMARK    2  A    between atoms: C_7  and  C_9
REMARK    3  A    between atoms: C_7  and  N_14
REMARK    4  A    between atoms: C_15  and  C_17
REMARK    5  A    between atoms: C_17  and  S_18
REMARK    6  A    between atoms: S_18  and  C_19
REMARK    7  A    between atoms: C_22  and  C_28
REMARK    8  A    between atoms: C_24  and  N_25
REMARK                            x       y       z     vdW  Elec       q    Type
REMARK                         _______ _______ _______ _____ _____    ______ ____
ROOT
ATOM      1  N   UNL     1       3.362  -3.031  -0.044  0.00  0.00    -0.303 N 
ATOM      2  C   UNL     1       3.476  -1.688  -0.039  0.00  0.00    +0.224 C 
ATOM      3  O   UNL     1       4.574  -1.173  -0.046  0.00  0.00    -0.275 OA
ATOM      4  H   UNL     1       2.484  -3.443  -0.038  0.00  0.00    +0.150 HD
ENDROOT
BRANCH   1   5
ATOM      5  C   UNL     1       4.564  -3.868  -0.060  0.00  0.00    +0.140 C 
BRANCH   5   9
ATOM      6  C   UNL     1       3.663  -7.685   1.632  0.00  0.00    +0.000 A 
ATOM      7  C   UNL     1       4.868  -7.071   1.916  0.00  0.00    +0.000 A 
ATOM      8  C   UNL     1       5.159  -5.835   1.369  0.00  0.00    +0.006 A 
ATOM      9  C   UNL     1       4.246  -5.215   0.537  0.00  0.00    -0.022 A 
ATOM     10  C   UNL     1       3.039  -5.827   0.257  0.00  0.00    +0.006 A 
ATOM     11  C   UNL     1       2.749  -7.065   0.801  0.00  0.00    +0.000 A 
ENDBRANCH   5   9
BRANCH   5  12
ATOM     12  C   UNL     1       5.034  -4.046  -1.480  0.00  0.00    +0.014 A 
ATOM     13  C   UNL     1       6.299  -4.044  -1.968  0.00  0.00    +0.013 A 
ATOM     14  C   UNL     1       6.495  -4.232  -3.323  0.00  0.00    +0.008 A 
ATOM     15  C   UNL     1       5.417  -4.403  -4.126  0.00  0.00    +0.045 A 
ATOM     16  S   UNL     1       4.069  -4.308  -2.959  0.00  0.00    -0.099 S 
ENDBRANCH   5  12
ENDBRANCH   1   5
BRANCH   2  17
ATOM     17  C   UNL     1       2.240  -0.827  -0.023  0.00  0.00    +0.170 C 
BRANCH  17  18
ATOM     18  S   UNL     1       2.721   0.922  -0.018  0.00  0.00    -0.114 S 
BRANCH  18  19
ATOM     19  C   UNL     1       1.185   1.787   0.000  0.00  0.00    +0.039 A 
ATOM     20  C   UNL     1      -0.013   1.076   0.008  0.00  0.00    +0.018 A 
ATOM     21  C   UNL     1      -1.205   1.740   0.017  0.00  0.00    +0.014 A 
ATOM     22  C   UNL     1      -1.228   3.139   0.030  0.00  0.00    +0.039 A 
ATOM     23  C   UNL     1      -0.027   3.855   0.022  0.00  0.00    +0.047 A 
ATOM     24  C   UNL     1       1.172   3.180   0.007  0.00  0.00    +0.140 A 
BRANCH  22  25
ATOM     25  C   UNL     1      -2.516   3.856   0.045  0.00  0.00    +0.242 C 
ATOM     26  O   UNL     1      -2.535   5.072   0.051  0.00  0.00    -0.270 OA
ATOM     27  N   UNL     1      -3.673   3.165   0.053  0.00  0.00    -0.325 N 
ATOM     28  H   UNL     1      -3.658   2.195   0.049  0.00  0.00    +0.145 HD
ATOM     29  H   UNL     1      -4.520   3.637   0.063  0.00  0.00    +0.145 HD
ENDBRANCH  22  25
BRANCH  24  30
ATOM     30  N   UNL     1       2.446   3.933  -0.001  0.00  0.00    +0.058 N 
ATOM     31  O   UNL     1       2.434   5.151   0.005  0.00  0.00    -0.126 OA
ATOM     32  O   UNL     1       3.507   3.335  -0.014  0.00  0.00    -0.126 OA
ENDBRANCH  24  30
ENDBRANCH  18  19
ENDBRANCH  17  18
ENDBRANCH   2  17
TORSDOF 8
