REMARK  Name = ZINC09442606
REMARK  6 active torsions:
REMARK  status: ('A' for Active; 'I' for Inactive)
REMARK    1  A    between atoms: C_1  and  C_2
REMARK    2  A    between atoms: C_12  and  C_14
REMARK    3  A    between atoms: C_14  and  O_15
REMARK    4  A    between atoms: O_15  and  C_16
REMARK    5  A    between atoms: C_16  and  C_18
REMARK    6  A    between atoms: C_23  and  N_24
REMARK                            x       y       z     vdW  Elec       q    Type
REMARK                         _______ _______ _______ _____ _____    ______ ____
ROOT
ATOM      1  C   UNL     1      -3.821   7.308  -0.109  0.00  0.00    +0.080 A 
ATOM      2  C   UNL     1      -2.683   8.113  -0.116  0.00  0.00    +0.017 A 
ATOM      3  C   UNL     1      -1.429   7.555   0.054  0.00  0.00    +0.013 A 
ATOM      4  C   UNL     1      -1.288   6.182   0.233  0.00  0.00    +0.035 A 
ATOM      5  C   UNL     1      -2.425   5.354   0.242  0.00  0.00    +0.054 A 
ATOM      6  C   UNL     1      -3.696   5.917   0.069  0.00  0.00    +0.050 A 
ATOM      7  C   UNL     1      -2.279   3.901   0.432  0.00  0.00    +0.196 C 
ATOM      8  O   UNL     1      -3.264   3.187   0.440  0.00  0.00    -0.287 OA
ATOM      9  C   UNL     1      -0.937   3.310   0.614  0.00  0.00    +0.033 A 
ATOM     10  C   UNL     1      -0.792   1.937   0.789  0.00  0.00    +0.012 A 
ATOM     11  C   UNL     1       0.469   1.393   0.965  0.00  0.00    +0.001 A 
ATOM     12  C   UNL     1       1.589   2.204   0.957  0.00  0.00    +0.001 A 
ATOM     13  C   UNL     1       1.464   3.570   0.778  0.00  0.00    +0.012 A 
ATOM     14  C   UNL     1       0.202   4.135   0.605  0.00  0.00    +0.033 A 
ATOM     15  C   UNL     1       0.058   5.592   0.414  0.00  0.00    +0.195 C 
ATOM     16  O   UNL     1       1.041   6.306   0.406  0.00  0.00    -0.287 OA
ENDROOT
BRANCH   6  17
ATOM     17  N   UNL     1      -4.819   5.115   0.075  0.00  0.00    -0.357 N 
ATOM     18  H   UNL     1      -5.655   5.453   0.432  0.00  0.00    +0.142 HD
ATOM     19  H   UNL     1      -4.771   4.212  -0.276  0.00  0.00    +0.142 HD
ENDBRANCH   6  17
BRANCH   1  20
ATOM     20  C   UNL     1      -5.154   7.912  -0.290  0.00  0.00    +0.341 C 
ATOM     21  O   UNL     1      -6.135   7.202  -0.389  0.00  0.00    -0.245 OA
BRANCH  20  22
ATOM     22  O   UNL     1      -5.285   9.252  -0.346  0.00  0.00    -0.452 OA
BRANCH  22  23
ATOM     23  C   UNL     1      -6.627   9.777  -0.525  0.00  0.00    +0.328 C 
BRANCH  23  34
ATOM     24  C   UNL     1      -7.284  14.055   0.542  0.00  0.00    +0.029 C 
ATOM     25  C   UNL     1      -7.789  13.454  -0.771  0.00  0.00    +0.083 C 
ATOM     26  C   UNL     1      -9.280  13.772  -0.967  0.00  0.00    +0.059 C 
ATOM     27  C   UNL     1      -9.956  12.419  -1.010  0.00  0.00    -0.024 A 
ATOM     28  C   UNL     1     -11.285  12.075  -1.161  0.00  0.00    +0.005 A 
ATOM     29  C   UNL     1     -11.662  10.745  -1.166  0.00  0.00    +0.000 A 
ATOM     30  C   UNL     1     -10.704   9.758  -1.020  0.00  0.00    +0.002 A 
ATOM     31  C   UNL     1      -9.376  10.097  -0.870  0.00  0.00    +0.024 A 
ATOM     32  C   UNL     1      -8.988  11.439  -0.863  0.00  0.00    +0.040 A 
ATOM     33  N   UNL     1      -7.711  11.991  -0.724  0.00  0.00    -0.265 N 
ATOM     34  C   UNL     1      -6.576  11.283  -0.564  0.00  0.00    +0.258 C 
ATOM     35  O   UNL     1      -5.513  11.857  -0.452  0.00  0.00    -0.271 OA
ENDBRANCH  23  34
ENDBRANCH  22  23
ENDBRANCH  20  22
ENDBRANCH   1  20
TORSDOF 5
