REMARK  Name = ZINC31809517
REMARK  7 active torsions:
REMARK  status: ('A' for Active; 'I' for Inactive)
REMARK    1  A    between atoms: C_1  and  C_2
REMARK    2  A    between atoms: C_18  and  O_33
REMARK    3  A    between atoms: C_21  and  C_23
REMARK    4  A    between atoms: C_28  and  O_29
REMARK    5  A    between atoms: O_29  and  C_30
REMARK    6  A    between atoms: C_30  and  C_31
REMARK    7  A    between atoms: C_30  and  C_32
REMARK                            x       y       z     vdW  Elec       q    Type
REMARK                         _______ _______ _______ _____ _____    ______ ____
ROOT
ATOM      1  C   UNL     1       0.137   1.751   0.008  0.00  0.00    +0.068 C 
ATOM      2  C   UNL     1       0.123   0.250   0.142  0.00  0.00    +0.067 A 
ATOM      3  C   UNL     1      -0.056  -0.663  -0.913  0.00  0.00    +0.037 A 
ATOM      4  C   UNL     1      -0.000  -1.925  -0.386  0.00  0.00    +0.166 A 
ATOM      5  N   UNL     1       0.204  -1.775   0.975  0.00  0.00    -0.194 N 
ATOM      6  N   UNL     1       0.282  -0.411   1.254  0.00  0.00    -0.168 NA
ATOM      7  C   UNL     1       0.315  -2.807   1.903  0.00  0.00    +0.187 A 
ATOM      8  C   UNL     1       0.516  -2.530   3.264  0.00  0.00    +0.152 A 
ATOM      9  C   UNL     1       0.621  -3.614   4.154  0.00  0.00    +0.163 A 
ATOM     10  N   UNL     1       0.811  -3.066   5.397  0.00  0.00    -0.329 N 
ATOM     11  H   UNL     1       0.920  -3.553   6.229  0.00  0.00    +0.168 HD
ATOM     12  C   UNL     1       0.819  -1.711   5.249  0.00  0.00    +0.198 A 
ATOM     13  N   UNL     1       0.646  -1.399   3.997  0.00  0.00    -0.231 NA
ATOM     14  N   UNL     1       0.526  -4.851   3.679  0.00  0.00    -0.216 NA
ATOM     15  C   UNL     1       0.337  -5.062   2.393  0.00  0.00    +0.226 A 
ATOM     16  N   UNL     1       0.228  -4.076   1.521  0.00  0.00    -0.214 NA
ATOM     17  N   UNL     1      -0.096  -3.139  -0.951  0.00  0.00    -0.197 NA
ATOM     18  C   UNL     1      -0.269  -3.594  -2.106  0.00  0.00    +0.199 C 
ATOM     19  C   UNL     1      -0.505  -2.882  -3.379  0.00  0.00    +0.165 C 
ATOM     20  S   UNL     1       0.442  -1.361  -3.525  0.00  0.00    -0.138 S 
ATOM     21  C   UNL     1      -0.270  -0.224  -2.330  0.00  0.00    +0.116 C 
ENDROOT
BRANCH  21  22
ATOM     22  C   UNL     1       0.357   1.134  -2.518  0.00  0.00    +0.012 A 
ATOM     23  C   UNL     1       1.723   1.291  -2.376  0.00  0.00    +0.008 A 
ATOM     24  C   UNL     1       2.298   2.536  -2.547  0.00  0.00    +0.001 A 
ATOM     25  C   UNL     1       1.509   3.627  -2.862  0.00  0.00    +0.004 A 
ATOM     26  C   UNL     1       0.144   3.476  -3.006  0.00  0.00    +0.046 A 
ATOM     27  C   UNL     1      -0.435   2.226  -2.839  0.00  0.00    +0.125 A 
BRANCH  27  28
ATOM     28  O   UNL     1      -1.778   2.073  -2.986  0.00  0.00    -0.489 OA
BRANCH  28  29
ATOM     29  C   UNL     1      -2.531   3.240  -3.321  0.00  0.00    +0.167 C 
ATOM     30  C   UNL     1      -2.447   3.485  -4.829  0.00  0.00    +0.051 C 
ATOM     31  C   UNL     1      -3.993   3.037  -2.918  0.00  0.00    +0.051 C 
ENDBRANCH  28  29
ENDBRANCH  27  28
ENDBRANCH  21  22
BRANCH  18  32
ATOM     32  O   UNL     1      -0.233  -4.939  -2.201  0.00  0.00    -0.495 OA
ATOM     33  H   UNL     1      -0.077  -5.389  -1.360  0.00  0.00    +0.293 HD
ENDBRANCH  18  32
TORSDOF 4
