REMARK  Name = ZINC22835827
REMARK  7 active torsions:
REMARK  status: ('A' for Active; 'I' for Inactive)
REMARK    1  A    between atoms: C_1  and  C_2
REMARK    2  A    between atoms: C_2  and  C_38
REMARK    3  A    between atoms: C_6  and  C_26
REMARK    4  A    between atoms: C_11  and  S_13
REMARK    5  A    between atoms: S_13  and  C_14
REMARK    6  A    between atoms: C_14  and  C_15
REMARK    7  A    between atoms: C_30  and  N_32
REMARK                            x       y       z     vdW  Elec       q    Type
REMARK                         _______ _______ _______ _____ _____    ______ ____
ROOT
ATOM      1  C   UNL     1      -0.019   1.526   0.010  0.00  0.00    +0.011 C 
ATOM      2  C   UNL     1       0.002  -0.004   0.002  0.00  0.00    -0.023 C 
ATOM      3  C   UNL     1       0.742  -0.503  -1.241  0.00  0.00    +0.058 C 
ATOM      4  C   UNL     1       2.169  -0.010  -1.215  0.00  0.00    +0.020 C 
ATOM      5  C   UNL     1       2.813   0.189  -0.045  0.00  0.00    +0.041 C 
ATOM      6  C   UNL     1       4.242   0.684   0.012  0.00  0.00    +0.176 C 
ATOM      7  N   UNL     1       4.860   0.578  -1.304  0.00  0.00    -0.220 N 
ATOM      8  C   UNL     1       4.156   0.364  -2.443  0.00  0.00    +0.219 A 
ATOM      9  N   UNL     1       4.998   0.329  -3.440  0.00  0.00    -0.187 NA
ATOM     10  C   UNL     1       6.245   0.510  -2.979  0.00  0.00    +0.211 A 
ATOM     11  N   UNL     1       6.201   0.665  -1.674  0.00  0.00    -0.141 NA
ATOM     12  N   UNL     1       2.779   0.218  -2.426  0.00  0.00    -0.287 N 
ATOM     13  C   UNL     1       2.172  -0.055   1.182  0.00  0.00    +0.164 C 
ATOM     14  O   UNL     1       2.786   0.112   2.218  0.00  0.00    -0.292 OA
ATOM     15  C   UNL     1       0.742  -0.517   1.242  0.00  0.00    +0.086 C 
ATOM     16  C   UNL     1      -1.431  -0.539  -0.001  0.00  0.00    +0.011 C 
ATOM     17  H   UNL     1       2.260   0.275  -3.243  0.00  0.00    +0.155 HD
ENDROOT
BRANCH   6  18
ATOM     18  C   UNL     1       4.255   2.124   0.454  0.00  0.00    -0.016 A 
ATOM     19  C   UNL     1       3.594   3.082  -0.292  0.00  0.00    +0.006 A 
ATOM     20  C   UNL     1       3.606   4.404   0.113  0.00  0.00    +0.003 A 
ATOM     21  C   UNL     1       4.279   4.768   1.264  0.00  0.00    +0.033 A 
ATOM     22  C   UNL     1       4.940   3.810   2.010  0.00  0.00    +0.127 A 
ATOM     23  C   UNL     1       4.924   2.487   1.607  0.00  0.00    +0.038 A 
BRANCH  22  24
ATOM     24  N   UNL     1       5.661   4.200   3.243  0.00  0.00    +0.056 N 
ATOM     25  O   UNL     1       5.672   5.356   3.596  0.00  0.00    -0.126 OA
ATOM     26  O   UNL     1       6.239   3.362   3.895  0.00  0.00    -0.126 OA
ENDBRANCH  22  24
ENDBRANCH   6  18
BRANCH  10  27
ATOM     27  S   UNL     1       7.706   0.535  -3.964  0.00  0.00    -0.080 S 
BRANCH  27  28
ATOM     28  C   UNL     1       7.101   0.268  -5.654  0.00  0.00    +0.113 C 
BRANCH  28  29
ATOM     29  C   UNL     1       8.265   0.268  -6.610  0.00  0.00    -0.029 A 
ATOM     30  C   UNL     1       8.681   1.431  -7.182  0.00  0.00    +0.005 A 
ATOM     31  C   UNL     1       9.756   1.450  -8.069  0.00  0.00    +0.001 A 
ATOM     32  C   UNL     1      10.421   0.305  -8.389  0.00  0.00    +0.008 A 
ATOM     33  C   UNL     1      10.020  -0.914  -7.818  0.00  0.00    -0.018 A 
ATOM     34  C   UNL     1       8.931  -0.933  -6.912  0.00  0.00    -0.014 A 
ATOM     35  C   UNL     1       8.534  -2.152  -6.336  0.00  0.00    +0.009 A 
ATOM     36  C   UNL     1       9.202  -3.295  -6.652  0.00  0.00    +0.001 A 
ATOM     37  C   UNL     1      10.277  -3.276  -7.538  0.00  0.00    +0.001 A 
ATOM     38  C   UNL     1      10.682  -2.116  -8.125  0.00  0.00    +0.008 A 
ENDBRANCH  28  29
ENDBRANCH  27  28
ENDBRANCH  10  27
TORSDOF 5
