REMARK  Name = ZINC19754588
REMARK  5 active torsions:
REMARK  status: ('A' for Active; 'I' for Inactive)
REMARK    1  A    between atoms: C_1  and  C_2
REMARK    2  A    between atoms: C_9  and  C_14
REMARK    3  A    between atoms: C_17  and  C_22
REMARK    4  A    between atoms: C_22  and  C_23
REMARK    5  A    between atoms: C_23  and  N_24
REMARK                            x       y       z     vdW  Elec       q    Type
REMARK                         _______ _______ _______ _____ _____    ______ ____
ROOT
ATOM      1  C   UNL     1       0.094  -4.260  -0.043  0.00  0.00    +0.090 A 
ATOM      2  C   UNL     1      -0.853  -5.079   0.477  0.00  0.00    +0.121 A 
ATOM      3  N   UNL     1      -0.444  -6.390   0.253  0.00  0.00    -0.297 N 
ATOM      4  C   UNL     1      -0.903  -7.664   0.504  0.00  0.00    +0.030 A 
ATOM      5  C   UNL     1      -0.200  -8.730   0.126  0.00  0.00    +0.070 A 
ATOM      6  S   UNL     1       1.224  -7.978  -0.646  0.00  0.00    -0.057 S 
ATOM      7  C   UNL     1       0.758  -6.281  -0.397  0.00  0.00    +0.178 A 
ATOM      8  N   UNL     1       1.069  -5.029  -0.569  0.00  0.00    -0.221 NA
ENDROOT
BRANCH   1  16
ATOM      9  C   UNL     1       1.905   1.882   1.378  0.00  0.00    +0.062 C 
ATOM     10  C   UNL     1       1.252   2.016   0.001  0.00  0.00    +0.256 C 
ATOM     11  C   UNL     1       2.143   1.389  -1.041  0.00  0.00    +0.258 C 
ATOM     12  O   UNL     1       2.971   2.060  -1.619  0.00  0.00    -0.271 OA
ATOM     13  N   UNL     1       2.015   0.075  -1.328  0.00  0.00    -0.280 N 
ATOM     14  C   UNL     1       1.026  -0.671  -0.671  0.00  0.00    +0.076 A 
ATOM     15  C   UNL     1       1.059  -2.054  -0.687  0.00  0.00    +0.037 A 
ATOM     16  C   UNL     1       0.065  -2.777  -0.029  0.00  0.00    +0.004 A 
ATOM     17  C   UNL     1      -0.955  -2.105   0.642  0.00  0.00    +0.014 A 
ATOM     18  C   UNL     1      -0.984  -0.725   0.655  0.00  0.00    +0.048 A 
ATOM     19  C   UNL     1       0.002  -0.004   0.002  0.00  0.00    +0.143 A 
ATOM     20  O   UNL     1      -0.016   1.356   0.009  0.00  0.00    -0.478 OA
ATOM     21  H   UNL     1       2.680  -0.394  -2.068  0.00  0.00    +0.155 HD
ENDBRANCH   1  16
BRANCH   4  22
ATOM     22  C   UNL     1      -2.218  -7.855   1.217  0.00  0.00    +0.035 C 
BRANCH  22  23
ATOM     23  C   UNL     1      -1.964  -8.041   2.714  0.00  0.00    -0.080 C 
BRANCH  23  24
ATOM     24  N   UNL     1      -3.245  -8.227   3.408  0.00  0.00    +0.378 N 
ATOM     25  H   UNL     1      -3.063  -8.361   4.485  0.00  0.00    -0.090 HD
ATOM     26  H   UNL     1      -3.753  -9.117   3.009  0.00  0.00    -0.090 HD
ATOM     27  H   UNL     1      -3.879  -7.341   3.251  0.00  0.00    -0.090 HD
ENDBRANCH  23  24
ENDBRANCH  22  23
ENDBRANCH   4  22
TORSDOF 4
