REMARK  Name = ZINC02155962
REMARK  9 active torsions:
REMARK  status: ('A' for Active; 'I' for Inactive)
REMARK    1  A    between atoms: C_1  and  C_2
REMARK    2  A    between atoms: C_2  and  O_3
REMARK    3  A    between atoms: O_3  and  C_4
REMARK    4  A    between atoms: C_6  and  C_14
REMARK    5  A    between atoms: C_8  and  C_11
REMARK    6  A    between atoms: C_9  and  O_10
REMARK    7  A    between atoms: C_11  and  C_12
REMARK    8  A    between atoms: N_20  and  C_21
REMARK    9  A    between atoms: C_26  and  C_27
REMARK                            x       y       z     vdW  Elec       q    Type
REMARK                         _______ _______ _______ _____ _____    ______ ____
ROOT
ATOM      1  C   UNL     1       0.869  -5.733   0.718  0.00  0.00    +0.028 C 
ATOM      2  C   UNL     1       0.049  -6.713   0.260  0.00  0.00    +0.078 C 
ATOM      3  C   UNL     1      -0.173  -7.177  -1.123  0.00  0.00    +0.256 C 
ATOM      4  O   UNL     1       0.413  -6.676  -2.064  0.00  0.00    -0.269 OA
ATOM      5  N   UNL     1      -1.038  -8.163  -1.292  0.00  0.00    -0.260 N 
ATOM      6  C   UNL     1      -1.692  -8.717  -0.214  0.00  0.00    +0.166 C 
ATOM      7  N   UNL     1      -2.574  -9.691  -0.205  0.00  0.00    -0.225 NA
ATOM      8  S   UNL     1      -1.046  -7.793   1.170  0.00  0.00    -0.049 S 
ATOM      9  H   UNL     1      -1.215  -8.499  -2.185  0.00  0.00    +0.157 HD
ENDROOT
BRANCH   7  10
ATOM     10  C   UNL     1      -3.151 -10.081   0.973  0.00  0.00    +0.071 A 
ATOM     11  C   UNL     1      -3.735  -9.133   1.816  0.00  0.00    +0.048 A 
ATOM     12  C   UNL     1      -4.315  -9.534   3.002  0.00  0.00    +0.043 A 
ATOM     13  C   UNL     1      -4.320 -10.873   3.357  0.00  0.00    +0.020 A 
ATOM     14  C   UNL     1      -3.743 -11.816   2.526  0.00  0.00    +0.007 A 
ATOM     15  C   UNL     1      -3.165 -11.431   1.334  0.00  0.00    -0.025 A 
ATOM     16  C   UNL     1      -2.544 -12.462   0.427  0.00  0.00    +0.046 C 
ATOM     17 CL   UNL     1      -5.040  -8.357   4.053  0.00  0.00    -0.083 Cl
ENDBRANCH   7  10
BRANCH   1  20
ATOM     18  C   UNL     1       2.931  -3.116  -1.005  0.00  0.00    +0.162 A 
ATOM     19  C   UNL     1       2.025  -3.709  -0.148  0.00  0.00    +0.057 A 
ATOM     20  C   UNL     1       1.830  -5.095  -0.191  0.00  0.00    -0.020 A 
ATOM     21  C   UNL     1       2.555  -5.871  -1.104  0.00  0.00    +0.015 A 
ATOM     22  C   UNL     1       3.456  -5.270  -1.955  0.00  0.00    +0.002 A 
ATOM     23  C   UNL     1       3.644  -3.895  -1.915  0.00  0.00    +0.162 A 
BRANCH  23  24
ATOM     24  O   UNL     1       4.530  -3.308  -2.761  0.00  0.00    -0.503 OA
ATOM     25  H   UNL     1       5.429  -3.247  -2.409  0.00  0.00    +0.292 HD
ENDBRANCH  23  24
BRANCH  18  26
ATOM     26  O   UNL     1       3.123  -1.770  -0.965  0.00  0.00    -0.489 OA
BRANCH  26  28
ATOM     27  C   UNL     1       2.708   0.452  -0.112  0.00  0.00    +0.048 C 
ATOM     28  C   UNL     1       2.359  -1.034  -0.009  0.00  0.00    +0.226 C 
ENDBRANCH  26  28
ENDBRANCH  18  26
BRANCH  22  29
ATOM     29  C   UNL     1       4.236  -6.107  -2.937  0.00  0.00    +0.065 C 
BRANCH  29  30
ATOM     30  C   UNL     1       5.576  -6.458  -2.344  0.00  0.00    -0.030 C 
ATOM     31  C   UNL     1       5.947  -7.711  -2.259  0.00  0.00    +0.004 C 
ENDBRANCH  29  30
ENDBRANCH  22  29
ENDBRANCH   1  20
TORSDOF 7
