REMARK  Name = ZINC40322726
REMARK  8 active torsions:
REMARK  status: ('A' for Active; 'I' for Inactive)
REMARK    1  A    between atoms: C_1  and  C_2
REMARK    2  A    between atoms: C_5  and  S_8
REMARK    3  A    between atoms: S_8  and  C_11
REMARK    4  A    between atoms: C_14  and  C_16
REMARK    5  A    between atoms: N_18  and  C_19
REMARK    6  A    between atoms: C_19  and  C_20
REMARK    7  A    between atoms: C_20  and  C_22
REMARK    8  A    between atoms: C_20  and  N_27
REMARK                            x       y       z     vdW  Elec       q    Type
REMARK                         _______ _______ _______ _____ _____    ______ ____
ROOT
ATOM      1  C   UNL     1       4.674  -5.508  -1.742  0.00  0.00    +0.279 C 
ATOM      2  O   UNL     1       5.699  -5.868  -1.194  0.00  0.00    -0.267 OA
ATOM      3  N   UNL     1       4.571  -5.569  -3.085  0.00  0.00    -0.310 N 
ATOM      4  H   UNL     1       3.754  -5.283  -3.522  0.00  0.00    +0.149 HD
ENDROOT
BRANCH   1   8
ATOM      5  C   UNL     1       1.584  -4.200  -0.402  0.00  0.00    +0.246 A 
ATOM      6  C   UNL     1       2.261  -4.378   0.753  0.00  0.00    +0.070 A 
ATOM      7  C   UNL     1       3.522  -4.896   0.418  0.00  0.00    +0.056 A 
ATOM      8  C   UNL     1       3.550  -5.010  -0.943  0.00  0.00    +0.192 A 
ATOM      9  O   UNL     1       2.362  -4.586  -1.422  0.00  0.00    -0.433 OA
BRANCH   5  10
ATOM     10  S   UNL     1      -0.055  -3.570  -0.544  0.00  0.00    +0.058 S 
ATOM     11  O   UNL     1      -0.693  -3.813   0.702  0.00  0.00    -0.161 OA
ATOM     12  O   UNL     1      -0.573  -4.059  -1.774  0.00  0.00    -0.161 OA
BRANCH  10  17
ATOM     13  C   UNL     1       0.376   2.421  -1.117  0.00  0.00    +0.044 C 
ATOM     14  C   UNL     1       0.268   0.925  -0.974  0.00  0.00    -0.050 A 
ATOM     15  C   UNL     1       0.278   0.121  -2.098  0.00  0.00    +0.005 A 
ATOM     16  C   UNL     1       0.179  -1.252  -1.967  0.00  0.00    +0.028 A 
ATOM     17  C   UNL     1       0.072  -1.820  -0.712  0.00  0.00    +0.097 A 
ATOM     18  C   UNL     1       0.063  -1.016   0.413  0.00  0.00    +0.028 A 
ATOM     19  C   UNL     1       0.166   0.356   0.282  0.00  0.00    +0.005 A 
ENDBRANCH  10  17
ENDBRANCH   5  10
ENDBRANCH   1   8
BRANCH   3  20
ATOM     20  C   UNL     1       5.693  -6.067  -3.884  0.00  0.00    +0.097 C 
BRANCH  20  21
ATOM     21  C   UNL     1       5.274  -6.156  -5.353  0.00  0.00    +0.016 C 
BRANCH  21  22
ATOM     22  N   UNL     1       4.053  -6.966  -5.465  0.00  0.00    +0.387 N 
ATOM     23  C   UNL     1       4.315  -8.317  -4.955  0.00  0.00    -0.078 C 
ATOM     24  C   UNL     1       3.026  -9.140  -4.995  0.00  0.00    -0.019 C 
ATOM     25  C   UNL     1       2.526  -9.226  -6.440  0.00  0.00    -0.004 C 
ATOM     26  C   UNL     1       2.327  -7.810  -6.986  0.00  0.00    -0.019 C 
ATOM     27  C   UNL     1       3.642  -7.036  -6.872  0.00  0.00    -0.078 C 
ATOM     28  H   UNL     1       3.317  -6.540  -4.922  0.00  0.00    -0.081 HD
ENDBRANCH  21  22
BRANCH  21  29
ATOM     29  C   UNL     1       5.009  -4.771  -5.884  0.00  0.00    +0.093 A 
ATOM     30  C   UNL     1       5.854  -4.041  -6.634  0.00  0.00    +0.043 A 
ATOM     31  C   UNL     1       5.205  -2.815  -6.907  0.00  0.00    +0.041 A 
ATOM     32  C   UNL     1       4.002  -2.869  -6.307  0.00  0.00    +0.195 A 
ATOM     33  O   UNL     1       3.886  -4.059  -5.694  0.00  0.00    -0.469 OA
ENDBRANCH  21  29
ENDBRANCH  20  21
ENDBRANCH   3  20
TORSDOF 7
