REMARK  Name = ZINC01497174
REMARK  6 active torsions:
REMARK  status: ('A' for Active; 'I' for Inactive)
REMARK    1  A    between atoms: C_1  and  C_2
REMARK    2  A    between atoms: C_7  and  C_13
REMARK    3  A    between atoms: C_14  and  C_15
REMARK    4  A    between atoms: C_15  and  C_17
REMARK    5  A    between atoms: C_19  and  C_31
REMARK    6  A    between atoms: C_22  and  C_30
REMARK                            x       y       z     vdW  Elec       q    Type
REMARK                         _______ _______ _______ _____ _____    ______ ____
ROOT
ATOM      1  C   UNL     1       7.341  -0.216  -0.068  0.00  0.00    +0.176 C 
ATOM      2  C   UNL     1       8.421  -1.142   0.468  0.00  0.00    -0.016 C 
ATOM      3  C   UNL     1       8.860  -2.106  -0.373  0.00  0.00    -0.018 C 
ATOM      4  C   UNL     1       9.902  -2.991  -0.028  0.00  0.00    +0.009 C 
ATOM      5  C   UNL     1      10.432  -3.813  -0.959  0.00  0.00    -0.050 C 
ATOM      6  C   UNL     1       9.977  -3.833  -2.343  0.00  0.00    +0.001 C 
ATOM      7  C   UNL     1       8.946  -3.092  -2.758  0.00  0.00    +0.000 C 
ATOM      8  C   UNL     1       8.239  -2.214  -1.751  0.00  0.00    +0.127 C 
ATOM      9  N   UNL     1       8.180  -0.854  -2.295  0.00  0.00    -0.304 N 
ATOM     10  C   UNL     1       7.727   0.143  -1.490  0.00  0.00    +0.229 C 
ATOM     11  O   UNL     1       7.634   1.282  -1.896  0.00  0.00    -0.275 OA
ATOM     12  C   UNL     1      11.539  -4.750  -0.549  0.00  0.00    +0.044 C 
ATOM     13  H   UNL     1       8.457  -0.670  -3.206  0.00  0.00    +0.150 HD
ENDROOT
BRANCH   2  14
ATOM     14  C   UNL     1       8.960  -0.997   1.829  0.00  0.00    -0.020 A 
ATOM     15  C   UNL     1       8.134  -1.206   2.938  0.00  0.00    +0.008 A 
ATOM     16  C   UNL     1       8.648  -1.073   4.211  0.00  0.00    +0.001 A 
ATOM     17  C   UNL     1       9.975  -0.725   4.392  0.00  0.00    +0.000 A 
ATOM     18  C   UNL     1      10.797  -0.511   3.300  0.00  0.00    +0.001 A 
ATOM     19  C   UNL     1      10.300  -0.644   2.021  0.00  0.00    +0.008 A 
ENDBRANCH   2  14
BRANCH   1  20
ATOM     20  C   UNL     1       6.009  -0.921  -0.059  0.00  0.00    +0.172 C 
ATOM     21  O   UNL     1       5.965  -2.135  -0.065  0.00  0.00    -0.292 OA
BRANCH  20  23
ATOM     22  C   UNL     1       3.619  -0.805  -0.036  0.00  0.00    +0.014 C 
ATOM     23  C   UNL     1       4.816  -0.172  -0.044  0.00  0.00    +0.048 C 
BRANCH  22  30
ATOM     24  C   UNL     1      -2.540   4.143   0.051  0.00  0.00    +0.044 C 
ATOM     25  C   UNL     1      -1.229   3.398   0.034  0.00  0.00    -0.048 A 
ATOM     26  C   UNL     1      -0.035   4.115   0.026  0.00  0.00    +0.004 A 
ATOM     27  C   UNL     1       1.165   3.471   0.011  0.00  0.00    +0.010 A 
ATOM     28  C   UNL     1       1.199   2.065   0.002  0.00  0.00    +0.001 A 
ATOM     29  C   UNL     1       2.418   1.368  -0.014  0.00  0.00    +0.021 A 
ATOM     30  C   UNL     1       2.375  -0.025  -0.021  0.00  0.00    +0.013 A 
ATOM     31  C   UNL     1       1.124  -0.678  -0.012  0.00  0.00    +0.137 A 
ATOM     32  N   UNL     1       0.002  -0.004   0.002  0.00  0.00    -0.235 NA
ATOM     33  C   UNL     1      -0.016   1.335   0.009  0.00  0.00    +0.073 A 
ATOM     34  C   UNL     1      -1.233   2.037   0.031  0.00  0.00    +0.031 A 
ATOM     35 CL   UNL     1       1.072  -2.413  -0.022  0.00  0.00    -0.061 Cl
ENDBRANCH  22  30
ENDBRANCH  20  23
ENDBRANCH   1  20
TORSDOF 4
