REMARK  Name = ZINC05513466
REMARK  1 active torsions:
REMARK  status: ('A' for Active; 'I' for Inactive)
REMARK    1  A    between atoms: C_6  and  C_7
REMARK                            x       y       z     vdW  Elec       q    Type
REMARK                         _______ _______ _______ _____ _____    ______ ____
ROOT
ATOM      1  C   UNL     1      -1.263  -0.762   0.011  0.00  0.00    +0.079 C 
ATOM      2  N   UNL     1      -2.375  -0.117   0.020  0.00  0.00    -0.165 NA
ATOM      3  N   UNL     1      -3.658  -0.650   0.027  0.00  0.00    -0.177 N 
ATOM      4  C   UNL     1      -4.716   0.085  -0.452  0.00  0.00    +0.219 A 
ATOM      5  N   UNL     1      -4.510   1.350  -0.937  0.00  0.00    -0.327 N 
ATOM      6  N   UNL     1      -5.927  -0.429  -0.446  0.00  0.00    -0.179 NA
ATOM      7  C   UNL     1      -6.148  -1.673   0.027  0.00  0.00    +0.227 A 
ATOM      8  N   UNL     1      -7.371  -2.171   0.023  0.00  0.00    -0.368 N 
ATOM      9  N   UNL     1      -5.122  -2.412   0.505  0.00  0.00    -0.187 NA
ATOM     10  C   UNL     1      -3.911  -1.917   0.508  0.00  0.00    +0.196 A 
ATOM     11  S   UNL     1      -2.538  -2.845   1.128  0.00  0.00    -0.079 S 
ATOM     12  C   UNL     1      -1.211  -2.275   0.002  0.00  0.00    +0.135 C 
ATOM     13  H   UNL     1      -3.617   1.728  -0.941  0.00  0.00    +0.145 HD
ATOM     14  H   UNL     1      -8.108  -1.642  -0.320  0.00  0.00    +0.159 HD
ATOM     15  H   UNL     1      -5.257   1.867  -1.275  0.00  0.00    +0.145 HD
ATOM     16  H   UNL     1      -7.532  -3.065   0.362  0.00  0.00    +0.159 HD
ENDROOT
BRANCH   1  22
ATOM     17  C   UNL     1      -0.017   1.393   0.010  0.00  0.00    +0.011 A 
ATOM     18  C   UNL     1       1.170   2.095   0.002  0.00  0.00    +0.016 A 
ATOM     19  C   UNL     1       2.378   1.419  -0.013  0.00  0.00    +0.018 A 
ATOM     20  C   UNL     1       2.404   0.035  -0.021  0.00  0.00    +0.016 A 
ATOM     21  C   UNL     1       1.225  -0.680  -0.013  0.00  0.00    +0.011 A 
ATOM     22  C   UNL     1       0.002  -0.004   0.002  0.00  0.00    -0.001 A 
ATOM     23 BR   UNL     1       4.000   2.391  -0.025  0.00  0.00    -0.050 Br
ENDBRANCH   1  22
TORSDOF 1
