REMARK  Name = ZINC39646959
REMARK  5 active torsions:
REMARK  status: ('A' for Active; 'I' for Inactive)
REMARK    1  A    between atoms: C_1  and  C_2
REMARK    2  A    between atoms: C_6  and  C_10
REMARK    3  A    between atoms: C_10  and  S_11
REMARK    4  A    between atoms: S_11  and  C_12
REMARK    5  A    between atoms: C_21  and  C_23
REMARK                            x       y       z     vdW  Elec       q    Type
REMARK                         _______ _______ _______ _____ _____    ______ ____
ROOT
ATOM      1  C   UNL     1      -0.018   1.503   0.010  0.00  0.00    +0.041 C 
ATOM      2  C   UNL     1       0.002  -0.004   0.002  0.00  0.00    -0.034 C 
ATOM      3  C   UNL     1       0.006  -0.691  -1.150  0.00  0.00    +0.071 C 
ATOM      4  C   UNL     1       0.026  -2.167  -1.069  0.00  0.00    +0.112 C 
ATOM      5  N   UNL     1       0.030  -2.895  -2.160  0.00  0.00    -0.227 NA
ATOM      6  C   UNL     1       0.016  -2.337  -3.360  0.00  0.00    +0.134 C 
ATOM      7  N   UNL     1      -0.003  -1.040  -3.554  0.00  0.00    -0.160 NA
ATOM      8  C   UNL     1      -0.008  -0.158  -2.549  0.00  0.00    +0.271 C 
ATOM      9  O   UNL     1      -0.026   1.042  -2.765  0.00  0.00    -0.268 OA
ATOM     10  S   UNL     1       0.040  -2.523   0.670  0.00  0.00    -0.086 S 
ATOM     11  C   UNL     1       0.025  -0.793   1.292  0.00  0.00    +0.192 C 
ENDROOT
BRANCH  11  12
ATOM     12  C   UNL     1       1.270  -0.492   2.086  0.00  0.00    +0.373 C 
ATOM     13  O   UNL     1       1.193  -0.287   3.285  0.00  0.00    -0.245 OA
ATOM     14  O   UNL     1       2.354  -0.453   1.529  0.00  0.00    -0.245 OA
ENDBRANCH  11  12
BRANCH   6  15
ATOM     15  C   UNL     1       0.021  -3.239  -4.567  0.00  0.00    +0.148 C 
BRANCH  15  16
ATOM     16  S   UNL     1      -0.001  -2.231  -6.076  0.00  0.00    -0.115 S 
BRANCH  16  17
ATOM     17  C   UNL     1       0.007  -3.416  -7.380  0.00  0.00    +0.046 A 
ATOM     18  C   UNL     1       0.021  -4.773  -7.087  0.00  0.00    +0.056 A 
ATOM     19  C   UNL     1       0.028  -5.701  -8.114  0.00  0.00    +0.125 A 
ATOM     20  C   UNL     1       0.020  -5.276  -9.432  0.00  0.00    +0.041 A 
ATOM     21  C   UNL     1       0.005  -3.925  -9.727  0.00  0.00    +0.042 A 
ATOM     22  C   UNL     1      -0.006  -2.993  -8.706  0.00  0.00    +0.137 A 
ATOM     23  F   UNL     1      -0.025  -1.674  -8.995  0.00  0.00    -0.204 F 
ATOM     24  F   UNL     1       0.042  -7.021  -7.830  0.00  0.00    -0.205 F 
ENDBRANCH  16  17
ENDBRANCH  15  16
ENDBRANCH   6  15
TORSDOF 4
