REMARK  Name = ZINC12558517
REMARK  11 active torsions:
REMARK  status: ('A' for Active; 'I' for Inactive)
REMARK    1  A    between atoms: C_1  and  O_2
REMARK    2  A    between atoms: O_2  and  C_3
REMARK    3  A    between atoms: C_7  and  C_11
REMARK    4  A    between atoms: C_8  and  O_9
REMARK    5  A    between atoms: O_9  and  C_10
REMARK    6  A    between atoms: C_13  and  C_32
REMARK    7  A    between atoms: C_15  and  C_27
REMARK    8  A    between atoms: C_15  and  O_31
REMARK    9  A    between atoms: N_16  and  C_20
REMARK   10  A    between atoms: C_20  and  C_21
REMARK   11  A    between atoms: C_32  and  C_34
REMARK                            x       y       z     vdW  Elec       q    Type
REMARK                         _______ _______ _______ _____ _____    ______ ____
ROOT
ATOM      1  C   UNL     1       2.490   1.044  -0.017  0.00  0.00    +0.124 C 
ATOM      2  C   UNL     1       3.012   0.895   1.416  0.00  0.00    +0.145 C 
ATOM      3  C   UNL     1       4.287   0.045   1.385  0.00  0.00    +0.246 C 
ATOM      4  N   UNL     1       3.997  -1.230   0.727  0.00  0.00    -0.245 N 
ATOM      5  C   UNL     1       3.045  -1.330  -0.212  0.00  0.00    +0.305 C 
ATOM      6  O   UNL     1       2.851  -2.411  -0.735  0.00  0.00    -0.253 OA
ATOM      7  N   UNL     1       2.298  -0.285  -0.598  0.00  0.00    -0.291 N 
ATOM      8  H   UNL     1       1.616  -0.413  -1.277  0.00  0.00    +0.151 HD
ENDROOT
BRANCH   1  13
ATOM      9  C   UNL     1      -0.056   3.845   0.023  0.00  0.00    +0.162 A 
ATOM     10  C   UNL     1      -1.244   3.131   0.031  0.00  0.00    +0.049 A 
ATOM     11  C   UNL     1      -1.220   1.749   0.017  0.00  0.00    +0.004 A 
ATOM     12  C   UNL     1      -0.013   1.076   0.008  0.00  0.00    +0.009 A 
ATOM     13  C   UNL     1       1.176   1.782   0.000  0.00  0.00    +0.019 A 
ATOM     14  C   UNL     1       1.159   3.167   0.008  0.00  0.00    +0.166 A 
BRANCH   9  16
ATOM     15  C   UNL     1      -1.362   5.833   0.047  0.00  0.00    +0.277 C 
ATOM     16  O   UNL     1      -0.078   5.205   0.031  0.00  0.00    -0.491 OA
ENDBRANCH   9  16
BRANCH  14  17
ATOM     17  O   UNL     1       2.327   3.863   0.001  0.00  0.00    -0.491 OA
ATOM     18  C   UNL     1       2.873   4.202  -1.276  0.00  0.00    +0.277 C 
ENDBRANCH  14  17
ENDBRANCH   1  13
BRANCH   3  19
ATOM     19  C   UNL     1       5.377   0.785   0.608  0.00  0.00    +0.436 C 
ATOM     20  F   UNL     1       5.648   2.006   1.233  0.00  0.00    -0.166 F 
ATOM     21  F   UNL     1       6.539   0.007   0.580  0.00  0.00    -0.166 F 
ATOM     22  F   UNL     1       4.940   1.018  -0.701  0.00  0.00    -0.166 F 
ENDBRANCH   3  19
BRANCH   3  23
ATOM     23  O   UNL     1       4.732  -0.198   2.721  0.00  0.00    -0.364 OA
ATOM     24  H   UNL     1       5.536  -0.732   2.777  0.00  0.00    +0.212 HD
ENDBRANCH   3  23
BRANCH   2  25
ATOM     25  C   UNL     1       1.970   0.215   2.267  0.00  0.00    +0.180 C 
ATOM     26  O   UNL     1       2.015  -0.986   2.436  0.00  0.00    -0.291 OA
BRANCH  25  27
ATOM     27  C   UNL     1       0.943   0.976   2.866  0.00  0.00    +0.055 A 
ATOM     28  C   UNL     1      -0.104   0.549   3.678  0.00  0.00    +0.019 A 
ATOM     29  C   UNL     1      -0.971   1.509   4.131  0.00  0.00    +0.008 A 
ATOM     30  C   UNL     1      -0.772   2.807   3.774  0.00  0.00    +0.046 A 
ATOM     31  S   UNL     1       0.652   2.734   2.788  0.00  0.00    -0.094 S 
ENDBRANCH  25  27
ENDBRANCH   2  25
BRANCH   4  32
ATOM     32  C   UNL     1       4.762  -2.422   1.103  0.00  0.00    +0.147 C 
BRANCH  32  33
ATOM     33  C   UNL     1       4.065  -3.131   2.236  0.00  0.00    -0.030 A 
ATOM     34  C   UNL     1       4.373  -2.810   3.545  0.00  0.00    +0.005 A 
ATOM     35  C   UNL     1       3.730  -3.456   4.584  0.00  0.00    +0.000 A 
ATOM     36  C   UNL     1       2.787  -4.431   4.314  0.00  0.00    +0.000 A 
ATOM     37  C   UNL     1       2.483  -4.755   3.005  0.00  0.00    +0.000 A 
ATOM     38  C   UNL     1       3.122  -4.104   1.966  0.00  0.00    +0.005 A 
ENDBRANCH  32  33
ENDBRANCH   4  32
TORSDOF 9
