REMARK  Name = ZINC39379459
REMARK  9 active torsions:
REMARK  status: ('A' for Active; 'I' for Inactive)
REMARK    1  A    between atoms: C_1  and  C_2
REMARK    2  A    between atoms: C_4  and  C_20
REMARK    3  A    between atoms: C_10  and  S_14
REMARK    4  A    between atoms: S_14  and  C_15
REMARK    5  A    between atoms: C_15  and  C_16
REMARK    6  A    between atoms: C_16  and  C_17
REMARK    7  A    between atoms: C_16  and  C_18
REMARK    8  A    between atoms: C_25  and  O_27
REMARK    9  A    between atoms: O_27  and  C_28
REMARK                            x       y       z     vdW  Elec       q    Type
REMARK                         _______ _______ _______ _____ _____    ______ ____
ROOT
ATOM      1  C   UNL     1      -0.018   1.503   0.010  0.00  0.00    +0.066 C 
ATOM      2  C   UNL     1       0.002  -0.004   0.002  0.00  0.00    +0.051 C 
ATOM      3  C   UNL     1      -1.196  -0.704   0.004  0.00  0.00    +0.066 C 
ATOM      4  C   UNL     1      -1.178  -2.215   0.060  0.00  0.00    +0.084 C 
ATOM      5  C   UNL     1       0.037  -2.715  -0.711  0.00  0.00    +0.157 C 
ATOM      6  C   UNL     1       1.242  -1.938  -0.224  0.00  0.00    +0.145 C 
ATOM      7  N   UNL     1       2.341  -2.628   0.037  0.00  0.00    -0.208 NA
ATOM      8  C   UNL     1       2.361  -3.956  -0.037  0.00  0.00    +0.182 C 
ATOM      9  N   UNL     1       1.305  -4.728  -0.253  0.00  0.00    -0.154 NA
ATOM     10  C   UNL     1       0.108  -4.222  -0.596  0.00  0.00    +0.250 C 
ATOM     11  O   UNL     1      -0.864  -4.926  -0.794  0.00  0.00    -0.273 OA
ATOM     12  N   UNL     1       1.162  -0.640  -0.013  0.00  0.00    -0.236 NA
ATOM     13  C   UNL     1      -2.398  -0.025  -0.044  0.00  0.00    +0.337 C 
ATOM     14  O   UNL     1      -2.409   1.321  -0.093  0.00  0.00    -0.245 OA
ENDROOT
BRANCH   4  15
ATOM     15  C   UNL     1      -2.437  -2.759  -0.565  0.00  0.00    -0.001 A 
ATOM     16  C   UNL     1      -3.404  -3.528  -0.006  0.00  0.00    +0.012 A 
ATOM     17  C   UNL     1      -4.483  -3.914  -0.779  0.00  0.00    +0.008 A 
ATOM     18  C   UNL     1      -4.544  -3.511  -2.072  0.00  0.00    +0.045 A 
ATOM     19  S   UNL     1      -3.047  -2.551  -2.230  0.00  0.00    -0.101 S 
ENDBRANCH   4  15
BRANCH  13  20
ATOM     20  O   UNL     1      -3.558  -0.708  -0.042  0.00  0.00    -0.465 OA
ATOM     21  C   UNL     1      -4.763   0.059  -0.093  0.00  0.00    +0.280 C 
ENDBRANCH  13  20
BRANCH   8  22
ATOM     22  S   UNL     1       3.918  -4.754   0.167  0.00  0.00    -0.088 S 
BRANCH  22  23
ATOM     23  C   UNL     1       3.532  -6.519   0.001  0.00  0.00    +0.080 C 
BRANCH  23  24
ATOM     24  C   UNL     1       4.814  -7.339   0.159  0.00  0.00    -0.007 C 
ATOM     25  C   UNL     1       4.471  -8.830   0.144  0.00  0.00    +0.008 C 
ATOM     26  C   UNL     1       5.767  -7.023  -0.995  0.00  0.00    +0.008 C 
ENDBRANCH  23  24
ENDBRANCH  22  23
ENDBRANCH   8  22
TORSDOF 5
