REMARK  Name = ZINC38656018
REMARK  6 active torsions:
REMARK  status: ('A' for Active; 'I' for Inactive)
REMARK    1  A    between atoms: C_5  and  C_7
REMARK    2  A    between atoms: C_7  and  O_9
REMARK    3  A    between atoms: O_9  and  C_10
REMARK    4  A    between atoms: C_17  and  N_31
REMARK    5  A    between atoms: C_18  and  C_29
REMARK    6  A    between atoms: C_19  and  C_21
REMARK                            x       y       z     vdW  Elec       q    Type
REMARK                         _______ _______ _______ _____ _____    ______ ____
ROOT
ATOM      1  C   UNL     1       0.070  -4.213  -0.056  0.00  0.00    +0.135 A 
ATOM      2  C   UNL     1       1.257  -4.932  -0.029  0.00  0.00    +0.047 A 
ATOM      3  C   UNL     1       1.228  -6.312  -0.071  0.00  0.00    +0.012 A 
ATOM      4  C   UNL     1       0.020  -6.982  -0.140  0.00  0.00    +0.008 A 
ATOM      5  C   UNL     1      -1.168  -6.269  -0.167  0.00  0.00    +0.138 A 
ATOM      6  C   UNL     1      -1.141  -4.881  -0.120  0.00  0.00    +0.093 A 
ATOM      7  O   UNL     1      -2.362  -6.908  -0.235  0.00  0.00    -0.441 OA
ATOM      8  C   UNL     1      -2.448  -8.205   0.106  0.00  0.00    +0.199 C 
ATOM      9  C   UNL     1      -1.359  -9.008   0.150  0.00  0.00    +0.098 C 
ATOM     10  C   UNL     1       0.010  -8.488  -0.185  0.00  0.00    +0.098 C 
ENDROOT
BRANCH  10  11
ATOM     11  C   UNL     1       0.396  -8.948  -1.567  0.00  0.00    -0.033 A 
ATOM     12  C   UNL     1      -0.364  -8.569  -2.658  0.00  0.00    +0.006 A 
ATOM     13  C   UNL     1      -0.012  -8.992  -3.926  0.00  0.00    +0.022 A 
ATOM     14  C   UNL     1       1.102  -9.793  -4.104  0.00  0.00    +0.059 A 
ATOM     15  C   UNL     1       1.863 -10.172  -3.011  0.00  0.00    +0.060 A 
ATOM     16  C   UNL     1       1.512  -9.744  -1.744  0.00  0.00    +0.026 A 
ATOM     17 CL   UNL     1       3.260 -11.178  -3.233  0.00  0.00    -0.082 Cl
ATOM     18 CL   UNL     1       1.544 -10.324  -5.697  0.00  0.00    -0.082 Cl
ENDBRANCH  10  11
BRANCH   8  19
ATOM     19  N   UNL     1      -3.677  -8.731   0.420  0.00  0.00    -0.328 N 
ATOM     20  H   UNL     1      -4.466  -8.168   0.394  0.00  0.00    +0.145 HD
ATOM     21  H   UNL     1      -3.755  -9.665   0.668  0.00  0.00    +0.145 HD
ENDBRANCH   8  19
BRANCH   9  22
ATOM     22  C   UNL     1      -1.515 -10.382   0.523  0.00  0.00    +0.101 C 
ATOM     23  N   UNL     1      -1.639 -11.472   0.818  0.00  0.00    -0.191 NA
ENDBRANCH   9  22
BRANCH   1  24
ATOM     24  O   UNL     1       0.097  -2.854  -0.015  0.00  0.00    -0.422 OA
BRANCH  24  25
ATOM     25  C   UNL     1       0.420  -2.193  -1.143  0.00  0.00    +0.347 C 
ATOM     26  O   UNL     1       0.764  -2.811  -2.132  0.00  0.00    -0.244 OA
BRANCH  25  31
ATOM     27  C   UNL     1      -0.096   1.371  -0.086  0.00  0.00    +0.001 A 
ATOM     28  C   UNL     1       0.237   2.049  -1.246  0.00  0.00    +0.003 A 
ATOM     29  C   UNL     1       0.629   1.352  -2.374  0.00  0.00    +0.039 A 
ATOM     30  C   UNL     1       0.692  -0.030  -2.349  0.00  0.00    +0.137 A 
ATOM     31  C   UNL     1       0.357  -0.720  -1.179  0.00  0.00    +0.094 A 
ATOM     32  C   UNL     1      -0.038  -0.006  -0.045  0.00  0.00    +0.018 A 
ATOM     33  F   UNL     1       1.075  -0.711  -3.451  0.00  0.00    -0.205 F 
ENDBRANCH  25  31
ENDBRANCH  24  25
ENDBRANCH   1  24
TORSDOF 6
