REMARK  Name = ZINC00248294
REMARK  2 active torsions:
REMARK  status: ('A' for Active; 'I' for Inactive)
REMARK    1  A    between atoms: C_6  and  C_7
REMARK    2  A    between atoms: N_8  and  N_9
REMARK                            x       y       z     vdW  Elec       q    Type
REMARK                         _______ _______ _______ _____ _____    ______ ____
ROOT
ATOM      1  C   UNL     1       1.596   1.249  -2.510  0.00  0.00    +0.010 A 
ATOM      2  C   UNL     1       2.757   1.050  -3.226  0.00  0.00    +0.016 A 
ATOM      3  C   UNL     1       3.588  -0.015  -2.924  0.00  0.00    +0.018 A 
ATOM      4  C   UNL     1       3.262  -0.885  -1.896  0.00  0.00    +0.016 A 
ATOM      5  C   UNL     1       2.107  -0.694  -1.167  0.00  0.00    +0.010 A 
ATOM      6  C   UNL     1       1.264   0.379  -1.468  0.00  0.00    -0.005 A 
ATOM      7 BR   UNL     1       5.174  -0.285  -3.917  0.00  0.00    -0.050 Br
ENDROOT
BRANCH   6   8
ATOM      8  C   UNL     1       0.027   0.588  -0.693  0.00  0.00    +0.142 C 
ATOM      9  N   UNL     1      -0.195  -0.112   0.377  0.00  0.00    -0.156 NA
BRANCH   9  10
ATOM     10  N   UNL     1       0.850  -0.832   0.972  0.00  0.00    -0.138 N 
ATOM     11  C   UNL     1       0.833  -2.132   1.332  0.00  0.00    +0.247 A 
ATOM     12  N   UNL     1       1.999  -2.422   1.852  0.00  0.00    -0.221 NA
ATOM     13  C   UNL     1       2.781  -1.343   1.842  0.00  0.00    +0.247 A 
ATOM     14  N   UNL     1       2.124  -0.346   1.308  0.00  0.00    -0.136 NA
ENDBRANCH   9  10
ENDBRANCH   6   8
TORSDOF 2
