REMARK  Name = ZINC03595633
REMARK  4 active torsions:
REMARK  status: ('A' for Active; 'I' for Inactive)
REMARK    1  A    between atoms: C_1  and  C_2
REMARK    2  A    between atoms: N_11  and  C_15
REMARK    3  A    between atoms: C_15  and  C_16
REMARK    4  A    between atoms: N_18  and  C_19
REMARK                            x       y       z     vdW  Elec       q    Type
REMARK                         _______ _______ _______ _____ _____    ______ ____
ROOT
ATOM      1  C   UNL     1       6.002  -0.235   0.848  0.00  0.00    +0.010 C 
ATOM      2  C   UNL     1       7.309   0.253   1.474  0.00  0.00    +0.018 C 
ATOM      3  C   UNL     1       8.459  -0.652   1.025  0.00  0.00    +0.006 C 
ATOM      4  C   UNL     1       9.770  -0.151   1.636  0.00  0.00    +0.000 C 
ATOM      5  C   UNL     1      10.042   1.278   1.162  0.00  0.00    +0.003 C 
ATOM      6  C   UNL     1       8.898   2.190   1.612  0.00  0.00    +0.035 C 
ATOM      7  C   UNL     1       7.583   1.685   1.028  0.00  0.00    +0.115 C 
ATOM      8  C   UNL     1       6.447   2.595   1.431  0.00  0.00    +0.247 C 
ATOM      9  O   UNL     1       6.063   2.837   2.556  0.00  0.00    -0.273 OA
ATOM     10  N   UNL     1       5.947   3.081   0.276  0.00  0.00    -0.215 N 
ATOM     11  C   UNL     1       6.612   2.610  -0.786  0.00  0.00    +0.310 C 
ATOM     12  O   UNL     1       6.349   2.908  -1.935  0.00  0.00    -0.252 OA
ATOM     13  N   UNL     1       7.606   1.771  -0.438  0.00  0.00    -0.285 N 
ATOM     14  H   UNL     1       8.216   1.313  -1.038  0.00  0.00    +0.151 HD
ENDROOT
BRANCH  10  15
ATOM     15  C   UNL     1       4.819   4.013   0.194  0.00  0.00    +0.214 C 
BRANCH  15  16
ATOM     16  C   UNL     1       3.532   3.236   0.088  0.00  0.00    +0.235 C 
ATOM     17  O   UNL     1       3.554   2.023   0.082  0.00  0.00    -0.274 OA
ATOM     18  N   UNL     1       2.356   3.888   0.001  0.00  0.00    -0.283 N 
ATOM     19  H   UNL     1       2.342   4.856  -0.060  0.00  0.00    +0.155 HD
BRANCH  18  20
ATOM     20  C   UNL     1       1.155   3.170  -0.002  0.00  0.00    +0.047 A 
ATOM     21  C   UNL     1       1.091   1.925  -0.614  0.00  0.00    +0.024 A 
ATOM     22  C   UNL     1      -0.095   1.217  -0.615  0.00  0.00    +0.002 A 
ATOM     23  C   UNL     1      -1.220   1.750  -0.013  0.00  0.00    +0.001 A 
ATOM     24  C   UNL     1      -1.159   2.987   0.602  0.00  0.00    +0.016 A 
ATOM     25  C   UNL     1       0.025   3.700   0.607  0.00  0.00    +0.035 A 
ATOM     26  I   UNL     1       0.115   5.578   1.531  0.00  0.00    -0.042 I 
ENDBRANCH  18  20
ENDBRANCH  15  16
ENDBRANCH  10  15
TORSDOF 3
