REMARK  Name = ZINC39545023
REMARK  10 active torsions:
REMARK  status: ('A' for Active; 'I' for Inactive)
REMARK    1  A    between atoms: C_1  and  C_2
REMARK    2  A    between atoms: C_2  and  C_3
REMARK    3  A    between atoms: C_2  and  C_4
REMARK    4  A    between atoms: C_4  and  N_5
REMARK    5  A    between atoms: N_5  and  S_30
REMARK    6  A    between atoms: C_6  and  C_8
REMARK    7  A    between atoms: C_11  and  C_23
REMARK    8  A    between atoms: C_23  and  C_24
REMARK    9  A    between atoms: S_30  and  O_33
REMARK   10  A    between atoms: O_33  and  C_34
REMARK                            x       y       z     vdW  Elec       q    Type
REMARK                         _______ _______ _______ _____ _____    ______ ____
ROOT
ATOM      1  C   UNL     1      -1.786  -4.226   1.054  0.00  0.00    +0.172 C 
ATOM      2  C   UNL     1      -3.151  -4.267   0.332  0.00  0.00    +0.045 C 
ATOM      3  C   UNL     1      -3.817  -5.477   1.029  0.00  0.00    +0.057 C 
ATOM      4  C   UNL     1      -3.110  -5.561   2.361  0.00  0.00    +0.079 C 
ATOM      5  N   UNL     1      -3.556  -6.262   3.461  0.00  0.00    -0.304 N 
ATOM      6  C   UNL     1      -2.967  -5.974   4.700  0.00  0.00    +0.037 A 
ATOM      7  C   UNL     1      -3.574  -6.414   5.869  0.00  0.00    +0.023 A 
ATOM      8  C   UNL     1      -3.000  -6.129   7.092  0.00  0.00    +0.002 A 
ATOM      9  C   UNL     1      -1.822  -5.405   7.150  0.00  0.00    +0.000 A 
ATOM     10  C   UNL     1      -1.217  -4.968   5.987  0.00  0.00    +0.007 A 
ATOM     11  C   UNL     1      -1.784  -5.251   4.757  0.00  0.00    -0.007 A 
ATOM     12  C   UNL     1      -1.101  -4.773   3.503  0.00  0.00    +0.155 C 
ATOM     13  N   UNL     1      -2.008  -4.877   2.353  0.00  0.00    -0.346 N 
ATOM     14  H   UNL     1      -4.253  -6.931   3.380  0.00  0.00    +0.153 HD
ENDROOT
BRANCH   1  16
ATOM     15  N   UNL     1      -0.814  -2.107   0.228  0.00  0.00    -0.141 N 
ATOM     16  C   UNL     1      -1.345  -2.799   1.255  0.00  0.00    +0.259 C 
ATOM     17  O   UNL     1      -1.467  -2.273   2.342  0.00  0.00    -0.272 OA
BRANCH  15  18
ATOM     18  S   UNL     1      -0.544  -2.856  -1.224  0.00  0.00    +0.212 S 
ATOM     19  O   UNL     1      -1.314  -4.050  -1.214  0.00  0.00    -0.115 OA
ATOM     20  O   UNL     1      -0.693  -1.862  -2.228  0.00  0.00    -0.115 OA
BRANCH  18  21
ATOM     21  O   UNL     1       0.917  -3.281  -1.246  0.00  0.00    -0.331 OA
BRANCH  21  22
ATOM     22  C   UNL     1       1.189  -4.365  -0.472  0.00  0.00    +0.158 A 
ATOM     23  C   UNL     1       1.547  -4.197   0.858  0.00  0.00    +0.048 A 
ATOM     24  C   UNL     1       1.823  -5.300   1.642  0.00  0.00    +0.004 A 
ATOM     25  C   UNL     1       1.743  -6.571   1.103  0.00  0.00    +0.000 A 
ATOM     26  C   UNL     1       1.387  -6.741  -0.222  0.00  0.00    +0.004 A 
ATOM     27  C   UNL     1       1.104  -5.641  -1.009  0.00  0.00    +0.048 A 
ENDBRANCH  21  22
ENDBRANCH  18  21
ENDBRANCH  15  18
BRANCH  15  28
ATOM     28  C   UNL     1      -0.476  -0.691   0.396  0.00  0.00    +0.140 C 
BRANCH  28  30
ATOM     29  C   UNL     1       1.325   0.905   1.068  0.00  0.00    +0.009 C 
ATOM     30  C   UNL     1       0.921  -0.569   1.008  0.00  0.00    +0.002 C 
ATOM     31  C   UNL     1       0.911  -1.153   2.422  0.00  0.00    +0.009 C 
ENDBRANCH  28  30
ENDBRANCH  15  28
ENDBRANCH   1  16
BRANCH   3  32
ATOM     32  C   UNL     1      -5.314  -5.226   1.227  0.00  0.00    +0.046 C 
BRANCH  32  33
ATOM     33  C   UNL     1      -5.994  -5.159  -0.116  0.00  0.00    -0.047 A 
ATOM     34  C   UNL     1      -6.049  -3.961  -0.803  0.00  0.00    +0.003 A 
ATOM     35  C   UNL     1      -6.673  -3.900  -2.035  0.00  0.00    +0.000 A 
ATOM     36  C   UNL     1      -7.241  -5.036  -2.580  0.00  0.00    +0.000 A 
ATOM     37  C   UNL     1      -7.185  -6.234  -1.893  0.00  0.00    +0.000 A 
ATOM     38  C   UNL     1      -6.558  -6.296  -0.663  0.00  0.00    +0.003 A 
ENDBRANCH  32  33
ENDBRANCH   3  32
TORSDOF 8
