REMARK  Name = ZINC36581984
REMARK  24 active torsions:
REMARK  status: ('A' for Active; 'I' for Inactive)
REMARK    1  A    between atoms: C_1  and  C_2
REMARK    2  A    between atoms: C_2  and  C_3
REMARK    3  A    between atoms: C_3  and  C_4
REMARK    4  A    between atoms: C_4  and  C_5
REMARK    5  A    between atoms: C_5  and  C_6
REMARK    6  A    between atoms: C_7  and  C_8
REMARK    7  A    between atoms: N_10  and  C_11
REMARK    8  A    between atoms: N_10  and  C_33
REMARK    9  A    between atoms: C_11  and  C_13
REMARK   10  A    between atoms: C_11  and  C_22
REMARK   11  A    between atoms: C_14  and  O_21
REMARK   12  A    between atoms: C_16  and  O_20
REMARK   13  A    between atoms: C_18  and  O_19
REMARK   14  A    between atoms: N_24  and  C_25
REMARK   15  A    between atoms: C_25  and  C_26
REMARK   16  A    between atoms: C_25  and  C_27
REMARK   17  A    between atoms: C_25  and  C_28
REMARK   18  A    between atoms: C_28  and  C_29
REMARK   19  A    between atoms: C_29  and  C_30
REMARK   20  A    between atoms: C_29  and  C_31
REMARK   21  A    between atoms: C_29  and  C_32
REMARK   22  A    between atoms: C_33  and  C_34
REMARK   23  A    between atoms: C_33  and  C_35
REMARK   24  A    between atoms: C_33  and  C_36
REMARK                            x       y       z     vdW  Elec       q    Type
REMARK                         _______ _______ _______ _____ _____    ______ ____
ROOT
ATOM      1  C   UNL     1      -6.816  -2.894   3.633  0.00  0.00    +0.200 C 
ENDROOT
BRANCH   1   2
ATOM      2  C   UNL     1      -6.217  -2.142   4.794  0.00  0.00    +0.065 A 
ATOM      3  C   UNL     1      -5.087  -2.634   5.430  0.00  0.00    +0.129 A 
ATOM      4  C   UNL     1      -4.536  -1.943   6.498  0.00  0.00    +0.091 A 
ATOM      5  C   UNL     1      -5.115  -0.759   6.930  0.00  0.00    +0.124 A 
ATOM      6  C   UNL     1      -6.244  -0.266   6.293  0.00  0.00    +0.091 A 
ATOM      7  C   UNL     1      -6.792  -0.955   5.222  0.00  0.00    +0.129 A 
BRANCH   7   8
ATOM      8  O   UNL     1      -7.896  -0.470   4.595  0.00  0.00    -0.506 OA
ATOM      9  H   UNL     1      -8.730  -0.781   4.971  0.00  0.00    +0.292 HD
ENDBRANCH   7   8
BRANCH   5  10
ATOM     10  O   UNL     1      -4.575  -0.081   7.977  0.00  0.00    -0.507 OA
ATOM     11  H   UNL     1      -3.906   0.569   7.723  0.00  0.00    +0.292 HD
ENDBRANCH   5  10
BRANCH   3  12
ATOM     12  O   UNL     1      -4.520  -3.795   5.007  0.00  0.00    -0.506 OA
ATOM     13  H   UNL     1      -3.780  -3.671   4.396  0.00  0.00    +0.292 HD
ENDBRANCH   3  12
ENDBRANCH   1   2
BRANCH   1  14
ATOM     14  C   UNL     1      -7.070  -4.323   4.037  0.00  0.00    +0.239 C 
ATOM     15  O   UNL     1      -6.353  -5.208   3.619  0.00  0.00    -0.273 OA
ATOM     16  N   UNL     1      -8.093  -4.618   4.863  0.00  0.00    -0.308 N 
ATOM     17  H   UNL     1      -8.666  -3.910   5.197  0.00  0.00    +0.149 HD
BRANCH  16  18
ATOM     18  C   UNL     1      -8.340  -6.007   5.256  0.00  0.00    +0.030 C 
ATOM     19  C   UNL     1      -8.778  -6.813   4.032  0.00  0.00    +0.031 C 
ATOM     20  C   UNL     1      -7.057  -6.611   5.831  0.00  0.00    +0.031 C 
BRANCH  18  21
ATOM     21  C   UNL     1      -9.443  -6.049   6.316  0.00  0.00    +0.031 C 
BRANCH  21  22
ATOM     22  C   UNL     1      -8.940  -5.390   7.602  0.00  0.00    -0.036 C 
ATOM     23  C   UNL     1      -8.168  -4.115   7.253  0.00  0.00    +0.010 C 
ATOM     24  C   UNL     1     -10.132  -5.036   8.493  0.00  0.00    +0.010 C 
ATOM     25  C   UNL     1      -8.017  -6.358   8.344  0.00  0.00    +0.010 C 
ENDBRANCH  21  22
ENDBRANCH  18  21
ENDBRANCH  16  18
ENDBRANCH   1  14
BRANCH   1  28
ATOM     26  C   UNL     1      -4.738  -2.164   2.589  0.00  0.00    +0.240 C 
ATOM     27  O   UNL     1      -4.525  -1.465   3.562  0.00  0.00    -0.271 OA
ATOM     28  N   UNL     1      -5.886  -2.864   2.501  0.00  0.00    -0.277 N 
BRANCH  28  29
ATOM     29  C   UNL     1      -6.205  -3.596   1.272  0.00  0.00    +0.030 C 
ATOM     30  C   UNL     1      -5.185  -4.717   1.067  0.00  0.00    +0.031 C 
ATOM     31  C   UNL     1      -7.607  -4.197   1.386  0.00  0.00    +0.031 C 
ATOM     32  C   UNL     1      -6.156  -2.638   0.080  0.00  0.00    +0.031 C 
ENDBRANCH  28  29
BRANCH  26  34
ATOM     33  C   UNL     1      -2.545  -1.687   1.666  0.00  0.00    -0.022 C 
ATOM     34  C   UNL     1      -3.742  -2.245   1.510  0.00  0.00    +0.063 C 
BRANCH  33  35
ATOM     35  C   UNL     1      -2.052  -1.336   3.046  0.00  0.00    +0.027 C 
BRANCH  35  36
ATOM     36  C   UNL     1      -0.663  -1.942   3.260  0.00  0.00    +0.004 C 
BRANCH  36  37
ATOM     37  C   UNL     1      -0.162  -1.586   4.662  0.00  0.00    +0.000 C 
BRANCH  37  39
ATOM     38  C   UNL     1       1.727  -1.836   6.277  0.00  0.00    +0.004 C 
ATOM     39  C   UNL     1       1.226  -2.192   4.876  0.00  0.00    -0.003 C 
ENDBRANCH  37  39
ENDBRANCH  36  37
ENDBRANCH  35  36
ENDBRANCH  33  35
ENDBRANCH  26  34
ENDBRANCH   1  28
TORSDOF 15
