REMARK  Name = ZINC36824519
REMARK  10 active torsions:
REMARK  status: ('A' for Active; 'I' for Inactive)
REMARK    1  A    between atoms: C_1  and  C_2
REMARK    2  A    between atoms: C_2  and  N_3
REMARK    3  A    between atoms: N_3  and  C_4
REMARK    4  A    between atoms: C_4  and  C_6
REMARK    5  A    between atoms: C_4  and  C_12
REMARK    6  A    between atoms: C_14  and  O_21
REMARK    7  A    between atoms: C_15  and  O_19
REMARK    8  A    between atoms: C_17  and  C_18
REMARK    9  A    between atoms: O_19  and  C_20
REMARK   10  A    between atoms: O_21  and  C_22
REMARK                            x       y       z     vdW  Elec       q    Type
REMARK                         _______ _______ _______ _____ _____    ______ ____
ROOT
ATOM      1  C   UNL     1       0.733  -1.960   1.184  0.00  0.00    +0.027 C 
ENDROOT
BRANCH   1   2
ATOM      2  C   UNL     1       1.543  -2.445   0.010  0.00  0.00    -0.048 A 
ATOM      3  C   UNL     1       2.526  -1.636  -0.531  0.00  0.00    +0.052 A 
ATOM      4  C   UNL     1       3.272  -2.080  -1.610  0.00  0.00    +0.162 A 
ATOM      5  C   UNL     1       3.030  -3.341  -2.148  0.00  0.00    +0.162 A 
ATOM      6  C   UNL     1       2.043  -4.146  -1.602  0.00  0.00    +0.053 A 
ATOM      7  C   UNL     1       1.306  -3.698  -0.521  0.00  0.00    -0.045 A 
ATOM      8  C   UNL     1       0.237  -4.577   0.075  0.00  0.00    +0.044 C 
BRANCH   5   9
ATOM      9  O   UNL     1       3.759  -3.781  -3.208  0.00  0.00    -0.491 OA
ATOM     10  C   UNL     1       3.455  -5.085  -3.708  0.00  0.00    +0.277 C 
ENDBRANCH   5   9
BRANCH   4  11
ATOM     11  O   UNL     1       4.240  -1.287  -2.143  0.00  0.00    -0.491 OA
ATOM     12  C   UNL     1       4.433  -0.006  -1.539  0.00  0.00    +0.277 C 
ENDBRANCH   4  11
ENDBRANCH   1   2
BRANCH   1  13
ATOM     13  C   UNL     1       1.352  -2.461   2.463  0.00  0.00    +0.097 A 
ATOM     14  C   UNL     1       0.936  -3.524   3.175  0.00  0.00    +0.044 A 
ATOM     15  C   UNL     1       1.797  -3.631   4.291  0.00  0.00    +0.057 A 
ATOM     16  C   UNL     1       2.688  -2.627   4.196  0.00  0.00    +0.170 A 
ATOM     17  O   UNL     1       2.417  -1.924   3.083  0.00  0.00    -0.454 OA
ATOM     18 BR   UNL     1       4.087  -2.269   5.416  0.00  0.00    -0.008 Br
ENDBRANCH   1  13
BRANCH   1  19
ATOM     19  N   UNL     1       0.713  -0.491   1.192  0.00  0.00    +0.388 N 
ATOM     20  H   UNL     1       1.659  -0.141   1.185  0.00  0.00    -0.084 HD
ATOM     21  H   UNL     1       0.240  -0.165   2.022  0.00  0.00    -0.084 HD
BRANCH  19  23
ATOM     22  C   UNL     1      -0.019   1.526   0.010  0.00  0.00    -0.017 C 
ATOM     23  C   UNL     1       0.002  -0.004   0.002  0.00  0.00    -0.085 C 
ENDBRANCH  19  23
ENDBRANCH   1  19
TORSDOF 6
