REMARK  Name = ZINC13118368
REMARK  6 active torsions:
REMARK  status: ('A' for Active; 'I' for Inactive)
REMARK    1  A    between atoms: C_1  and  C_2
REMARK    2  A    between atoms: C_2  and  C_29
REMARK    3  A    between atoms: N_8  and  C_9
REMARK    4  A    between atoms: N_18  and  N_19
REMARK    5  A    between atoms: C_20  and  C_22
REMARK    6  A    between atoms: C_27  and  O_28
REMARK                            x       y       z     vdW  Elec       q    Type
REMARK                         _______ _______ _______ _____ _____    ______ ____
ROOT
ATOM      1  C   UNL     1      -0.187   1.920   0.160  0.00  0.00    +0.018 C 
ATOM      2  C   UNL     1      -0.051   0.403   0.012  0.00  0.00    +0.018 C 
ATOM      3  C   UNL     1      -1.444  -0.230  -0.030  0.00  0.00    +0.069 C 
ATOM      4  C   UNL     1      -2.070  -0.199   1.338  0.00  0.00    +0.057 A 
ATOM      5  C   UNL     1      -1.354  -0.084   2.522  0.00  0.00    +0.065 A 
ATOM      6  C   UNL     1      -2.267  -0.098   3.581  0.00  0.00    +0.146 A 
ATOM      7  N   UNL     1      -3.468  -0.209   3.069  0.00  0.00    -0.174 NA
ATOM      8  N   UNL     1      -3.365  -0.271   1.672  0.00  0.00    -0.236 N 
ATOM      9  C   UNL     1       0.123   0.035   2.529  0.00  0.00    +0.212 C 
ATOM     10  O   UNL     1       0.772   0.259   3.534  0.00  0.00    -0.285 OA
ATOM     11  C   UNL     1       0.735  -0.148   1.184  0.00  0.00    +0.112 C 
ATOM     12  N   UNL     1       1.879  -0.748   1.024  0.00  0.00    -0.180 NA
ATOM     13  C   UNL     1       0.689   0.085  -1.290  0.00  0.00    +0.018 C 
ENDROOT
BRANCH   8  14
ATOM     14  C   UNL     1      -4.436  -0.388   0.776  0.00  0.00    +0.066 A 
ATOM     15  C   UNL     1      -4.341  -1.244  -0.313  0.00  0.00    +0.028 A 
ATOM     16  C   UNL     1      -5.399  -1.358  -1.194  0.00  0.00    +0.002 A 
ATOM     17  C   UNL     1      -6.551  -0.620  -0.993  0.00  0.00    +0.000 A 
ATOM     18  C   UNL     1      -6.648   0.234   0.091  0.00  0.00    +0.002 A 
ATOM     19  C   UNL     1      -5.596   0.347   0.979  0.00  0.00    +0.028 A 
ENDBRANCH   8  14
BRANCH  12  20
ATOM     20  N   UNL     1       2.572  -1.243   2.137  0.00  0.00    -0.202 N 
ATOM     21  C   UNL     1       3.756  -1.864   1.972  0.00  0.00    +0.267 C 
ATOM     22  O   UNL     1       4.224  -1.995   0.857  0.00  0.00    -0.268 OA
ATOM     23  H   UNL     1       2.199  -1.139   3.026  0.00  0.00    +0.178 HD
BRANCH  21  24
ATOM     24  C   UNL     1       4.485  -2.385   3.143  0.00  0.00    +0.080 A 
ATOM     25  C   UNL     1       3.949  -2.242   4.426  0.00  0.00    +0.017 A 
ATOM     26  C   UNL     1       4.635  -2.731   5.515  0.00  0.00    +0.001 A 
ATOM     27  C   UNL     1       5.856  -3.365   5.346  0.00  0.00    +0.004 A 
ATOM     28  C   UNL     1       6.397  -3.513   4.085  0.00  0.00    +0.046 A 
ATOM     29  C   UNL     1       5.718  -3.032   2.976  0.00  0.00    +0.129 A 
BRANCH  29  30
ATOM     30  O   UNL     1       6.246  -3.182   1.735  0.00  0.00    -0.506 OA
ATOM     31  H   UNL     1       6.817  -2.451   1.460  0.00  0.00    +0.292 HD
ENDBRANCH  29  30
ENDBRANCH  21  24
ENDBRANCH  12  20
TORSDOF 4
