REMARK  Name = ZINC14540907
REMARK  8 active torsions:
REMARK  status: ('A' for Active; 'I' for Inactive)
REMARK    1  A    between atoms: C_1  and  C_2
REMARK    2  A    between atoms: C_2  and  N_3
REMARK    3  A    between atoms: C_6  and  C_8
REMARK    4  A    between atoms: N_10  and  C_11
REMARK    5  A    between atoms: N_10  and  C_12
REMARK    6  A    between atoms: C_12  and  C_13
REMARK    7  A    between atoms: C_19  and  N_65
REMARK    8  A    between atoms: C_25  and  C_28
REMARK                            x       y       z     vdW  Elec       q    Type
REMARK                         _______ _______ _______ _____ _____    ______ ____
ROOT
ATOM      1  N   UNL     1      10.598  -5.301  -0.155  0.00  0.00    -0.268 N 
ATOM      2  C   UNL     1       9.794  -4.230  -0.056  0.00  0.00    +0.043 A 
ATOM      3  C   UNL     1       8.642  -4.646   0.524  0.00  0.00    +0.004 A 
ATOM      4  C   UNL     1       8.803  -6.021   0.761  0.00  0.00    +0.151 A 
ATOM      5  N   UNL     1      10.009  -6.342   0.325  0.00  0.00    -0.166 NA
ATOM      6  C   UNL     1       7.468  -3.756   0.825  0.00  0.00    +0.024 C 
ATOM      7  C   UNL     1       7.939  -2.297   0.755  0.00  0.00    -0.063 C 
ATOM      8  C   UNL     1       8.711  -2.071  -0.547  0.00  0.00    -0.009 C 
ATOM      9  C   UNL     1      10.054  -2.809  -0.486  0.00  0.00    +0.054 C 
ENDROOT
BRANCH   7  15
ATOM     10  C   UNL     1       6.031  -1.561   2.057  0.00  0.00    -0.073 C 
ATOM     11  C   UNL     1       5.039  -0.400   2.182  0.00  0.00    +0.017 C 
ATOM     12  C   UNL     1       4.255  -0.266   0.906  0.00  0.00    -0.048 C 
ATOM     13  C   UNL     1       4.638  -0.818  -0.224  0.00  0.00    -0.041 C 
ATOM     14  C   UNL     1       5.886  -1.645  -0.350  0.00  0.00    -0.050 C 
ATOM     15  N   UNL     1       6.777  -1.380   0.795  0.00  0.00    +0.384 N 
ATOM     16  H   UNL     1       7.114  -0.411   0.741  0.00  0.00    -0.081 HD
BRANCH  12  17
ATOM     17  C   UNL     1       3.005   0.523   0.921  0.00  0.00    -0.022 A 
ATOM     18  C   UNL     1       1.780  -0.100   0.681  0.00  0.00    +0.008 A 
ATOM     19  C   UNL     1       0.617   0.642   0.696  0.00  0.00    +0.001 A 
ATOM     20  C   UNL     1       0.664   2.001   0.949  0.00  0.00    +0.000 A 
ATOM     21  C   UNL     1       1.875   2.625   1.188  0.00  0.00    +0.001 A 
ATOM     22  C   UNL     1       3.046   1.894   1.176  0.00  0.00    +0.008 A 
ENDBRANCH  12  17
ENDBRANCH   7  15
BRANCH   4  23
ATOM     23  C   UNL     1       7.818  -6.932   1.379  0.00  0.00    +0.267 C 
ATOM     24  O   UNL     1       6.776  -6.489   1.823  0.00  0.00    -0.268 OA
ATOM     25  N   UNL     1       8.073  -8.253   1.451  0.00  0.00    -0.292 N 
ATOM     26  C   UNL     1       9.355  -8.778   0.973  0.00  0.00    +0.133 C 
BRANCH  25  27
ATOM     27  C   UNL     1       7.070  -9.164   2.007  0.00  0.00    +0.182 C 
BRANCH  27  28
ATOM     28  C   UNL     1       6.170  -9.655   0.903  0.00  0.00    +0.122 A 
ATOM     29  C   UNL     1       6.370 -10.754   0.155  0.00  0.00    +0.046 A 
ATOM     30  C   UNL     1       5.289 -10.835  -0.753  0.00  0.00    +0.041 A 
ATOM     31  C   UNL     1       4.493  -9.779  -0.505  0.00  0.00    +0.195 A 
ATOM     32  O   UNL     1       5.028  -9.071   0.503  0.00  0.00    -0.466 OA
ENDBRANCH  27  28
ENDBRANCH  25  27
ENDBRANCH   4  23
BRANCH   1  34
ATOM     33  C   UNL     1      12.965  -4.994   0.378  0.00  0.00    +0.029 C 
ATOM     34  C   UNL     1      11.948  -5.289  -0.726  0.00  0.00    +0.140 C 
ENDBRANCH   1  34
TORSDOF 6
