REMARK  Name = ZINC15919458
REMARK  10 active torsions:
REMARK  status: ('A' for Active; 'I' for Inactive)
REMARK    1  A    between atoms: C_1  and  C_2
REMARK    2  A    between atoms: C_2  and  O_3
REMARK    3  A    between atoms: O_3  and  C_4
REMARK    4  A    between atoms: C_7  and  N_10
REMARK    5  A    between atoms: N_10  and  C_11
REMARK    6  A    between atoms: N_10  and  S_23
REMARK    7  A    between atoms: C_11  and  C_12
REMARK    8  A    between atoms: N_14  and  N_15
REMARK    9  A    between atoms: N_19  and  C_22
REMARK   10  A    between atoms: S_23  and  C_26
REMARK                            x       y       z     vdW  Elec       q    Type
REMARK                         _______ _______ _______ _____ _____    ______ ____
ROOT
ATOM      1  N   UNL     1       1.180  -5.961   1.759  0.00  0.00    -0.194 N 
ENDROOT
BRANCH   1   5
ATOM      2  C   UNL     1      -0.006  -1.981   1.396  0.00  0.00    +0.121 A 
ATOM      3  C   UNL     1      -0.849  -2.997   0.970  0.00  0.00    +0.047 A 
ATOM      4  C   UNL     1      -0.457  -4.316   1.090  0.00  0.00    +0.028 A 
ATOM      5  C   UNL     1       0.782  -4.625   1.637  0.00  0.00    +0.052 A 
ATOM      6  C   UNL     1       1.625  -3.607   2.063  0.00  0.00    +0.028 A 
ATOM      7  C   UNL     1       1.233  -2.288   1.937  0.00  0.00    +0.047 A 
BRANCH   2   8
ATOM      8  O   UNL     1      -0.393  -0.683   1.277  0.00  0.00    -0.492 OA
BRANCH   8  10
ATOM      9  C   UNL     1      -1.940   1.068   0.659  0.00  0.00    +0.048 C 
ATOM     10  C   UNL     1      -1.682  -0.439   0.711  0.00  0.00    +0.225 C 
ENDBRANCH   8  10
ENDBRANCH   2   8
ENDBRANCH   1   5
BRANCH   1  11
ATOM     11  S   UNL     1       1.536  -6.585   3.251  0.00  0.00    +0.075 S 
ATOM     12  O   UNL     1       2.378  -7.708   3.030  0.00  0.00    -0.150 OA
ATOM     13  O   UNL     1       1.926  -5.489   4.067  0.00  0.00    -0.150 OA
BRANCH  11  14
ATOM     14  C   UNL     1       0.033  -7.208   3.928  0.00  0.00    +0.109 A 
ATOM     15  C   UNL     1      -0.777  -6.384   4.687  0.00  0.00    +0.030 A 
ATOM     16  C   UNL     1      -1.956  -6.872   5.218  0.00  0.00    +0.017 A 
ATOM     17  C   UNL     1      -2.326  -8.185   4.989  0.00  0.00    +0.018 A 
ATOM     18  C   UNL     1      -1.516  -9.009   4.229  0.00  0.00    +0.017 A 
ATOM     19  C   UNL     1      -0.339  -8.519   3.695  0.00  0.00    +0.030 A 
ATOM     20 BR   UNL     1      -3.939  -8.853   5.715  0.00  0.00    -0.050 Br
ENDBRANCH  11  14
ENDBRANCH   1  11
BRANCH   1  21
ATOM     21  C   UNL     1       1.281  -6.807   0.568  0.00  0.00    +0.228 C 
BRANCH  21  22
ATOM     22  C   UNL     1       2.632  -6.614  -0.072  0.00  0.00    +0.251 C 
ATOM     23  O   UNL     1       3.431  -5.845   0.419  0.00  0.00    -0.272 OA
ATOM     24  N   UNL     1       2.951  -7.295  -1.190  0.00  0.00    -0.206 N 
ATOM     25  H   UNL     1       2.312  -7.910  -1.583  0.00  0.00    +0.177 HD
BRANCH  24  26
ATOM     26  N   UNL     1       4.207  -7.116  -1.785  0.00  0.00    -0.189 NA
ATOM     27  C   UNL     1       4.475  -7.686  -2.899  0.00  0.00    +0.033 C 
ATOM     28  C   UNL     1       3.488  -8.630  -3.554  0.00  0.00    +0.034 C 
ATOM     29  C   UNL     1       3.350  -8.232  -5.028  0.00  0.00    -0.073 C 
ATOM     30  N   UNL     1       4.677  -8.206  -5.654  0.00  0.00    +0.378 N 
ATOM     31  C   UNL     1       5.488  -7.126  -5.080  0.00  0.00    -0.073 C 
ATOM     32  C   UNL     1       5.787  -7.435  -3.613  0.00  0.00    +0.034 C 
ATOM     33  C   UNL     1       4.529  -7.987  -7.099  0.00  0.00    -0.096 C 
ATOM     34  H   UNL     1       5.138  -9.090  -5.497  0.00  0.00    -0.082 HD
ENDBRANCH  24  26
ENDBRANCH  21  22
ENDBRANCH   1  21
TORSDOF 8
