REMARK  Name = ZINC40983148
REMARK  9 active torsions:
REMARK  status: ('A' for Active; 'I' for Inactive)
REMARK    1  A    between atoms: C_1  and  C_2
REMARK    2  A    between atoms: C_2  and  C_3
REMARK    3  A    between atoms: C_3  and  S_4
REMARK    4  A    between atoms: S_4  and  C_5
REMARK    5  A    between atoms: C_10  and  C_26
REMARK    6  A    between atoms: C_12  and  C_16
REMARK    7  A    between atoms: C_13  and  C_15
REMARK    8  A    between atoms: N_18  and  C_19
REMARK    9  A    between atoms: C_24  and  C_25
REMARK                            x       y       z     vdW  Elec       q    Type
REMARK                         _______ _______ _______ _____ _____    ______ ____
ROOT
ATOM      1  C   UNL     1       1.453  -2.708   2.842  0.00  0.00    +0.210 A 
ATOM      2  N   UNL     1       2.010  -1.850   3.708  0.00  0.00    -0.187 NA
ATOM      3  C   UNL     1       2.627  -2.516   4.647  0.00  0.00    +0.219 A 
ATOM      4  N   UNL     1       2.478  -3.839   4.392  0.00  0.00    -0.220 N 
ATOM      5  N   UNL     1       1.712  -3.938   3.231  0.00  0.00    -0.141 NA
ATOM      6  C   UNL     1       3.045  -4.892   5.229  0.00  0.00    +0.179 C 
ATOM      7  C   UNL     1       3.532  -4.296   6.523  0.00  0.00    +0.060 C 
ATOM      8  C   UNL     1       3.656  -2.976   6.720  0.00  0.00    +0.018 C 
ATOM      9  N   UNL     1       3.334  -2.058   5.750  0.00  0.00    -0.287 N 
ATOM     10  C   UNL     1       4.164  -2.482   8.050  0.00  0.00    +0.061 C 
ATOM     11  H   UNL     1       3.591  -1.126   5.833  0.00  0.00    +0.155 HD
ENDROOT
BRANCH   6  12
ATOM     12  C   UNL     1       4.199  -5.540   4.509  0.00  0.00    -0.000 A 
ATOM     13  C   UNL     1       4.169  -6.894   4.210  0.00  0.00    +0.009 A 
ATOM     14  C   UNL     1       5.253  -7.447   3.546  0.00  0.00    +0.020 A 
ATOM     15  C   UNL     1       6.320  -6.637   3.207  0.00  0.00    +0.111 A 
ATOM     16  N   UNL     1       6.315  -5.353   3.508  0.00  0.00    -0.263 NA
ATOM     17  C   UNL     1       5.298  -4.792   4.133  0.00  0.00    +0.116 A 
ENDBRANCH   6  12
BRANCH   7  18
ATOM     18  C   UNL     1       3.874  -5.171   7.582  0.00  0.00    +0.248 C 
ATOM     19  O   UNL     1       3.001  -5.653   8.280  0.00  0.00    -0.270 OA
ATOM     20  N   UNL     1       5.167  -5.470   7.816  0.00  0.00    -0.281 N 
ATOM     21  H   UNL     1       5.867  -5.037   7.303  0.00  0.00    +0.155 HD
BRANCH  20  22
ATOM     22  C   UNL     1       5.501  -6.405   8.801  0.00  0.00    +0.037 A 
ATOM     23  C   UNL     1       4.739  -6.498   9.960  0.00  0.00    +0.023 A 
ATOM     24  C   UNL     1       5.071  -7.422  10.930  0.00  0.00    +0.002 A 
ATOM     25  C   UNL     1       6.160  -8.255  10.750  0.00  0.00    +0.000 A 
ATOM     26  C   UNL     1       6.920  -8.166   9.598  0.00  0.00    +0.005 A 
ATOM     27  C   UNL     1       6.590  -7.247   8.621  0.00  0.00    -0.029 A 
ATOM     28  C   UNL     1       7.415  -7.154   7.364  0.00  0.00    +0.045 C 
ENDBRANCH  20  22
ENDBRANCH   7  18
BRANCH   1  29
ATOM     29  S   UNL     1       0.518  -2.262   1.417  0.00  0.00    -0.084 S 
BRANCH  29  30
ATOM     30  C   UNL     1       0.526  -0.448   1.438  0.00  0.00    +0.077 C 
BRANCH  30  32
ATOM     31  C   UNL     1      -0.256   1.609   0.255  0.00  0.00    +0.004 C 
ATOM     32  C   UNL     1      -0.262   0.080   0.237  0.00  0.00    +0.008 C 
ENDBRANCH  30  32
ENDBRANCH  29  30
ENDBRANCH   1  29
TORSDOF 6
