REMARK  Name = ZINC36700534
REMARK  12 active torsions:
REMARK  status: ('A' for Active; 'I' for Inactive)
REMARK    1  A    between atoms: C_1  and  C_2
REMARK    2  A    between atoms: C_2  and  C_3
REMARK    3  A    between atoms: C_3  and  C_4
REMARK    4  A    between atoms: C_4  and  C_5
REMARK    5  A    between atoms: C_5  and  N_6
REMARK    6  A    between atoms: C_15  and  C_17
REMARK    7  A    between atoms: N_19  and  C_20
REMARK    8  A    between atoms: C_20  and  C_21
REMARK    9  A    between atoms: C_21  and  C_23
REMARK   10  A    between atoms: C_21  and  N_30
REMARK   11  A    between atoms: N_30  and  C_31
REMARK   12  A    between atoms: N_30  and  C_32
REMARK                            x       y       z     vdW  Elec       q    Type
REMARK                         _______ _______ _______ _____ _____    ______ ____
ROOT
ATOM      1  C   UNL     1       3.777  -6.965  -0.649  0.00  0.00    +0.265 C 
ATOM      2  O   UNL     1       4.076  -8.142  -0.588  0.00  0.00    -0.268 OA
ATOM      3  N   UNL     1       4.673  -6.023  -0.297  0.00  0.00    -0.311 N 
ATOM      4  H   UNL     1       4.434  -5.084  -0.346  0.00  0.00    +0.149 HD
ENDROOT
BRANCH   1  14
ATOM      5  N   UNL     1       0.958  -4.877  -1.566  0.00  0.00    -0.228 N 
ATOM      6  C   UNL     1      -0.048  -5.689  -1.952  0.00  0.00    +0.275 A 
ATOM      7  O   UNL     1      -1.116  -5.229  -2.312  0.00  0.00    -0.266 OA
ATOM      8  C   UNL     1       0.176  -7.141  -1.928  0.00  0.00    +0.050 A 
ATOM      9  C   UNL     1      -0.796  -8.062  -2.305  0.00  0.00    +0.014 A 
ATOM     10  C   UNL     1      -0.506  -9.409  -2.253  0.00  0.00    +0.001 A 
ATOM     11  C   UNL     1       0.740  -9.851  -1.830  0.00  0.00    +0.001 A 
ATOM     12  C   UNL     1       1.716  -8.954  -1.451  0.00  0.00    +0.011 A 
ATOM     13  C   UNL     1       1.445  -7.591  -1.496  0.00  0.00    +0.020 A 
ATOM     14  C   UNL     1       2.431  -6.569  -1.109  0.00  0.00    +0.154 A 
ATOM     15  N   UNL     1       2.102  -5.302  -1.183  0.00  0.00    -0.163 NA
BRANCH   5  16
ATOM     16  C   UNL     1       0.730  -3.430  -1.593  0.00  0.00    +0.147 C 
BRANCH  16  17
ATOM     17  C   UNL     1       0.176  -2.976  -0.240  0.00  0.00    +0.023 C 
BRANCH  17  18
ATOM     18  C   UNL     1      -0.063  -1.465  -0.268  0.00  0.00    +0.002 C 
BRANCH  18  20
ATOM     19  C   UNL     1      -0.855   0.500   1.056  0.00  0.00    +0.004 C 
ATOM     20  C   UNL     1      -0.616  -1.011   1.084  0.00  0.00    -0.003 C 
ENDBRANCH  18  20
ENDBRANCH  17  18
ENDBRANCH  16  17
ENDBRANCH   5  16
ENDBRANCH   1  14
BRANCH   3  21
ATOM     21  C   UNL     1       6.008  -6.416   0.160  0.00  0.00    +0.094 C 
BRANCH  21  22
ATOM     22  C   UNL     1       6.862  -5.165   0.379  0.00  0.00    -0.020 C 
BRANCH  22  23
ATOM     23  C   UNL     1       7.078  -4.467  -0.939  0.00  0.00    -0.041 A 
ATOM     24  C   UNL     1       6.316  -3.362  -1.270  0.00  0.00    +0.003 A 
ATOM     25  C   UNL     1       6.515  -2.722  -2.479  0.00  0.00    +0.000 A 
ATOM     26  C   UNL     1       7.475  -3.187  -3.358  0.00  0.00    +0.001 A 
ATOM     27  C   UNL     1       8.237  -4.292  -3.029  0.00  0.00    +0.020 A 
ATOM     28  C   UNL     1       8.043  -4.930  -1.817  0.00  0.00    +0.043 A 
ATOM     29 CL   UNL     1       9.004  -6.314  -1.399  0.00  0.00    -0.083 Cl
ENDBRANCH  22  23
BRANCH  22  30
ATOM     30  N   UNL     1       6.172  -4.258   1.306  0.00  0.00    +0.382 N 
ATOM     31  C   UNL     1       5.844  -4.978   2.543  0.00  0.00    -0.096 C 
ATOM     32  C   UNL     1       7.046  -3.119   1.619  0.00  0.00    -0.096 C 
ATOM     33  H   UNL     1       5.322  -3.921   0.877  0.00  0.00    -0.082 HD
ENDBRANCH  22  30
ENDBRANCH  21  22
ENDBRANCH   3  21
TORSDOF 9
