REMARK  Name = ZINC24918710
REMARK  10 active torsions:
REMARK  status: ('A' for Active; 'I' for Inactive)
REMARK    1  A    between atoms: C_1  and  C_2
REMARK    2  A    between atoms: C_2  and  C_4
REMARK    3  A    between atoms: C_2  and  N_27
REMARK    4  A    between atoms: C_7  and  S_16
REMARK    5  A    between atoms: N_8  and  C_9
REMARK    6  A    between atoms: S_16  and  C_17
REMARK    7  A    between atoms: C_17  and  C_18
REMARK    8  A    between atoms: C_18  and  C_19
REMARK    9  A    between atoms: C_19  and  C_20
REMARK   10  A    between atoms: C_20  and  C_22
REMARK                            x       y       z     vdW  Elec       q    Type
REMARK                         _______ _______ _______ _____ _____    ______ ____
ROOT
ATOM      1  C   UNL     1      10.684   4.190   0.118  0.00  0.00    +0.125 A 
ATOM      2  N   UNL     1       9.546   4.821   0.187  0.00  0.00    -0.135 NA
ATOM      3  N   UNL     1       8.586   3.985   0.363  0.00  0.00    -0.122 NA
ATOM      4  C   UNL     1       9.062   2.763   0.418  0.00  0.00    +0.196 A 
ATOM      5  N   UNL     1      10.418   2.855   0.268  0.00  0.00    -0.275 N 
ENDROOT
BRANCH   5   6
ATOM      6  C   UNL     1      11.345   1.801   0.266  0.00  0.00    +0.050 A 
ATOM      7  C   UNL     1      12.297   1.710   1.272  0.00  0.00    +0.029 A 
ATOM      8  C   UNL     1      13.204   0.669   1.271  0.00  0.00    +0.040 A 
ATOM      9  C   UNL     1      13.171  -0.278   0.261  0.00  0.00    +0.124 A 
ATOM     10  C   UNL     1      12.226  -0.186  -0.746  0.00  0.00    +0.040 A 
ATOM     11  C   UNL     1      11.313   0.851  -0.745  0.00  0.00    +0.029 A 
ATOM     12  F   UNL     1      14.063  -1.293   0.259  0.00  0.00    -0.205 F 
ENDBRANCH   5   6
BRANCH   1  14
ATOM     13  C   UNL     1      12.180   5.274  -1.536  0.00  0.00    -0.005 C 
ATOM     14  C   UNL     1      12.041   4.814  -0.083  0.00  0.00    -0.002 C 
BRANCH  14  15
ATOM     15  N   UNL     1      12.186   5.970   0.812  0.00  0.00    +0.386 N 
ATOM     16  C   UNL     1      13.510   6.586   0.665  0.00  0.00    -0.078 C 
ATOM     17  C   UNL     1      13.574   7.867   1.501  0.00  0.00    -0.019 C 
ATOM     18  C   UNL     1      13.311   7.525   2.970  0.00  0.00    -0.004 C 
ATOM     19  C   UNL     1      11.946   6.840   3.090  0.00  0.00    -0.019 C 
ATOM     20  C   UNL     1      11.930   5.590   2.208  0.00  0.00    -0.078 C 
ATOM     21  H   UNL     1      11.434   6.719   0.525  0.00  0.00    -0.081 HD
ENDBRANCH  14  15
ENDBRANCH   1  14
BRANCH   4  22
ATOM     22  S   UNL     1       8.131   1.285   0.648  0.00  0.00    -0.086 S 
BRANCH  22  23
ATOM     23  C   UNL     1       6.463   1.979   0.769  0.00  0.00    +0.078 C 
BRANCH  23  24
ATOM     24  C   UNL     1       5.454   0.849   0.977  0.00  0.00    +0.019 C 
BRANCH  24  25
ATOM     25  C   UNL     1       4.045   1.436   1.079  0.00  0.00    +0.081 C 
BRANCH  25  26
ATOM     26  C   UNL     1       3.050   0.322   1.284  0.00  0.00    +0.170 C 
ATOM     27  O   UNL     1       3.432  -0.829   1.343  0.00  0.00    -0.292 OA
BRANCH  26  28
ATOM     28  C   UNL     1       1.675   0.618   1.408  0.00  0.00    +0.055 A 
ATOM     29  C   UNL     1       0.605  -0.251   1.600  0.00  0.00    +0.019 A 
ATOM     30  C   UNL     1      -0.643   0.308   1.681  0.00  0.00    +0.008 A 
ATOM     31  C   UNL     1      -0.775   1.659   1.584  0.00  0.00    +0.046 A 
ATOM     32  S   UNL     1       0.856   2.202   1.359  0.00  0.00    -0.094 S 
ENDBRANCH  26  28
ENDBRANCH  25  26
ENDBRANCH  24  25
ENDBRANCH  23  24
ENDBRANCH  22  23
ENDBRANCH   4  22
TORSDOF 9
