REMARK  Name = ZINC37130804
REMARK  7 active torsions:
REMARK  status: ('A' for Active; 'I' for Inactive)
REMARK    1  A    between atoms: C_1  and  C_2
REMARK    2  A    between atoms: C_2  and  C_4
REMARK    3  A    between atoms: C_2  and  N_11
REMARK    4  A    between atoms: N_11  and  C_12
REMARK    5  A    between atoms: C_16  and  N_18
REMARK    6  A    between atoms: N_18  and  S_19
REMARK    7  A    between atoms: S_19  and  N_22
REMARK                            x       y       z     vdW  Elec       q    Type
REMARK                         _______ _______ _______ _____ _____    ______ ____
ROOT
ATOM      1  C   UNL     1       2.103  -0.604   1.173  0.00  0.00    +0.029 A 
ATOM      2  C   UNL     1       2.817  -0.252   0.034  0.00  0.00    +0.023 A 
ATOM      3  C   UNL     1       4.193  -0.365   0.017  0.00  0.00    +0.004 A 
ATOM      4  C   UNL     1       4.865  -0.828   1.133  0.00  0.00    +0.024 A 
ATOM      5  C   UNL     1       4.157  -1.181   2.275  0.00  0.00    +0.051 A 
ATOM      6  C   UNL     1       2.774  -1.063   2.297  0.00  0.00    +0.047 A 
ENDROOT
BRANCH   1   7
ATOM      7  N   UNL     1       0.711  -0.489   1.189  0.00  0.00    -0.337 N 
ATOM      8  H   UNL     1       0.213  -0.731   1.986  0.00  0.00    +0.147 HD
BRANCH   7  10
ATOM      9  C   UNL     1      -0.019   1.526   0.010  0.00  0.00    +0.033 C 
ATOM     10  C   UNL     1       0.002  -0.004   0.002  0.00  0.00    +0.099 C 
BRANCH  10  11
ATOM     11  C   UNL     1      -1.412  -0.526   0.013  0.00  0.00    -0.009 A 
ATOM     12  C   UNL     1      -2.015  -0.864   1.210  0.00  0.00    +0.007 A 
ATOM     13  C   UNL     1      -3.312  -1.342   1.220  0.00  0.00    +0.000 A 
ATOM     14  C   UNL     1      -4.006  -1.483   0.033  0.00  0.00    +0.001 A 
ATOM     15  C   UNL     1      -3.404  -1.145  -1.165  0.00  0.00    +0.020 A 
ATOM     16  C   UNL     1      -2.108  -0.661  -1.175  0.00  0.00    +0.046 A 
ATOM     17 CL   UNL     1      -1.354  -0.230  -2.678  0.00  0.00    -0.083 Cl
ENDBRANCH  10  11
ENDBRANCH   7  10
ENDBRANCH   1   7
BRANCH   5  18
ATOM     18  N   UNL     1       4.837  -1.650   3.401  0.00  0.00    -0.207 N 
ATOM     19  H   UNL     1       4.508  -2.428   3.878  0.00  0.00    +0.175 HD
BRANCH  18  20
ATOM     20  S   UNL     1       6.205  -0.876   3.925  0.00  0.00    +0.107 S 
ATOM     21  O   UNL     1       6.641  -1.565   5.088  0.00  0.00    -0.138 OA
ATOM     22  O   UNL     1       7.035  -0.705   2.784  0.00  0.00    -0.138 OA
BRANCH  20  23
ATOM     23  N   UNL     1       5.753   0.640   4.413  0.00  0.00    -0.191 NA
ATOM     24  H   UNL     1       4.824   0.911   4.355  0.00  0.00    +0.146 HD
ATOM     25  H   UNL     1       6.418   1.257   4.757  0.00  0.00    +0.146 HD
ENDBRANCH  20  23
ENDBRANCH  18  20
ENDBRANCH   5  18
TORSDOF 6
