REMARK  Name = ZINC42629128
REMARK  8 active torsions:
REMARK  status: ('A' for Active; 'I' for Inactive)
REMARK    1  A    between atoms: C_1  and  C_2
REMARK    2  A    between atoms: C_2  and  C_3
REMARK    3  A    between atoms: C_3  and  C_22
REMARK    4  A    between atoms: N_6  and  C_10
REMARK    5  A    between atoms: C_10  and  C_11
REMARK    6  A    between atoms: C_11  and  O_13
REMARK    7  A    between atoms: O_13  and  C_14
REMARK    8  A    between atoms: C_22  and  C_23
REMARK                            x       y       z     vdW  Elec       q    Type
REMARK                         _______ _______ _______ _____ _____    ______ ____
ROOT
ATOM      1  C   UNL     1      -1.532  -0.424  -0.293  0.00  0.00    +0.112 C 
ATOM      2  C   UNL     1      -2.234   0.109   0.940  0.00  0.00    +0.247 C 
ATOM      3  O   UNL     1      -1.910  -0.056   2.096  0.00  0.00    -0.273 OA
ATOM      4  N   UNL     1      -3.293   0.806   0.483  0.00  0.00    -0.213 N 
ATOM      5  C   UNL     1      -3.357   0.787  -0.853  0.00  0.00    +0.310 C 
ATOM      6  O   UNL     1      -4.225   1.345  -1.496  0.00  0.00    -0.252 OA
ATOM      7  N   UNL     1      -2.354   0.082  -1.406  0.00  0.00    -0.285 N 
ATOM      8  H   UNL     1      -2.202  -0.065  -2.352  0.00  0.00    +0.151 HD
ENDROOT
BRANCH   1  10
ATOM      9  C   UNL     1      -0.149   1.657  -0.332  0.00  0.00    +0.006 C 
ATOM     10  C   UNL     1      -0.107   0.129  -0.382  0.00  0.00    +0.032 C 
ENDBRANCH   1  10
BRANCH   1  11
ATOM     11  C   UNL     1      -1.515  -1.954  -0.288  0.00  0.00    +0.032 C 
ATOM     12  C   UNL     1      -2.951  -2.479  -0.324  0.00  0.00    +0.006 C 
ENDBRANCH   1  11
BRANCH   4  13
ATOM     13  C   UNL     1      -4.257   1.497   1.344  0.00  0.00    +0.238 C 
BRANCH  13  14
ATOM     14  C   UNL     1      -3.791   2.910   1.585  0.00  0.00    +0.331 C 
ATOM     15  O   UNL     1      -2.760   3.299   1.089  0.00  0.00    -0.249 OA
BRANCH  14  16
ATOM     16  O   UNL     1      -4.521   3.736   2.351  0.00  0.00    -0.423 OA
BRANCH  16  17
ATOM     17  C   UNL     1      -4.013   4.966   2.628  0.00  0.00    +0.150 A 
ATOM     18  C   UNL     1      -3.292   5.173   3.795  0.00  0.00    +0.049 A 
ATOM     19  C   UNL     1      -2.776   6.424   4.075  0.00  0.00    +0.023 A 
ATOM     20  C   UNL     1      -2.979   7.470   3.192  0.00  0.00    +0.043 A 
ATOM     21  C   UNL     1      -3.697   7.267   2.028  0.00  0.00    +0.043 A 
ATOM     22  C   UNL     1      -4.210   6.015   1.741  0.00  0.00    +0.085 A 
ATOM     23 CL   UNL     1      -5.105   5.758   0.276  0.00  0.00    -0.080 Cl
ATOM     24 CL   UNL     1      -2.330   9.041   3.547  0.00  0.00    -0.083 Cl
ENDBRANCH  16  17
ENDBRANCH  14  16
ENDBRANCH  13  14
ENDBRANCH   4  13
TORSDOF 6
