REMARK  Name = ZINC65245928
REMARK  5 active torsions:
REMARK  status: ('A' for Active; 'I' for Inactive)
REMARK    1  A    between atoms: C_1  and  C_2
REMARK    2  A    between atoms: C_5  and  C_7
REMARK    3  A    between atoms: C_7  and  N_8
REMARK    4  A    between atoms: C_9  and  C_11
REMARK    5  A    between atoms: C_13  and  C_16
REMARK                            x       y       z     vdW  Elec       q    Type
REMARK                         _______ _______ _______ _____ _____    ______ ____
ROOT
ATOM      1  C   UNL     1       3.178  -4.981  -3.063  0.00  0.00    +0.314 A 
ATOM      2  N   UNL     1       3.936  -5.980  -3.441  0.00  0.00    -0.183 NA
ATOM      3  C   UNL     1       3.982  -6.040  -4.779  0.00  0.00    +0.203 A 
ATOM      4  N   UNL     1       3.249  -5.071  -5.272  0.00  0.00    -0.055 NA
ATOM      5  O   UNL     1       2.708  -4.369  -4.163  0.00  0.00    -0.328 OA
ENDROOT
BRANCH   3   6
ATOM      6  C   UNL     1       4.741  -7.039  -5.574  0.00  0.00    +0.027 A 
ATOM      7  C   UNL     1       5.490  -8.038  -4.943  0.00  0.00    +0.029 A 
ATOM      8  C   UNL     1       6.182  -8.948  -5.714  0.00  0.00    +0.085 A 
ATOM      9  N   UNL     1       6.145  -8.889  -7.032  0.00  0.00    -0.350 N 
ATOM     10  C   UNL     1       5.449  -7.961  -7.671  0.00  0.00    +0.099 A 
ATOM     11  C   UNL     1       4.720  -7.010  -6.967  0.00  0.00    +0.053 A 
ATOM     12  N   UNL     1       5.444  -7.941  -9.062  0.00  0.00    -0.317 N 
ATOM     13  C   UNL     1       6.303  -8.855  -9.827  0.00  0.00    +0.106 C 
ATOM     14  C   UNL     1       5.435  -9.627 -10.826  0.00  0.00    +0.019 C 
ATOM     15  C   UNL     1       4.649  -8.634 -11.686  0.00  0.00    +0.003 C 
ATOM     16  C   UNL     1       3.730  -7.798 -10.793  0.00  0.00    +0.019 C 
ATOM     17  C   UNL     1       4.574  -7.010  -9.794  0.00  0.00    +0.106 C 
ATOM     18  H   UNL     1       6.642  -9.543  -7.548  0.00  0.00    +0.166 HD
ENDBRANCH   3   6
BRANCH   1  20
ATOM     19  N   UNL     1       2.081  -3.544  -1.406  0.00  0.00    -0.300 N 
ATOM     20  C   UNL     1       2.885  -4.595  -1.662  0.00  0.00    +0.302 C 
ATOM     21  O   UNL     1       3.369  -5.227  -0.744  0.00  0.00    -0.265 OA
ATOM     22  H   UNL     1       1.694  -3.040  -2.139  0.00  0.00    +0.150 HD
BRANCH  19  23
ATOM     23  C   UNL     1       1.791  -3.163  -0.022  0.00  0.00    +0.179 C 
BRANCH  23  28
ATOM     24  C   UNL     1       0.193   1.621   0.011  0.00  0.00    +0.086 C 
ATOM     25  C   UNL     1       0.180   0.114   0.003  0.00  0.00    +0.102 A 
ATOM     26  C   UNL     1      -0.918  -0.664   0.004  0.00  0.00    +0.045 A 
ATOM     27  C   UNL     1      -0.470  -2.005  -0.005  0.00  0.00    +0.046 A 
ATOM     28  C   UNL     1       0.875  -1.966  -0.012  0.00  0.00    +0.122 A 
ATOM     29  O   UNL     1       1.263  -0.680  -0.012  0.00  0.00    -0.463 OA
ENDBRANCH  23  28
ENDBRANCH  19  23
ENDBRANCH   1  20
TORSDOF 4
