REMARK  Name = ZINC25037085
REMARK  4 active torsions:
REMARK  status: ('A' for Active; 'I' for Inactive)
REMARK    1  A    between atoms: C_9  and  C_12
REMARK    2  A    between atoms: C_15  and  C_17
REMARK    3  A    between atoms: C_17  and  N_18
REMARK    4  A    between atoms: C_21  and  C_24
REMARK                            x       y       z     vdW  Elec       q    Type
REMARK                         _______ _______ _______ _____ _____    ______ ____
ROOT
ATOM      1  C   UNL     1      -4.182   0.167   2.289  0.00  0.00    +0.019 C 
ENDROOT
BRANCH   1  12
ATOM      2  C   UNL     1       1.430   1.127   2.117  0.00  0.00    +0.002 A 
ATOM      3  C   UNL     1       1.941   1.877   1.073  0.00  0.00    +0.004 A 
ATOM      4  C   UNL     1       1.113   2.307   0.053  0.00  0.00    +0.047 A 
ATOM      5  C   UNL     1      -0.236   1.988   0.072  0.00  0.00    +0.143 A 
ATOM      6  C   UNL     1      -0.749   1.235   1.125  0.00  0.00    +0.078 A 
ATOM      7  C   UNL     1       0.086   0.805   2.145  0.00  0.00    +0.027 A 
ATOM      8  N   UNL     1      -2.116   0.913   1.151  0.00  0.00    -0.266 N 
ATOM      9  C   UNL     1      -2.894   1.120  -0.086  0.00  0.00    +0.168 C 
ATOM     10  C   UNL     1      -2.449   2.459  -0.690  0.00  0.00    +0.276 C 
ATOM     11  O   UNL     1      -1.042   2.412  -0.937  0.00  0.00    -0.476 OA
ATOM     12  C   UNL     1      -2.699   0.432   2.267  0.00  0.00    +0.203 C 
ATOM     13  O   UNL     1      -2.029   0.211   3.254  0.00  0.00    -0.277 OA
BRANCH  10  14
ATOM     14  C   UNL     1      -3.181   2.697  -1.986  0.00  0.00    +0.253 C 
ATOM     15  O   UNL     1      -2.567   2.729  -3.032  0.00  0.00    -0.272 OA
ATOM     16  N   UNL     1      -4.517   2.874  -1.983  0.00  0.00    -0.326 N 
ATOM     17  H   UNL     1      -5.051   3.048  -2.929  0.00  0.00    +0.145 HD
ATOM     18  H   UNL     1      -5.073   2.845  -1.034  0.00  0.00    +0.145 HD
ENDBRANCH  10  14
ENDBRANCH   1  12
BRANCH   1  19
ATOM     19  N   UNL     1      -4.592  -0.214   3.647  0.00  0.00    +0.385 N 
ATOM     20  C   UNL     1      -4.240   0.832   4.615  0.00  0.00    -0.078 C 
ATOM     21  C   UNL     1      -4.547   0.342   6.032  0.00  0.00    -0.009 C 
ATOM     22  C   UNL     1      -6.037   0.003   6.138  0.00  0.00    +0.041 C 
ATOM     23  C   UNL     1      -6.388  -1.053   5.086  0.00  0.00    -0.009 C 
ATOM     24  C   UNL     1      -6.027  -0.522   3.697  0.00  0.00    -0.078 C 
ATOM     25  H   UNL     1      -4.043  -1.126   3.924  0.00  0.00    -0.081 HD
BRANCH  22  26
ATOM     26  C   UNL     1      -6.336  -0.536   7.513  0.00  0.00    +0.082 A 
ATOM     27  N   UNL     1      -5.838  -1.592   8.093  0.00  0.00    -0.244 NA
ATOM     28  C   UNL     1      -6.190  -1.967   9.340  0.00  0.00    +0.080 A 
ATOM     29  C   UNL     1      -5.740  -3.072  10.097  0.00  0.00    +0.049 A 
ATOM     30  C   UNL     1      -6.223  -3.295  11.361  0.00  0.00    +0.043 A 
ATOM     31  C   UNL     1      -7.164  -2.450  11.937  0.00  0.00    +0.021 A 
ATOM     32  C   UNL     1      -7.626  -1.361  11.223  0.00  0.00    +0.018 A 
ATOM     33  C   UNL     1      -7.147  -1.129   9.957  0.00  0.00    +0.039 A 
ATOM     34  S   UNL     1      -7.431   0.096   8.703  0.00  0.00    -0.072 S 
ATOM     35 CL   UNL     1      -5.646  -4.662  12.262  0.00  0.00    -0.083 Cl
ENDBRANCH  22  26
ENDBRANCH   1  19
TORSDOF 4
