REMARK  Name = ZINC16915960
REMARK  12 active torsions:
REMARK  status: ('A' for Active; 'I' for Inactive)
REMARK    1  A    between atoms: C_1  and  C_2
REMARK    2  A    between atoms: C_2  and  C_4
REMARK    3  A    between atoms: C_2  and  O_14
REMARK    4  A    between atoms: N_9  and  C_10
REMARK    5  A    between atoms: C_10  and  C_11
REMARK    6  A    between atoms: C_10  and  C_12
REMARK    7  A    between atoms: C_10  and  C_13
REMARK    8  A    between atoms: O_14  and  C_15
REMARK    9  A    between atoms: C_15  and  C_17
REMARK   10  A    between atoms: C_17  and  C_18
REMARK   11  A    between atoms: C_18  and  N_19
REMARK   12  A    between atoms: N_22  and  C_23
REMARK                            x       y       z     vdW  Elec       q    Type
REMARK                         _______ _______ _______ _____ _____    ______ ____
ROOT
ATOM      1  C   UNL     1      -8.629   0.577   1.955  0.00  0.00    +0.139 C 
ENDROOT
BRANCH   1   2
ATOM      2  C   UNL     1      -9.551   0.922   3.096  0.00  0.00    +0.309 C 
ATOM      3  O   UNL     1      -9.156   1.617   4.002  0.00  0.00    -0.251 OA
BRANCH   2   4
ATOM      4  O   UNL     1     -10.810   0.458   3.106  0.00  0.00    -0.452 OA
BRANCH   4   6
ATOM      5  C   UNL     1     -11.495  -0.215   5.344  0.00  0.00    +0.062 C 
ATOM      6  C   UNL     1     -11.642   0.830   4.236  0.00  0.00    +0.259 C 
BRANCH   6   7
ATOM      7  C   UNL     1     -13.082   0.899   3.799  0.00  0.00    +0.261 C 
ATOM      8  O   UNL     1     -13.390   0.571   2.673  0.00  0.00    -0.271 OA
ATOM      9  N   UNL     1     -14.028   1.326   4.659  0.00  0.00    -0.237 N 
ATOM     10  C   UNL     1     -15.316   1.388   4.268  0.00  0.00    +0.306 C 
ATOM     11  O   UNL     1     -15.625   1.059   3.140  0.00  0.00    -0.252 OA
ATOM     12  N   UNL     1     -16.262   1.815   5.128  0.00  0.00    -0.294 N 
ATOM     13  H   UNL     1     -13.781   1.589   5.560  0.00  0.00    +0.159 HD
ATOM     14  H   UNL     1     -16.015   2.078   6.029  0.00  0.00    +0.151 HD
BRANCH  12  15
ATOM     15  C   UNL     1     -17.662   1.882   4.703  0.00  0.00    +0.028 C 
ATOM     16  C   UNL     1     -18.138   0.487   4.293  0.00  0.00    +0.031 C 
ATOM     17  C   UNL     1     -18.522   2.395   5.860  0.00  0.00    +0.031 C 
ATOM     18  C   UNL     1     -17.789   2.835   3.513  0.00  0.00    +0.031 C 
ENDBRANCH  12  15
ENDBRANCH   6   7
ENDBRANCH   4   6
ENDBRANCH   2   4
ENDBRANCH   1   2
BRANCH   1  19
ATOM     19  C   UNL     1      -7.264   1.227   2.188  0.00  0.00    +0.117 C 
BRANCH  19  20
ATOM     20  N   UNL     1      -6.368   0.892   1.079  0.00  0.00    -0.299 N 
ATOM     21  C   UNL     1      -5.103   1.358   1.069  0.00  0.00    +0.300 C 
ATOM     22  O   UNL     1      -4.706   2.058   1.981  0.00  0.00    -0.253 OA
ATOM     23  N   UNL     1      -4.279   1.049   0.049  0.00  0.00    -0.294 N 
ATOM     24  H   UNL     1      -6.684   0.334   0.351  0.00  0.00    +0.150 HD
ATOM     25  H   UNL     1      -4.595   0.491  -0.679  0.00  0.00    +0.151 HD
BRANCH  23  26
ATOM     26  C   UNL     1      -2.904   1.556   0.038  0.00  0.00    +0.037 C 
ATOM     27  C   UNL     1      -2.188   1.063  -1.221  0.00  0.00    +0.029 C 
ATOM     28  C   UNL     1      -0.753   1.593  -1.232  0.00  0.00    -0.008 C 
ATOM     29  C   UNL     1      -0.013   1.086   0.008  0.00  0.00    +0.007 C 
ATOM     30  C   UNL     1      -0.729   1.579   1.267  0.00  0.00    -0.008 C 
ATOM     31  C   UNL     1      -2.164   1.050   1.278  0.00  0.00    +0.029 C 
ATOM     32  C   UNL     1      -0.750   3.109   1.275  0.00  0.00    +0.007 C 
ATOM     33  C   UNL     1      -1.490   3.616   0.036  0.00  0.00    -0.008 C 
ATOM     34  C   UNL     1      -0.773   3.123  -1.223  0.00  0.00    +0.007 C 
ATOM     35  C   UNL     1      -2.925   3.086   0.047  0.00  0.00    +0.029 C 
ENDBRANCH  23  26
ENDBRANCH  19  20
ENDBRANCH   1  19
TORSDOF 8
