REMARK  Name = ZINC65196303
REMARK  5 active torsions:
REMARK  status: ('A' for Active; 'I' for Inactive)
REMARK    1  A    between atoms: C_1  and  C_2
REMARK    2  A    between atoms: C_5  and  S_8
REMARK    3  A    between atoms: S_8  and  N_11
REMARK    4  A    between atoms: C_15  and  C_18
REMARK    5  A    between atoms: C_21  and  C_24
REMARK                            x       y       z     vdW  Elec       q    Type
REMARK                         _______ _______ _______ _____ _____    ______ ____
ROOT
ATOM      1  N   UNL     1       1.651  -4.999  -0.034  0.00  0.00    -0.176 NA
ATOM      2  C   UNL     1       2.364  -5.199  -1.304  0.00  0.00    +0.109 C 
ATOM      3  C   UNL     1       3.645  -4.360  -1.286  0.00  0.00    +0.018 C 
ATOM      4  C   UNL     1       4.465  -4.714  -0.043  0.00  0.00    +0.010 C 
ATOM      5  C   UNL     1       3.656  -4.385   1.214  0.00  0.00    +0.057 C 
ATOM      6  C   UNL     1       2.376  -5.218   1.225  0.00  0.00    +0.117 C 
ENDROOT
BRANCH   5   7
ATOM      7  C   UNL     1       4.489  -4.708   2.456  0.00  0.00    +0.247 C 
ATOM      8  N   UNL     1       5.737  -3.937   2.445  0.00  0.00    -0.342 N 
ATOM      9  C   UNL     1       6.737  -4.763   2.425  0.00  0.00    +0.135 C 
ATOM     10  N   UNL     1       6.309  -6.067   2.422  0.00  0.00    -0.247 N 
ATOM     11  O   UNL     1       4.889  -6.087   2.442  0.00  0.00    -0.248 OA
ATOM     12  H   UNL     1       6.883  -6.849   2.409  0.00  0.00    +0.196 HD
ATOM     13  H   UNL     1       5.804  -2.969   2.451  0.00  0.00    +0.164 HD
BRANCH   9  14
ATOM     14  C   UNL     1       8.160  -4.352   2.409  0.00  0.00    +0.029 C 
ATOM     15  C   UNL     1       9.135  -5.294   2.383  0.00  0.00    -0.005 C 
ATOM     16  C   UNL     1      10.570  -4.809   2.367  0.00  0.00    +0.125 C 
ATOM     17  C   UNL     1      10.795  -3.313   2.381  0.00  0.00    +0.240 C 
ATOM     18  O   UNL     1      11.922  -2.860   2.368  0.00  0.00    -0.273 OA
ATOM     19  N   UNL     1       9.736  -2.497   2.406  0.00  0.00    -0.188 NA
ATOM     20  C   UNL     1       8.507  -2.933   2.413  0.00  0.00    +0.112 C 
ENDBRANCH   9  14
ENDBRANCH   5   7
BRANCH   1  21
ATOM     21  S   UNL     1       0.063  -4.530  -0.023  0.00  0.00    +0.061 S 
ATOM     22  O   UNL     1      -0.476  -4.950   1.223  0.00  0.00    -0.153 OA
ATOM     23  O   UNL     1      -0.490  -4.937  -1.267  0.00  0.00    -0.153 OA
BRANCH  21  28
ATOM     24  C   UNL     1      -0.018   1.503   0.010  0.00  0.00    +0.044 C 
ATOM     25  C   UNL     1       0.002  -0.004   0.002  0.00  0.00    -0.050 A 
ATOM     26  C   UNL     1       0.006  -0.689  -1.199  0.00  0.00    +0.005 A 
ATOM     27  C   UNL     1       0.025  -2.071  -1.206  0.00  0.00    +0.029 A 
ATOM     28  C   UNL     1       0.040  -2.768  -0.013  0.00  0.00    +0.105 A 
ATOM     29  C   UNL     1       0.037  -2.084   1.188  0.00  0.00    +0.029 A 
ATOM     30  C   UNL     1       0.023  -0.702   1.195  0.00  0.00    +0.005 A 
ENDBRANCH  21  28
ENDBRANCH   1  21
TORSDOF 4
