REMARK  Name = ZINC39970488
REMARK  7 active torsions:
REMARK  status: ('A' for Active; 'I' for Inactive)
REMARK    1  A    between atoms: C_1  and  C_2
REMARK    2  A    between atoms: C_5  and  N_21
REMARK    3  A    between atoms: C_7  and  N_8
REMARK    4  A    between atoms: N_8  and  C_9
REMARK    5  A    between atoms: C_9  and  N_11
REMARK    6  A    between atoms: N_14  and  S_17
REMARK    7  A    between atoms: S_17  and  C_20
REMARK                            x       y       z     vdW  Elec       q    Type
REMARK                         _______ _______ _______ _____ _____    ______ ____
ROOT
ATOM      1  N   UNL     1       0.030  -0.015   2.417  0.00  0.00    -0.296 N 
ATOM      2  H   UNL     1       0.091   0.953   2.426  0.00  0.00    +0.154 HD
ENDROOT
BRANCH   1   9
ATOM      3  C   UNL     1      -1.673   0.920   0.338  0.00  0.00    +0.045 C 
ATOM      4  C   UNL     1      -0.784  -0.283   0.159  0.00  0.00    -0.029 A 
ATOM      5  C   UNL     1      -0.775  -0.964  -1.043  0.00  0.00    +0.007 A 
ATOM      6  C   UNL     1       0.041  -2.068  -1.208  0.00  0.00    +0.033 A 
ATOM      7  C   UNL     1       0.851  -2.494  -0.171  0.00  0.00    +0.128 A 
ATOM      8  C   UNL     1       0.847  -1.818   1.033  0.00  0.00    +0.056 A 
ATOM      9  C   UNL     1       0.032  -0.705   1.201  0.00  0.00    +0.038 A 
BRANCH   7  10
ATOM     10  N   UNL     1       1.722  -3.676  -0.352  0.00  0.00    +0.056 N 
ATOM     11  O   UNL     1       1.726  -4.269  -1.406  0.00  0.00    -0.126 OA
ATOM     12  O   UNL     1       2.431  -4.050   0.554  0.00  0.00    -0.126 OA
ENDBRANCH   7  10
ENDBRANCH   1   9
BRANCH   1  13
ATOM     13  C   UNL     1      -0.057  -0.695   3.578  0.00  0.00    +0.137 C 
ATOM     14  S   UNL     1      -0.040  -2.407   3.570  0.00  0.00    -0.018 S 
BRANCH  13  15
ATOM     15  N   UNL     1      -0.156  -0.027   4.744  0.00  0.00    -0.310 N 
ATOM     16  C   UNL     1      -0.293   1.436   4.759  0.00  0.00    +0.124 C 
ATOM     17  C   UNL     1      -1.553   1.802   5.554  0.00  0.00    +0.128 C 
ATOM     18  N   UNL     1      -1.527   1.081   6.834  0.00  0.00    -0.178 NA
ATOM     19  C   UNL     1      -1.390  -0.383   6.819  0.00  0.00    +0.128 C 
ATOM     20  C   UNL     1      -0.136  -0.749   6.024  0.00  0.00    +0.124 C 
BRANCH  18  21
ATOM     21  S   UNL     1      -1.649   1.901   8.267  0.00  0.00    +0.029 S 
ATOM     22  O   UNL     1      -0.997   1.070   9.217  0.00  0.00    -0.158 OA
ATOM     23  O   UNL     1      -1.156   3.203   7.983  0.00  0.00    -0.158 OA
ATOM     24  C   UNL     1      -3.429   1.970   8.614  0.00  0.00    +0.215 C 
ENDBRANCH  18  21
ENDBRANCH  13  15
ENDBRANCH   1  13
TORSDOF 5
