REMARK  Name = ZINC10001033
REMARK  14 active torsions:
REMARK  status: ('A' for Active; 'I' for Inactive)
REMARK    1  A    between atoms: C_1  and  C_2
REMARK    2  A    between atoms: C_2  and  O_3
REMARK    3  A    between atoms: O_3  and  C_4
REMARK    4  A    between atoms: C_6  and  C_13
REMARK    5  A    between atoms: C_9  and  O_10
REMARK    6  A    between atoms: O_10  and  C_11
REMARK    7  A    between atoms: N_14  and  N_15
REMARK    8  A    between atoms: C_16  and  C_18
REMARK    9  A    between atoms: C_18  and  C_20
REMARK   10  A    between atoms: C_18  and  N_24
REMARK   11  A    between atoms: C_20  and  C_21
REMARK   12  A    between atoms: C_21  and  C_22
REMARK   13  A    between atoms: C_21  and  C_23
REMARK   14  A    between atoms: C_25  and  C_27
REMARK                            x       y       z     vdW  Elec       q    Type
REMARK                         _______ _______ _______ _____ _____    ______ ____
ROOT
ATOM      1  N   UNL     1       3.346  -6.408  -0.913  0.00  0.00    -0.205 N 
ATOM      2  C   UNL     1       3.230  -5.071  -0.792  0.00  0.00    +0.253 C 
ATOM      3  O   UNL     1       4.064  -4.343  -1.288  0.00  0.00    -0.272 OA
ATOM      4  H   UNL     1       2.680  -6.991  -0.516  0.00  0.00    +0.177 HD
ENDROOT
BRANCH   1   6
ATOM      5  C   UNL     1       4.541  -8.245  -1.728  0.00  0.00    +0.138 C 
ATOM      6  N   UNL     1       4.429  -6.957  -1.612  0.00  0.00    -0.188 NA
BRANCH   5   9
ATOM      7  C   UNL     1       6.873 -10.745  -3.282  0.00  0.00    +0.164 A 
ATOM      8  C   UNL     1       5.806 -10.208  -2.586  0.00  0.00    +0.059 A 
ATOM      9  C   UNL     1       5.681  -8.822  -2.464  0.00  0.00    -0.001 A 
ATOM     10  C   UNL     1       6.642  -7.984  -3.036  0.00  0.00    +0.028 A 
ATOM     11  C   UNL     1       7.708  -8.527  -3.724  0.00  0.00    +0.064 A 
ATOM     12  C   UNL     1       7.828  -9.904  -3.849  0.00  0.00    +0.175 A 
ATOM     13 BR   UNL     1       9.008  -7.392  -4.497  0.00  0.00    -0.046 Br
BRANCH  12  14
ATOM     14  O   UNL     1       8.880 -10.434  -4.529  0.00  0.00    -0.490 OA
ATOM     15  C   UNL     1      10.058 -10.726  -3.775  0.00  0.00    +0.277 C 
ENDBRANCH  12  14
BRANCH   7  16
ATOM     16  O   UNL     1       6.994 -12.093  -3.408  0.00  0.00    -0.489 OA
BRANCH  16  18
ATOM     17  C   UNL     1       6.283 -14.374  -3.046  0.00  0.00    +0.048 C 
ATOM     18  C   UNL     1       5.979 -12.895  -2.801  0.00  0.00    +0.226 C 
ENDBRANCH  16  18
ENDBRANCH   7  16
ENDBRANCH   5   9
ENDBRANCH   1   6
BRANCH   2  19
ATOM     19  C   UNL     1       2.065  -4.481  -0.040  0.00  0.00    +0.161 C 
BRANCH  19  20
ATOM     20  N   UNL     1       2.173  -3.020  -0.041  0.00  0.00    -0.300 N 
ATOM     21  C   UNL     1       1.077  -2.263   0.169  0.00  0.00    +0.245 C 
ATOM     22  O   UNL     1      -0.014  -2.789   0.269  0.00  0.00    -0.270 OA
ATOM     23  H   UNL     1       3.033  -2.597  -0.192  0.00  0.00    +0.150 HD
BRANCH  21  24
ATOM     24  C   UNL     1       1.203  -0.795   0.277  0.00  0.00    +0.037 A 
ATOM     25  C   UNL     1       0.070  -0.008   0.494  0.00  0.00    +0.014 A 
ATOM     26  C   UNL     1       0.194   1.361   0.594  0.00  0.00    +0.021 A 
ATOM     27  C   UNL     1       1.439   1.957   0.479  0.00  0.00    +0.041 A 
ATOM     28  C   UNL     1       2.567   1.182   0.264  0.00  0.00    +0.021 A 
ATOM     29  C   UNL     1       2.456  -0.188   0.163  0.00  0.00    +0.014 A 
ATOM     30 CL   UNL     1       1.587   3.682   0.605  0.00  0.00    -0.084 Cl
ENDBRANCH  21  24
ENDBRANCH  19  20
BRANCH  19  31
ATOM     31  C   UNL     1       2.077  -4.992   1.402  0.00  0.00    +0.034 C 
BRANCH  31  32
ATOM     32  C   UNL     1       3.306  -4.442   2.128  0.00  0.00    -0.015 C 
ATOM     33  C   UNL     1       3.219  -4.793   3.615  0.00  0.00    +0.007 C 
ATOM     34  C   UNL     1       4.571  -5.062   1.532  0.00  0.00    +0.007 C 
ENDBRANCH  31  32
ENDBRANCH  19  31
ENDBRANCH   2  19
TORSDOF 10
