REMARK  Name = ZINC63676475
REMARK  9 active torsions:
REMARK  status: ('A' for Active; 'I' for Inactive)
REMARK    1  A    between atoms: C_1  and  C_2
REMARK    2  A    between atoms: C_5  and  S_8
REMARK    3  A    between atoms: S_8  and  N_11
REMARK    4  A    between atoms: C_16  and  C_18
REMARK    5  A    between atoms: C_18  and  N_19
REMARK    6  A    between atoms: C_20  and  C_22
REMARK    7  A    between atoms: N_24  and  C_25
REMARK    8  A    between atoms: C_25  and  C_26
REMARK    9  A    between atoms: C_26  and  C_27
REMARK                            x       y       z     vdW  Elec       q    Type
REMARK                         _______ _______ _______ _____ _____    ______ ____
ROOT
ATOM      1  N   UNL     1       0.527  -6.101   2.424  0.00  0.00    -0.304 N 
ATOM      2  C   UNL     1      -0.408  -6.188   3.391  0.00  0.00    +0.299 C 
ATOM      3  O   UNL     1      -0.473  -5.335   4.251  0.00  0.00    -0.265 OA
ATOM      4  H   UNL     1       0.579  -6.783   1.736  0.00  0.00    +0.149 HD
ENDROOT
BRANCH   2   5
ATOM      5  C   UNL     1      -1.364  -7.337   3.404  0.00  0.00    +0.299 C 
ATOM      6  O   UNL     1      -1.298  -8.191   2.544  0.00  0.00    -0.265 OA
ATOM      7  N   UNL     1      -2.298  -7.425   4.371  0.00  0.00    -0.307 N 
ATOM      8  H   UNL     1      -2.350  -6.742   5.059  0.00  0.00    +0.149 HD
BRANCH   7   9
ATOM      9  C   UNL     1      -3.235  -8.551   4.385  0.00  0.00    +0.109 C 
BRANCH   9  10
ATOM     10  C   UNL     1      -4.184  -8.411   5.577  0.00  0.00    +0.052 C 
BRANCH  10  11
ATOM     11  C   UNL     1      -5.148  -9.569   5.590  0.00  0.00    -0.040 C 
ATOM     12  C   UNL     1      -5.026 -10.720   6.290  0.00  0.00    -0.001 A 
ATOM     13  C   UNL     1      -3.999 -11.220   7.212  0.00  0.00    +0.010 A 
ATOM     14  C   UNL     1      -4.157 -12.441   7.772  0.00  0.00    +0.001 A 
ATOM     15  C   UNL     1      -5.275 -13.240   7.493  0.00  0.00    +0.002 A 
ATOM     16  C   UNL     1      -6.260 -12.850   6.657  0.00  0.00    +0.026 A 
ATOM     17  C   UNL     1      -6.197 -11.583   6.013  0.00  0.00    +0.043 A 
ATOM     18  N   UNL     1      -7.010 -10.989   5.175  0.00  0.00    -0.380 N 
ATOM     19  C   UNL     1      -6.450  -9.678   4.829  0.00  0.00    +0.144 C 
ATOM     20  H   UNL     1      -7.845 -11.353   4.841  0.00  0.00    +0.160 HD
ENDBRANCH  10  11
ENDBRANCH   9  10
ENDBRANCH   7   9
ENDBRANCH   2   5
BRANCH   1  21
ATOM     21  C   UNL     1       1.464  -4.975   2.410  0.00  0.00    +0.154 C 
BRANCH  21  27
ATOM     22  N   UNL     1       1.687  -4.822  -0.027  0.00  0.00    -0.147 NA
ATOM     23  C   UNL     1       2.360  -5.095  -1.306  0.00  0.00    +0.114 C 
ATOM     24  C   UNL     1       2.898  -6.531  -1.268  0.00  0.00    +0.045 C 
ATOM     25  C   UNL     1       3.726  -6.718   0.007  0.00  0.00    +0.163 C 
ATOM     26  O   UNL     1       2.908  -6.460   1.150  0.00  0.00    -0.358 OA
ATOM     27  C   UNL     1       2.413  -5.114   1.218  0.00  0.00    +0.226 C 
BRANCH  22  28
ATOM     28  S   UNL     1       0.154  -4.196   0.011  0.00  0.00    +0.063 S 
ATOM     29  O   UNL     1      -0.459  -4.692   1.193  0.00  0.00    -0.153 OA
ATOM     30  O   UNL     1      -0.402  -4.405  -1.281  0.00  0.00    -0.153 OA
BRANCH  28  35
ATOM     31  C   UNL     1       0.679   1.773   0.716  0.00  0.00    +0.044 C 
ATOM     32  C   UNL     1       0.548   0.282   0.539  0.00  0.00    -0.050 A 
ATOM     33  C   UNL     1       0.517  -0.264  -0.730  0.00  0.00    +0.005 A 
ATOM     34  C   UNL     1       0.397  -1.631  -0.892  0.00  0.00    +0.029 A 
ATOM     35  C   UNL     1       0.308  -2.453   0.216  0.00  0.00    +0.106 A 
ATOM     36  C   UNL     1       0.341  -1.907   1.486  0.00  0.00    +0.029 A 
ATOM     37  C   UNL     1       0.465  -0.540   1.648  0.00  0.00    +0.005 A 
ENDBRANCH  28  35
ENDBRANCH  22  28
ENDBRANCH  21  27
ENDBRANCH   1  21
TORSDOF 8
