REMARK  Name = ZINC66760680
REMARK  5 active torsions:
REMARK  status: ('A' for Active; 'I' for Inactive)
REMARK    1  A    between atoms: C_1  and  C_2
REMARK    2  A    between atoms: C_3  and  C_17
REMARK    3  A    between atoms: N_6  and  C_7
REMARK    4  A    between atoms: N_19  and  C_20
REMARK    5  A    between atoms: C_25  and  N_27
REMARK                            x       y       z     vdW  Elec       q    Type
REMARK                         _______ _______ _______ _____ _____    ______ ____
ROOT
ATOM      1  C   UNL     1      -0.391   1.470   0.054  0.00  0.00    +0.068 C 
ATOM      2  C   UNL     1      -0.158  -0.018   0.021  0.00  0.00    +0.074 A 
ATOM      3  C   UNL     1      -0.179  -0.821  -1.084  0.00  0.00    +0.170 A 
ATOM      4  N   UNL     1       0.076  -2.083  -0.698  0.00  0.00    -0.124 NA
ATOM      5  N   UNL     1       0.254  -2.117   0.577  0.00  0.00    -0.060 NA
ATOM      6  N   UNL     1       0.118  -0.814   1.077  0.00  0.00    -0.216 N 
ENDROOT
BRANCH   6   7
ATOM      7  C   UNL     1       0.241  -0.416   2.413  0.00  0.00    +0.076 A 
ATOM      8  C   UNL     1       1.022   0.670   2.745  0.00  0.00    +0.028 A 
ATOM      9  C   UNL     1       1.150   1.072   4.071  0.00  0.00    +0.004 A 
ATOM     10  C   UNL     1       0.511   0.408   5.074  0.00  0.00    +0.028 A 
ATOM     11  C   UNL     1      -0.295  -0.705   4.778  0.00  0.00    +0.073 A 
ATOM     12  C   UNL     1      -0.436  -1.118   3.430  0.00  0.00    +0.026 A 
ATOM     13  C   UNL     1      -1.247  -2.228   3.137  0.00  0.00    +0.013 A 
ATOM     14  C   UNL     1      -1.873  -2.861   4.174  0.00  0.00    +0.020 A 
ATOM     15  C   UNL     1      -1.697  -2.401   5.477  0.00  0.00    +0.111 A 
ATOM     16  N   UNL     1      -0.930  -1.372   5.747  0.00  0.00    -0.255 NA
ENDBRANCH   6   7
BRANCH   3  17
ATOM     17  C   UNL     1      -0.438  -0.378  -2.467  0.00  0.00    +0.266 C 
ATOM     18  O   UNL     1      -0.658   0.795  -2.699  0.00  0.00    -0.268 OA
ATOM     19  N   UNL     1      -0.430  -1.274  -3.474  0.00  0.00    -0.305 N 
ATOM     20  H   UNL     1      -0.254  -2.210  -3.289  0.00  0.00    +0.149 HD
BRANCH  19  21
ATOM     21  C   UNL     1      -0.687  -0.834  -4.848  0.00  0.00    +0.096 C 
ATOM     22  C   UNL     1      -2.204  -0.835  -5.127  0.00  0.00    +0.024 C 
ATOM     23  C   UNL     1      -2.320  -1.310  -6.597  0.00  0.00    +0.004 C 
ATOM     24  C   UNL     1      -1.212  -2.389  -6.695  0.00  0.00    +0.027 C 
ATOM     25  C   UNL     1      -0.055  -1.822  -5.844  0.00  0.00    +0.108 C 
BRANCH  25  26
ATOM     26  N   UNL     1       0.904  -1.123  -6.703  0.00  0.00    -0.334 N 
ATOM     27  C   UNL     1       0.633  -0.073  -7.538  0.00  0.00    +0.105 A 
ATOM     28  C   UNL     1       1.793   0.261  -8.134  0.00  0.00    +0.101 A 
ATOM     29  N   UNL     1       2.748  -0.563  -7.675  0.00  0.00    -0.352 N 
ATOM     30  C   UNL     1       2.223  -1.391  -6.813  0.00  0.00    +0.174 A 
ATOM     31  H   UNL     1       3.681  -0.543  -7.939  0.00  0.00    +0.166 HD
ENDBRANCH  25  26
ENDBRANCH  19  21
ENDBRANCH   3  17
TORSDOF 4
