REMARK  Name = ZINC39836345
REMARK  8 active torsions:
REMARK  status: ('A' for Active; 'I' for Inactive)
REMARK    1  A    between atoms: C_1  and  C_2
REMARK    2  A    between atoms: C_9  and  N_22
REMARK    3  A    between atoms: C_10  and  C_11
REMARK    4  A    between atoms: N_13  and  C_14
REMARK    5  A    between atoms: C_23  and  C_25
REMARK    6  A    between atoms: C_25  and  C_27
REMARK    7  A    between atoms: C_25  and  O_28
REMARK    8  A    between atoms: O_28  and  C_29
REMARK                            x       y       z     vdW  Elec       q    Type
REMARK                         _______ _______ _______ _____ _____    ______ ____
ROOT
ATOM      1  C   UNL     1       1.118   1.161  -1.087  0.00  0.00    +0.008 C 
ATOM      2  C   UNL     1       0.940  -0.348  -0.905  0.00  0.00    -0.009 C 
ATOM      3  C   UNL     1      -0.552  -0.683  -0.828  0.00  0.00    +0.008 C 
ATOM      4  C   UNL     1      -0.750  -2.199  -0.894  0.00  0.00    +0.037 C 
ATOM      5  C   UNL     1       0.137  -2.852   0.156  0.00  0.00    -0.023 A 
ATOM      6  C   UNL     1       1.178  -2.190   0.706  0.00  0.00    -0.004 A 
ATOM      7  S   UNL     1       1.888  -3.340   1.847  0.00  0.00    -0.077 S 
ATOM      8  C   UNL     1       0.859  -4.647   1.615  0.00  0.00    +0.085 A 
ATOM      9  C   UNL     1      -0.038  -4.205   0.656  0.00  0.00    +0.069 A 
ATOM     10  C   UNL     1       1.619  -0.792   0.399  0.00  0.00    +0.046 C 
ENDROOT
BRANCH   9  11
ATOM     11  C   UNL     1      -1.119  -5.066   0.166  0.00  0.00    +0.247 C 
ATOM     12  O   UNL     1      -0.935  -5.786  -0.797  0.00  0.00    -0.270 OA
ATOM     13  N   UNL     1      -2.318  -5.059   0.783  0.00  0.00    -0.307 N 
ATOM     14  H   UNL     1      -2.465  -4.485   1.551  0.00  0.00    +0.149 HD
BRANCH  13  15
ATOM     15  C   UNL     1      -3.398  -5.920   0.294  0.00  0.00    +0.096 C 
ATOM     16  C   UNL     1      -3.260  -7.318   0.919  0.00  0.00    +0.046 C 
ATOM     17  C   UNL     1      -4.572  -8.105   0.640  0.00  0.00    +0.168 C 
ATOM     18  S   UNL     1      -5.824  -6.784   0.922  0.00  0.00    -0.029 S 
ATOM     19  O   UNL     1      -6.250  -6.832   2.277  0.00  0.00    -0.174 OA
ATOM     20  O   UNL     1      -6.792  -6.834  -0.117  0.00  0.00    -0.174 OA
ATOM     21  C   UNL     1      -4.763  -5.302   0.683  0.00  0.00    +0.188 C 
ENDBRANCH  13  15
ENDBRANCH   9  11
BRANCH   8  22
ATOM     22  N   UNL     1       0.899  -5.885   2.239  0.00  0.00    -0.276 N 
ATOM     23  C   UNL     1       1.850  -6.146   3.157  0.00  0.00    +0.258 C 
ATOM     24  O   UNL     1       2.672  -5.299   3.437  0.00  0.00    -0.271 OA
ATOM     25  H   UNL     1       0.242  -6.562   2.015  0.00  0.00    +0.155 HD
BRANCH  23  26
ATOM     26  C   UNL     1       1.894  -7.491   3.835  0.00  0.00    +0.256 C 
ATOM     27  C   UNL     1       2.207  -8.574   2.800  0.00  0.00    +0.062 C 
BRANCH  26  28
ATOM     28  O   UNL     1       2.909  -7.485   4.841  0.00  0.00    -0.478 OA
BRANCH  28  29
ATOM     29  C   UNL     1       2.764  -8.363   5.868  0.00  0.00    +0.140 A 
ATOM     30  C   UNL     1       1.731  -9.289   5.851  0.00  0.00    +0.047 A 
ATOM     31  C   UNL     1       1.587 -10.180   6.897  0.00  0.00    +0.004 A 
ATOM     32  C   UNL     1       2.470 -10.151   7.960  0.00  0.00    +0.002 A 
ATOM     33  C   UNL     1       3.501  -9.230   7.980  0.00  0.00    +0.023 A 
ATOM     34  C   UNL     1       3.654  -8.339   6.934  0.00  0.00    +0.083 A 
ATOM     35 CL   UNL     1       4.952  -7.187   6.956  0.00  0.00    -0.080 Cl
ENDBRANCH  28  29
ENDBRANCH  26  28
ENDBRANCH  23  26
ENDBRANCH   8  22
TORSDOF 6
