REMARK  Name = ZINC15821837
REMARK  3 active torsions:
REMARK  status: ('A' for Active; 'I' for Inactive)
REMARK    1  A    between atoms: C_4  and  C_7
REMARK    2  A    between atoms: C_7  and  C_9
REMARK    3  A    between atoms: C_18  and  C_21
REMARK                            x       y       z     vdW  Elec       q    Type
REMARK                         _______ _______ _______ _____ _____    ______ ____
ROOT
ATOM      1  C   UNL     1      -7.166   2.516  -1.603  0.00  0.00    +0.024 A 
ATOM      2  C   UNL     1      -6.889   2.499  -0.231  0.00  0.00    +0.013 A 
ATOM      3  C   UNL     1      -5.795   3.172   0.266  0.00  0.00    +0.025 A 
ATOM      4  C   UNL     1      -4.964   3.873  -0.602  0.00  0.00    +0.049 A 
ATOM      5  C   UNL     1      -5.259   3.924  -1.960  0.00  0.00    +0.053 A 
ATOM      6  C   UNL     1      -6.338   3.237  -2.473  0.00  0.00    +0.036 A 
ATOM      7  N   UNL     1      -4.441   4.722  -2.756  0.00  0.00    -0.316 N 
ATOM      8  C   UNL     1      -3.118   4.503  -2.967  0.00  0.00    +0.017 C 
ATOM      9  C   UNL     1      -2.217   4.231  -2.011  0.00  0.00    +0.036 C 
ATOM     10  C   UNL     1      -2.506   4.085  -0.535  0.00  0.00    +0.138 C 
ATOM     11  N   UNL     1      -3.829   4.520  -0.142  0.00  0.00    -0.331 N 
ATOM     12  C   UNL     1      -0.853   4.058  -2.344  0.00  0.00    +0.163 C 
ATOM     13  O   UNL     1      -0.061   3.801  -1.458  0.00  0.00    -0.292 OA
ATOM     14  C   UNL     1      -0.347   4.178  -3.750  0.00  0.00    +0.080 C 
ATOM     15  C   UNL     1      -1.271   5.126  -4.524  0.00  0.00    +0.014 C 
ATOM     16  C   UNL     1      -2.691   4.573  -4.425  0.00  0.00    +0.051 C 
ATOM     17  H   UNL     1      -4.846   5.489  -3.191  0.00  0.00    +0.152 HD
ATOM     18  H   UNL     1      -3.923   5.280   0.454  0.00  0.00    +0.147 HD
ENDROOT
BRANCH  10  19
ATOM     19  C   UNL     1      -2.349   2.634  -0.158  0.00  0.00    +0.002 A 
ATOM     20  C   UNL     1      -2.398   1.583  -0.991  0.00  0.00    +0.089 A 
ATOM     21  N   UNL     1      -2.212   0.422  -0.289  0.00  0.00    -0.360 N 
ATOM     22  H   UNL     1      -2.207  -0.467  -0.676  0.00  0.00    +0.165 HD
ATOM     23  C   UNL     1      -2.028   0.707   1.045  0.00  0.00    +0.047 A 
ATOM     24  C   UNL     1      -2.111   2.104   1.187  0.00  0.00    +0.005 A 
ATOM     25  C   UNL     1      -1.964   2.686   2.447  0.00  0.00    +0.010 A 
ATOM     26  C   UNL     1      -1.746   1.894   3.539  0.00  0.00    +0.001 A 
ATOM     27  C   UNL     1      -1.669   0.515   3.405  0.00  0.00    +0.002 A 
ATOM     28  C   UNL     1      -1.810  -0.081   2.171  0.00  0.00    +0.026 A 
ENDBRANCH  10  19
BRANCH   1  29
ATOM     29  C   UNL     1      -8.326   1.776  -2.131  0.00  0.00    +0.193 C 
ATOM     30  O   UNL     1      -8.639   0.707  -1.644  0.00  0.00    -0.287 OA
BRANCH  29  34
ATOM     31  C   UNL     1     -10.578   3.381  -5.355  0.00  0.00    +0.000 A 
ATOM     32  C   UNL     1     -10.834   2.097  -4.908  0.00  0.00    +0.001 A 
ATOM     33  C   UNL     1     -10.107   1.569  -3.861  0.00  0.00    +0.012 A 
ATOM     34  C   UNL     1      -9.110   2.335  -3.253  0.00  0.00    +0.022 A 
ATOM     35  C   UNL     1      -8.860   3.632  -3.705  0.00  0.00    +0.012 A 
ATOM     36  C   UNL     1      -9.591   4.145  -4.757  0.00  0.00    +0.001 A 
ENDBRANCH  29  34
ENDBRANCH   1  29
TORSDOF 3
