REMARK  Name = ZINC66908413
REMARK  9 active torsions:
REMARK  status: ('A' for Active; 'I' for Inactive)
REMARK    1  A    between atoms: C_1  and  C_2
REMARK    2  A    between atoms: C_2  and  C_3
REMARK    3  A    between atoms: C_2  and  C_4
REMARK    4  A    between atoms: N_6  and  C_7
REMARK    5  A    between atoms: C_11  and  C_13
REMARK    6  A    between atoms: C_13  and  N_14
REMARK    7  A    between atoms: N_17  and  C_18
REMARK    8  A    between atoms: C_18  and  C_19
REMARK    9  A    between atoms: C_19  and  O_29
REMARK                            x       y       z     vdW  Elec       q    Type
REMARK                         _______ _______ _______ _____ _____    ______ ____
ROOT
ATOM      1  N   UNL     1       1.447   0.865   7.750  0.00  0.00    -0.295 N 
ATOM      2  C   UNL     1       1.160   1.347   8.975  0.00  0.00    +0.300 C 
ATOM      3  O   UNL     1       0.452   0.707   9.729  0.00  0.00    -0.253 OA
ATOM      4  N   UNL     1       1.657   2.538   9.364  0.00  0.00    -0.296 N 
ATOM      5  H   UNL     1       2.012   1.375   7.148  0.00  0.00    +0.151 HD
ATOM      6  H   UNL     1       2.221   3.048   8.763  0.00  0.00    +0.150 HD
ENDROOT
BRANCH   1   7
ATOM      7  C   UNL     1       0.907  -0.430   7.326  0.00  0.00    +0.141 C 
BRANCH   7  12
ATOM      8  C   UNL     1       1.052  -0.610   3.554  0.00  0.00    +0.034 A 
ATOM      9  C   UNL     1       2.240  -1.302   3.358  0.00  0.00    +0.023 A 
ATOM     10  C   UNL     1       2.989  -1.707   4.445  0.00  0.00    +0.002 A 
ATOM     11  C   UNL     1       2.557  -1.424   5.728  0.00  0.00    +0.005 A 
ATOM     12  C   UNL     1       1.375  -0.735   5.927  0.00  0.00    -0.029 A 
ATOM     13  C   UNL     1       0.624  -0.322   4.843  0.00  0.00    +0.028 A 
BRANCH   8  16
ATOM     14  C   UNL     1      -0.378   0.971   2.498  0.00  0.00    +0.220 C 
ATOM     15  O   UNL     1      -0.389   1.627   3.518  0.00  0.00    -0.275 OA
ATOM     16  N   UNL     1       0.291  -0.198   2.454  0.00  0.00    -0.285 N 
ATOM     17  H   UNL     1       0.245  -0.754   1.661  0.00  0.00    +0.155 HD
BRANCH  14  19
ATOM     18  C   UNL     1      -2.179   0.443   0.877  0.00  0.00    +0.017 C 
ATOM     19  C   UNL     1      -1.113   1.465   1.278  0.00  0.00    +0.069 C 
ATOM     20  C   UNL     1      -1.782   2.804   1.593  0.00  0.00    +0.017 C 
ENDBRANCH  14  19
ENDBRANCH   8  16
ENDBRANCH   7  12
ENDBRANCH   1   7
BRANCH   4  21
ATOM     21  C   UNL     1       1.344   3.061  10.696  0.00  0.00    +0.145 C 
BRANCH  21  22
ATOM     22  C   UNL     1       1.923   4.470  10.839  0.00  0.00    +0.107 C 
ATOM     23  C   UNL     1       3.434   4.418  10.624  0.00  0.00    +0.041 C 
ATOM     24  C   UNL     1       4.021   5.788  10.984  0.00  0.00    +0.008 C 
ATOM     25  C   UNL     1       3.919   5.974  12.496  0.00  0.00    +0.035 C 
ATOM     26  C   UNL     1       2.517   5.697  12.970  0.00  0.00    -0.041 A 
ATOM     27  C   UNL     1       1.601   5.003  12.211  0.00  0.00    -0.011 A 
ATOM     28  C   UNL     1       0.325   4.776  12.710  0.00  0.00    +0.007 A 
ATOM     29  C   UNL     1      -0.033   5.243  13.958  0.00  0.00    +0.000 A 
ATOM     30  C   UNL     1       0.884   5.942  14.718  0.00  0.00    +0.000 A 
ATOM     31  C   UNL     1       2.153   6.167  14.225  0.00  0.00    +0.004 A 
BRANCH  22  32
ATOM     32  O   UNL     1       1.337   5.323   9.853  0.00  0.00    -0.382 OA
ATOM     33  H   UNL     1       0.375   5.399   9.921  0.00  0.00    +0.211 HD
ENDBRANCH  22  32
ENDBRANCH  21  22
ENDBRANCH   4  21
TORSDOF 7
