REMARK  Name = ZINC61653297
REMARK  8 active torsions:
REMARK  status: ('A' for Active; 'I' for Inactive)
REMARK    1  A    between atoms: C_1  and  N_2
REMARK    2  A    between atoms: N_2  and  C_3
REMARK    3  A    between atoms: N_2  and  C_4
REMARK    4  A    between atoms: C_4  and  C_5
REMARK    5  A    between atoms: C_5  and  N_6
REMARK    6  A    between atoms: N_9  and  S_12
REMARK    7  A    between atoms: S_12  and  C_15
REMARK    8  A    between atoms: C_15  and  C_16
REMARK                            x       y       z     vdW  Elec       q    Type
REMARK                         _______ _______ _______ _____ _____    ______ ____
ROOT
ATOM      1  N   UNL     1      -2.737  -2.545  -0.111  0.00  0.00    -0.302 NA
ATOM      2  C   UNL     1      -3.474  -2.091  -1.298  0.00  0.00    +0.101 C 
ATOM      3  C   UNL     1      -4.948  -2.487  -1.161  0.00  0.00    +0.124 C 
ATOM      4  N   UNL     1      -5.021  -3.933  -0.899  0.00  0.00    -0.179 NA
ATOM      5  C   UNL     1      -4.201  -4.484   0.190  0.00  0.00    +0.124 C 
ATOM      6  C   UNL     1      -2.756  -4.010   0.001  0.00  0.00    +0.101 C 
ENDROOT
BRANCH   4   7
ATOM      7  S   UNL     1      -6.001  -4.913  -1.806  0.00  0.00    +0.030 S 
ATOM      8  O   UNL     1      -6.302  -6.011  -0.956  0.00  0.00    -0.158 OA
ATOM      9  O   UNL     1      -7.033  -4.058  -2.277  0.00  0.00    -0.158 OA
BRANCH   7  10
ATOM     10  C   UNL     1      -4.962  -5.460  -3.188  0.00  0.00    +0.169 C 
BRANCH  10  11
ATOM     11  C   UNL     1      -5.773  -6.381  -4.102  0.00  0.00    -0.049 C 
ATOM     12  C   UNL     1      -4.863  -6.942  -5.197  0.00  0.00    -0.014 C 
ATOM     13  C   UNL     1      -5.678  -7.864  -6.108  0.00  0.00    -0.003 C 
ATOM     14  C   UNL     1      -6.862  -7.080  -6.683  0.00  0.00    -0.019 C 
ATOM     15  C   UNL     1      -7.698  -6.514  -5.533  0.00  0.00    -0.082 C 
ATOM     16  N   UNL     1      -6.869  -5.621  -4.715  0.00  0.00    +0.382 N 
ATOM     17  H   UNL     1      -7.436  -5.208  -3.990  0.00  0.00    -0.085 HD
ATOM     18  H   UNL     1      -6.486  -4.891  -5.297  0.00  0.00    -0.085 HD
ENDBRANCH  10  11
ENDBRANCH   7  10
ENDBRANCH   4   7
BRANCH   1  19
ATOM     19  C   UNL     1      -1.358  -2.037  -0.122  0.00  0.00    +0.066 C 
BRANCH  19  20
ATOM     20  C   UNL     1      -1.376  -0.512   0.012  0.00  0.00    -0.064 C 
BRANCH  20  22
ATOM     21  C   UNL     1      -0.018   1.465   0.010  0.00  0.00    -0.097 C 
ATOM     22  N   UNL     1       0.002  -0.004   0.002  0.00  0.00    +0.377 N 
ATOM     23  C   UNL     1       0.713  -0.491   1.192  0.00  0.00    -0.097 C 
ATOM     24  H   UNL     1       0.474  -0.330  -0.828  0.00  0.00    -0.083 HD
ENDBRANCH  20  22
ENDBRANCH  19  20
ENDBRANCH   1  19
TORSDOF 6
