REMARK  Name = ZINC58970763
REMARK  10 active torsions:
REMARK  status: ('A' for Active; 'I' for Inactive)
REMARK    1  A    between atoms: C_1  and  C_2
REMARK    2  A    between atoms: C_9  and  N_13
REMARK    3  A    between atoms: C_10  and  C_11
REMARK    4  A    between atoms: C_14  and  C_16
REMARK    5  A    between atoms: C_16  and  C_17
REMARK    6  A    between atoms: C_17  and  C_18
REMARK    7  A    between atoms: C_18  and  S_19
REMARK    8  A    between atoms: S_19  and  C_20
REMARK    9  A    between atoms: C_22  and  C_30
REMARK   10  A    between atoms: C_24  and  C_26
REMARK                            x       y       z     vdW  Elec       q    Type
REMARK                         _______ _______ _______ _____ _____    ______ ____
ROOT
ATOM      1  C   UNL     1       3.066  -7.508   4.815  0.00  0.00    +0.020 C 
ENDROOT
BRANCH   1   2
ATOM      2  C   UNL     1       1.900  -7.501   3.824  0.00  0.00    +0.097 C 
BRANCH   2   4
ATOM      3  N   UNL     1       0.696  -5.849   2.431  0.00  0.00    -0.279 N 
ATOM      4  C   UNL     1       1.678  -6.098   3.319  0.00  0.00    +0.218 C 
ATOM      5  O   UNL     1       2.384  -5.194   3.713  0.00  0.00    -0.275 OA
ATOM      6  H   UNL     1       0.132  -6.573   2.116  0.00  0.00    +0.155 HD
BRANCH   3  14
ATOM      7  C   UNL     1      -0.019   1.526   0.010  0.00  0.00    +0.008 C 
ATOM      8  C   UNL     1       0.002  -0.004   0.002  0.00  0.00    -0.009 C 
ATOM      9  C   UNL     1      -1.434  -0.537   0.019  0.00  0.00    +0.008 C 
ATOM     10  C   UNL     1      -1.433  -2.045  -0.237  0.00  0.00    +0.037 C 
ATOM     11  C   UNL     1      -0.464  -2.704   0.734  0.00  0.00    -0.018 A 
ATOM     12  C   UNL     1       0.485  -1.986   1.374  0.00  0.00    -0.004 A 
ATOM     13  S   UNL     1       1.344  -3.168   2.371  0.00  0.00    -0.077 S 
ATOM     14  C   UNL     1       0.493  -4.558   1.966  0.00  0.00    +0.090 A 
ATOM     15  C   UNL     1      -0.459  -4.119   1.059  0.00  0.00    +0.084 A 
ATOM     16  C   UNL     1       0.739  -0.515   1.248  0.00  0.00    +0.046 C 
BRANCH  15  17
ATOM     17  C   UNL     1      -1.399  -5.024   0.469  0.00  0.00    +0.102 C 
ATOM     18  N   UNL     1      -2.144  -5.741   0.000  0.00  0.00    -0.191 NA
ENDBRANCH  15  17
ENDBRANCH   3  14
ENDBRANCH   2   4
ENDBRANCH   1   2
BRANCH   1  19
ATOM     19  C   UNL     1       3.291  -8.932   5.327  0.00  0.00    +0.078 C 
BRANCH  19  20
ATOM     20  S   UNL     1       4.673  -8.941   6.501  0.00  0.00    -0.086 S 
BRANCH  20  21
ATOM     21  C   UNL     1       4.804 -10.628   6.994  0.00  0.00    +0.189 A 
ATOM     22  N   UNL     1       5.735 -10.975   7.869  0.00  0.00    -0.222 NA
ATOM     23  C   UNL     1       5.859 -12.240   8.261  0.00  0.00    +0.076 A 
ATOM     24  C   UNL     1       4.991 -13.201   7.735  0.00  0.00    +0.060 A 
ATOM     25  C   UNL     1       4.033 -12.794   6.823  0.00  0.00    +0.148 A 
ATOM     26  N   UNL     1       3.963 -11.517   6.483  0.00  0.00    -0.218 NA
BRANCH  23  27
ATOM     27  C   UNL     1       6.904 -12.626   9.241  0.00  0.00    +0.000 A 
ATOM     28  C   UNL     1       7.030 -13.955   9.641  0.00  0.00    +0.010 A 
ATOM     29  C   UNL     1       8.004 -14.309  10.553  0.00  0.00    +0.001 A 
ATOM     30  C   UNL     1       8.854 -13.347  11.069  0.00  0.00    +0.000 A 
ATOM     31  C   UNL     1       8.732 -12.026  10.675  0.00  0.00    +0.001 A 
ATOM     32  C   UNL     1       7.766 -11.662   9.760  0.00  0.00    +0.010 A 
ENDBRANCH  23  27
BRANCH  25  33
ATOM     33  C   UNL     1       3.074 -13.794   6.229  0.00  0.00    +0.434 C 
ATOM     34  F   UNL     1       1.933 -13.880   7.033  0.00  0.00    -0.164 F 
ATOM     35  F   UNL     1       2.709 -13.382   4.943  0.00  0.00    -0.164 F 
ATOM     36  F   UNL     1       3.691 -15.047   6.159  0.00  0.00    -0.164 F 
ENDBRANCH  25  33
ENDBRANCH  20  21
ENDBRANCH  19  20
ENDBRANCH   1  19
TORSDOF 9
