REMARK  Name = ZINC64127171
REMARK  6 active torsions:
REMARK  status: ('A' for Active; 'I' for Inactive)
REMARK    1  A    between atoms: C_2  and  C_25
REMARK    2  A    between atoms: N_5  and  C_11
REMARK    3  A    between atoms: C_7  and  C_8
REMARK    4  A    between atoms: C_11  and  N_12
REMARK    5  A    between atoms: N_15  and  C_18
REMARK    6  A    between atoms: C_18  and  C_19
REMARK                            x       y       z     vdW  Elec       q    Type
REMARK                         _______ _______ _______ _____ _____    ______ ____
ROOT
ATOM      1  C   UNL     1       3.914  -1.008  -0.240  0.00  0.00    +0.234 C 
ENDROOT
BRANCH   1   6
ATOM      2  C   UNL     1       0.606   1.528  -0.438  0.00  0.00    +0.043 A 
ATOM      3  C   UNL     1       1.853   2.087  -0.440  0.00  0.00    +0.122 A 
ATOM      4  C   UNL     1       2.964   1.219  -0.372  0.00  0.00    +0.280 A 
ATOM      5  O   UNL     1       4.099   1.669  -0.370  0.00  0.00    -0.266 OA
ATOM      6  N   UNL     1       2.759  -0.110  -0.310  0.00  0.00    -0.214 N 
ATOM      7  N   UNL     1       1.577  -0.610  -0.311  0.00  0.00    -0.172 NA
ATOM      8  C   UNL     1       0.504   0.129  -0.370  0.00  0.00    +0.066 A 
BRANCH   3   9
ATOM      9  C   UNL     1       2.035   3.582  -0.511  0.00  0.00    +0.423 C 
ATOM     10  F   UNL     1       2.178   4.096   0.782  0.00  0.00    -0.166 F 
ATOM     11  F   UNL     1       3.180   3.876  -1.259  0.00  0.00    -0.166 F 
ATOM     12  F   UNL     1       0.918   4.159  -1.123  0.00  0.00    -0.166 F 
ENDBRANCH   3   9
BRANCH   8  13
ATOM     13  C   UNL     1      -0.855  -0.522  -0.366  0.00  0.00    +0.040 C 
ATOM     14  C   UNL     1      -1.257  -1.310   0.882  0.00  0.00    +0.010 C 
ATOM     15  C   UNL     1      -0.906  -2.051  -0.409  0.00  0.00    +0.010 C 
ENDBRANCH   8  13
ENDBRANCH   1   6
BRANCH   1  16
ATOM     16  N   UNL     1       4.051  -1.524   1.129  0.00  0.00    -0.287 NA
ATOM     17  C   UNL     1       3.136  -2.650   1.361  0.00  0.00    +0.067 C 
ATOM     18  C   UNL     1       3.267  -3.119   2.812  0.00  0.00    -0.063 C 
ATOM     19  N   UNL     1       4.653  -3.530   3.071  0.00  0.00    +0.382 N 
ATOM     20  C   UNL     1       5.552  -2.389   2.858  0.00  0.00    -0.063 C 
ATOM     21  C   UNL     1       5.441  -1.914   1.408  0.00  0.00    +0.067 C 
ATOM     22  H   UNL     1       4.905  -4.278   2.442  0.00  0.00    -0.082 HD
BRANCH  19  23
ATOM     23  C   UNL     1       4.774  -3.997   4.459  0.00  0.00    -0.075 C 
BRANCH  23  24
ATOM     24  C   UNL     1       3.951  -5.274   4.641  0.00  0.00    -0.028 C 
ATOM     25  C   UNL     1       4.554  -6.394   3.791  0.00  0.00    +0.002 C 
ATOM     26  C   UNL     1       3.732  -7.671   3.974  0.00  0.00    +0.000 C 
ATOM     27  C   UNL     1       3.749  -8.083   5.447  0.00  0.00    +0.000 C 
ATOM     28  C   UNL     1       3.146  -6.962   6.297  0.00  0.00    +0.000 C 
ATOM     29  C   UNL     1       3.969  -5.685   6.114  0.00  0.00    +0.002 C 
ENDBRANCH  23  24
ENDBRANCH  19  23
ENDBRANCH   1  16
TORSDOF 6
