REMARK  Name = ZINC05828538
REMARK  9 active torsions:
REMARK  status: ('A' for Active; 'I' for Inactive)
REMARK    1  A    between atoms: C_1  and  C_2
REMARK    2  A    between atoms: C_2  and  O_3
REMARK    3  A    between atoms: O_3  and  C_4
REMARK    4  A    between atoms: C_4  and  C_6
REMARK    5  A    between atoms: C_6  and  C_22
REMARK    6  A    between atoms: C_9  and  C_21
REMARK    7  A    between atoms: C_22  and  O_24
REMARK    8  A    between atoms: O_24  and  C_25
REMARK    9  A    between atoms: C_25  and  C_26
REMARK                            x       y       z     vdW  Elec       q    Type
REMARK                         _______ _______ _______ _____ _____    ______ ____
ROOT
ATOM      1  C   UNL     1       1.776  -1.202  -1.277  0.00  0.00    +0.185 C 
ATOM      2  C   UNL     1       3.292  -1.398  -1.358  0.00  0.00    +0.058 C 
ATOM      3  C   UNL     1       3.822  -1.891  -0.044  0.00  0.00    -0.026 C 
ATOM      4  C   UNL     1       3.181  -1.812   1.077  0.00  0.00    -0.075 C 
ATOM      5  C   UNL     1       1.806  -1.225   1.219  0.00  0.00    +0.052 C 
ATOM      6  C   UNL     1       1.455  -0.402  -0.015  0.00  0.00    +0.104 C 
ATOM      7  C   UNL     1       0.002  -0.004   0.002  0.00  0.00    -0.009 A 
ATOM      8  C   UNL     1      -1.172  -0.724   0.010  0.00  0.00    +0.006 A 
ATOM      9  C   UNL     1      -2.388  -0.063   0.024  0.00  0.00    +0.000 A 
ATOM     10  C   UNL     1      -2.419   1.320   0.031  0.00  0.00    +0.002 A 
ATOM     11  C   UNL     1      -1.245   2.044   0.020  0.00  0.00    +0.023 A 
ATOM     12  C   UNL     1      -0.017   1.386   0.010  0.00  0.00    +0.038 A 
ATOM     13  N   UNL     1       1.286   1.887  -0.000  0.00  0.00    -0.284 N 
ATOM     14  C   UNL     1       2.207   0.906  -0.015  0.00  0.00    +0.230 C 
ATOM     15  O   UNL     1       3.412   1.046  -0.026  0.00  0.00    -0.274 OA
ATOM     16  C   UNL     1       3.855  -2.341   2.317  0.00  0.00    +0.039 C 
ATOM     17  H   UNL     1       1.503   2.832   0.003  0.00  0.00    +0.155 HD
ENDROOT
BRANCH   1  18
ATOM     18  C   UNL     1       1.095  -2.545  -1.212  0.00  0.00    +0.326 C 
ATOM     19  O   UNL     1       0.420  -2.834  -0.253  0.00  0.00    -0.250 OA
BRANCH  18  20
ATOM     20  O   UNL     1       1.238  -3.420  -2.220  0.00  0.00    -0.464 OA
BRANCH  20  22
ATOM     21  C   UNL     1       0.832  -5.551  -3.326  0.00  0.00    +0.048 C 
ATOM     22  C   UNL     1       0.554  -4.693  -2.090  0.00  0.00    +0.229 C 
ENDBRANCH  20  22
ENDBRANCH  18  20
ENDBRANCH   1  18
BRANCH   1  23
ATOM     23  C   UNL     1       1.294  -0.449  -2.490  0.00  0.00    +0.326 C 
ATOM     24  O   UNL     1       0.748   0.621  -2.359  0.00  0.00    -0.250 OA
BRANCH  23  25
ATOM     25  O   UNL     1       1.471  -0.966  -3.716  0.00  0.00    -0.464 OA
BRANCH  25  26
ATOM     26  C   UNL     1       0.982  -0.185  -4.838  0.00  0.00    +0.229 C 
ATOM     27  C   UNL     1       1.271  -0.930  -6.143  0.00  0.00    +0.048 C 
ENDBRANCH  25  26
ENDBRANCH  23  25
ENDBRANCH   1  23
TORSDOF 6
