REMARK  Name = ZINC04110572
REMARK  9 active torsions:
REMARK  status: ('A' for Active; 'I' for Inactive)
REMARK    1  A    between atoms: C_1  and  C_2
REMARK    2  A    between atoms: C_2  and  O_3
REMARK    3  A    between atoms: O_3  and  C_4
REMARK    4  A    between atoms: C_6  and  C_12
REMARK    5  A    between atoms: C_9  and  O_10
REMARK    6  A    between atoms: C_22  and  C_28
REMARK    7  A    between atoms: C_24  and  C_27
REMARK    8  A    between atoms: C_28  and  O_30
REMARK    9  A    between atoms: O_30  and  C_31
REMARK                            x       y       z     vdW  Elec       q    Type
REMARK                         _______ _______ _______ _____ _____    ______ ____
ROOT
ATOM      1  C   UNL     1       0.655  -4.954  -0.020  0.00  0.00    +0.063 C 
ATOM      2  C   UNL     1       0.638  -5.843   1.224  0.00  0.00    +0.109 C 
ATOM      3  C   UNL     1      -0.453  -6.872   1.080  0.00  0.00    +0.218 C 
ATOM      4  O   UNL     1      -1.059  -7.253   2.059  0.00  0.00    -0.275 OA
ATOM      5  N   UNL     1      -0.757  -7.369  -0.132  0.00  0.00    -0.289 N 
ATOM      6  C   UNL     1      -0.070  -6.976  -1.252  0.00  0.00    +0.018 C 
ATOM      7  C   UNL     1       0.627  -5.820  -1.257  0.00  0.00    +0.021 C 
ATOM      8  C   UNL     1       1.332  -5.394  -2.395  0.00  0.00    +0.175 C 
ATOM      9  O   UNL     1       1.955  -4.352  -2.358  0.00  0.00    -0.291 OA
ATOM     10  C   UNL     1       1.327  -6.210  -3.660  0.00  0.00    +0.171 C 
ATOM     11  C   UNL     1       0.019  -7.005  -3.735  0.00  0.00    +0.013 C 
ATOM     12  C   UNL     1      -0.104  -7.862  -2.472  0.00  0.00    +0.055 C 
ATOM     13  C   UNL     1      -1.164  -6.040  -3.821  0.00  0.00    +0.009 C 
ATOM     14  H   UNL     1      -1.474  -8.017  -0.216  0.00  0.00    +0.155 HD
ENDROOT
BRANCH   1  17
ATOM     15  C   UNL     1      -1.498  -1.849   0.006  0.00  0.00    +0.163 A 
ATOM     16  C   UNL     1      -0.389  -2.680  -0.003  0.00  0.00    +0.053 A 
ATOM     17  C   UNL     1      -0.553  -4.052  -0.009  0.00  0.00    -0.035 A 
ATOM     18  C   UNL     1      -1.822  -4.600  -0.006  0.00  0.00    +0.023 A 
ATOM     19  C   UNL     1      -2.934  -3.777   0.003  0.00  0.00    +0.063 A 
ATOM     20  C   UNL     1      -2.776  -2.400   0.016  0.00  0.00    +0.173 A 
ATOM     21 BR   UNL     1      -4.668  -4.531   0.006  0.00  0.00    -0.046 Br
BRANCH  20  22
ATOM     22  O   UNL     1      -3.868  -1.589   0.030  0.00  0.00    -0.503 OA
ATOM     23  H   UNL     1      -4.192  -1.350  -0.849  0.00  0.00    +0.292 HD
ENDBRANCH  20  22
BRANCH  15  24
ATOM     24  O   UNL     1      -1.339  -0.499   0.012  0.00  0.00    -0.489 OA
BRANCH  24  26
ATOM     25  C   UNL     1      -0.019   1.526   0.010  0.00  0.00    +0.048 C 
ATOM     26  C   UNL     1       0.002  -0.004   0.002  0.00  0.00    +0.226 C 
ENDBRANCH  24  26
ENDBRANCH  15  24
ENDBRANCH   1  17
BRANCH  10  27
ATOM     27  C   UNL     1       1.432  -5.294  -4.852  0.00  0.00    +0.318 C 
ATOM     28  O   UNL     1       0.555  -5.282  -5.684  0.00  0.00    -0.250 OA
BRANCH  27  29
ATOM     29  O   UNL     1       2.498  -4.490  -4.989  0.00  0.00    -0.467 OA
ATOM     30  C   UNL     1       2.531  -3.648  -6.143  0.00  0.00    +0.280 C 
ENDBRANCH  27  29
ENDBRANCH  10  27
TORSDOF 6
