REMARK  Name = ZINC08699599
REMARK  4 active torsions:
REMARK  status: ('A' for Active; 'I' for Inactive)
REMARK    1  A    between atoms: C_6  and  C_7
REMARK    2  A    between atoms: C_7  and  N_8
REMARK    3  A    between atoms: C_12  and  N_19
REMARK    4  A    between atoms: C_15  and  N_34
REMARK                            x       y       z     vdW  Elec       q    Type
REMARK                         _______ _______ _______ _____ _____    ______ ____
ROOT
ATOM      1  N   UNL     1      -1.819   2.303   0.749  0.00  0.00    -0.268 N 
ATOM      2  C   UNL     1      -1.863   2.329  -0.645  0.00  0.00    +0.039 A 
ATOM      3  C   UNL     1      -2.765   2.936  -1.517  0.00  0.00    +0.026 A 
ATOM      4  C   UNL     1      -2.594   2.820  -2.881  0.00  0.00    +0.034 A 
ATOM      5  C   UNL     1      -1.528   2.102  -3.394  0.00  0.00    +0.127 A 
ATOM      6  C   UNL     1      -0.629   1.497  -2.534  0.00  0.00    +0.037 A 
ATOM      7  C   UNL     1      -0.794   1.611  -1.174  0.00  0.00    -0.030 A 
ATOM      8  C   UNL     1      -0.013   1.086   0.008  0.00  0.00    +0.046 C 
ATOM      9  C   UNL     1      -0.772   1.599   1.213  0.00  0.00    +0.210 C 
ATOM     10  O   UNL     1      -0.489   1.412   2.377  0.00  0.00    -0.277 OA
ENDROOT
BRANCH   8  13
ATOM     11  H   UNL     1       1.875   1.296   0.801  0.00  0.00    -0.088 HD
ATOM     12  H   UNL     1       1.831   1.378  -0.859  0.00  0.00    -0.088 HD
ATOM     13  N   UNL     1       1.351   1.643  -0.001  0.00  0.00    +0.388 N 
ATOM     14  H   UNL     1       1.298   2.667   0.051  0.00  0.00    -0.088 HD
ENDBRANCH   8  13
BRANCH   5  15
ATOM     15  N   UNL     1      -1.351   1.982  -4.858  0.00  0.00    +0.056 N 
ATOM     16  O   UNL     1      -2.143   2.516  -5.614  0.00  0.00    -0.126 OA
ATOM     17  O   UNL     1      -0.412   1.350  -5.308  0.00  0.00    -0.126 OA
ENDBRANCH   5  15
BRANCH   1  18
ATOM     18  C   UNL     1      -2.802   2.967   1.610  0.00  0.00    +0.148 C 
BRANCH  18  24
ATOM     19  C   UNL     1      -2.720   5.409   1.067  0.00  0.00    +0.007 A 
ATOM     20  C   UNL     1      -2.302   6.699   1.334  0.00  0.00    +0.022 A 
ATOM     21  C   UNL     1      -1.508   6.954   2.438  0.00  0.00    +0.059 A 
ATOM     22  C   UNL     1      -1.133   5.916   3.275  0.00  0.00    +0.060 A 
ATOM     23  C   UNL     1      -1.556   4.627   3.009  0.00  0.00    +0.026 A 
ATOM     24  C   UNL     1      -2.345   4.373   1.902  0.00  0.00    -0.028 A 
ATOM     25 CL   UNL     1      -0.137   6.235   4.660  0.00  0.00    -0.082 Cl
ATOM     26 CL   UNL     1      -0.982   8.574   2.773  0.00  0.00    -0.082 Cl
ENDBRANCH  18  24
ENDBRANCH   1  18
TORSDOF 4
