REMARK  Name = ZINC39353398
REMARK  6 active torsions:
REMARK  status: ('A' for Active; 'I' for Inactive)
REMARK    1  A    between atoms: C_1  and  C_2
REMARK    2  A    between atoms: C_7  and  C_11
REMARK    3  A    between atoms: C_11  and  N_12
REMARK    4  A    between atoms: C_13  and  C_15
REMARK    5  A    between atoms: C_15  and  N_16
REMARK    6  A    between atoms: C_25  and  C_28
REMARK                            x       y       z     vdW  Elec       q    Type
REMARK                         _______ _______ _______ _____ _____    ______ ____
ROOT
ATOM      1  C   UNL     1       3.158  -7.609   3.255  0.00  0.00    +0.180 C 
ENDROOT
BRANCH   1   2
ATOM      2  N   UNL     1       3.178  -8.889   3.975  0.00  0.00    -0.286 NA
ATOM      3  C   UNL     1       2.691  -8.727   5.350  0.00  0.00    +0.124 C 
ATOM      4  C   UNL     1       2.049 -10.026   5.797  0.00  0.00    +0.008 A 
ATOM      5  C   UNL     1       0.687 -10.091   6.008  0.00  0.00    +0.008 A 
ATOM      6  C   UNL     1       0.115 -11.277   6.433  0.00  0.00    +0.001 A 
ATOM      7  C   UNL     1       0.907 -12.390   6.648  0.00  0.00    +0.004 A 
ATOM      8  C   UNL     1       2.270 -12.327   6.431  0.00  0.00    +0.046 A 
ATOM      9  C   UNL     1       2.842 -11.141   5.994  0.00  0.00    +0.126 A 
ATOM     10  O   UNL     1       4.176 -11.081   5.729  0.00  0.00    -0.483 OA
ATOM     11  C   UNL     1       4.520 -10.953   4.344  0.00  0.00    +0.218 C 
ATOM     12  C   UNL     1       4.503  -9.500   3.919  0.00  0.00    +0.134 C 
BRANCH  11  13
ATOM     13  C   UNL     1       5.899 -11.519   4.120  0.00  0.00    +0.001 A 
ATOM     14  C   UNL     1       6.207 -12.171   2.942  0.00  0.00    +0.015 A 
ATOM     15  C   UNL     1       7.456 -12.668   2.773  0.00  0.00    +0.045 A 
ATOM     16  S   UNL     1       8.245 -12.216   4.309  0.00  0.00    -0.105 S 
ATOM     17  C   UNL     1       6.857 -11.390   5.071  0.00  0.00    +0.052 A 
ENDBRANCH  11  13
ENDBRANCH   1   2
BRANCH   1  19
ATOM     18  N   UNL     1       1.471  -5.968   2.492  0.00  0.00    -0.309 N 
ATOM     19  C   UNL     1       1.735  -7.130   3.123  0.00  0.00    +0.227 C 
ATOM     20  O   UNL     1       0.827  -7.790   3.583  0.00  0.00    -0.274 OA
ATOM     21  H   UNL     1       2.197  -5.441   2.124  0.00  0.00    +0.149 HD
BRANCH  18  22
ATOM     22  C   UNL     1       0.088  -5.503   2.364  0.00  0.00    +0.159 C 
BRANCH  22  29
ATOM     23  C   UNL     1      -0.018   1.503   0.010  0.00  0.00    +0.045 C 
ATOM     24  C   UNL     1       0.002  -0.004   0.002  0.00  0.00    -0.034 A 
ATOM     25  C   UNL     1       0.006  -0.697  -1.220  0.00  0.00    +0.008 A 
ATOM     26  C   UNL     1       0.025  -2.057  -1.224  0.00  0.00    +0.045 A 
ATOM     27  C   UNL     1       0.040  -2.750   0.003  0.00  0.00    +0.115 A 
ATOM     28  N   UNL     1       0.059  -4.043   0.297  0.00  0.00    -0.342 N 
ATOM     29  C   UNL     1       0.067  -4.189   1.625  0.00  0.00    +0.051 A 
ATOM     30  C   UNL     1       0.053  -2.964   2.194  0.00  0.00    +0.115 A 
ATOM     31  N   UNL     1       0.036  -2.047   1.179  0.00  0.00    -0.308 N 
ATOM     32  C   UNL     1       0.022  -0.682   1.169  0.00  0.00    +0.096 A 
ATOM     33  H   UNL     1       0.066  -4.766  -0.348  0.00  0.00    +0.167 HD
ENDBRANCH  22  29
ENDBRANCH  18  22
ENDBRANCH   1  19
TORSDOF 5
