REMARK  Name = ZINC64661030
REMARK  8 active torsions:
REMARK  status: ('A' for Active; 'I' for Inactive)
REMARK    1  A    between atoms: C_1  and  C_2
REMARK    2  A    between atoms: C_2  and  C_3
REMARK    3  A    between atoms: C_7  and  C_31
REMARK    4  A    between atoms: C_8  and  N_9
REMARK    5  A    between atoms: C_10  and  C_12
REMARK    6  A    between atoms: C_12  and  N_13
REMARK    7  A    between atoms: C_16  and  C_30
REMARK    8  A    between atoms: C_17  and  C_29
REMARK                            x       y       z     vdW  Elec       q    Type
REMARK                         _______ _______ _______ _____ _____    ______ ____
ROOT
ATOM      1  N   UNL     1       6.313  -0.751   0.994  0.00  0.00    -0.257 N 
ATOM      2  C   UNL     1       7.335   0.039   0.441  0.00  0.00    +0.058 A 
ATOM      3  C   UNL     1       6.894   1.309   0.116  0.00  0.00    +0.029 A 
ATOM      4  C   UNL     1       7.774   2.221  -0.442  0.00  0.00    -0.046 A 
ATOM      5  C   UNL     1       9.089   1.866  -0.674  0.00  0.00    -0.046 A 
ATOM      6  C   UNL     1       9.536   0.597  -0.350  0.00  0.00    +0.028 A 
ATOM      7  C   UNL     1       8.662  -0.321   0.209  0.00  0.00    +0.053 A 
ATOM      8  N   UNL     1       9.287  -1.548   0.472  0.00  0.00    -0.316 N 
ATOM      9  C   UNL     1       8.757  -2.689   1.022  0.00  0.00    +0.016 C 
ATOM     10  C   UNL     1       9.605  -3.926   1.236  0.00  0.00    +0.051 C 
ATOM     11  C   UNL     1       8.810  -4.790   2.238  0.00  0.00    +0.011 C 
ATOM     12  C   UNL     1       7.362  -4.322   1.979  0.00  0.00    +0.042 C 
ATOM     13  C   UNL     1       7.494  -2.911   1.441  0.00  0.00    +0.032 C 
ATOM     14  H   UNL     1      10.226  -1.598   0.233  0.00  0.00    +0.152 HD
ATOM     15  C   UNL     1       6.388  -2.022   1.428  0.00  0.00    +0.249 C 
ATOM     16  O   UNL     1       5.351  -2.480   1.871  0.00  0.00    -0.270 OA
ATOM     17  C   UNL     1      10.040   2.864  -1.283  0.00  0.00    +0.044 C 
ATOM     18  C   UNL     1       7.296   3.606  -0.797  0.00  0.00    +0.044 C 
ENDROOT
BRANCH   1  19
ATOM     19  C   UNL     1       5.003  -0.108   1.119  0.00  0.00    +0.210 C 
BRANCH  19  21
ATOM     20  N   UNL     1       3.827   1.344   2.740  0.00  0.00    -0.284 N 
ATOM     21  C   UNL     1       4.944   0.666   2.410  0.00  0.00    +0.235 C 
ATOM     22  O   UNL     1       5.902   0.679   3.154  0.00  0.00    -0.274 OA
ATOM     23  H   UNL     1       3.036   1.277   2.182  0.00  0.00    +0.155 HD
BRANCH  20  29
ATOM     24  C   UNL     1       2.745   2.060   4.777  0.00  0.00    -0.026 A 
ATOM     25  C   UNL     1       2.731   2.849   5.911  0.00  0.00    +0.005 A 
ATOM     26  C   UNL     1       3.771   3.726   6.157  0.00  0.00    +0.001 A 
ATOM     27  C   UNL     1       4.827   3.818   5.270  0.00  0.00    +0.005 A 
ATOM     28  C   UNL     1       4.847   3.032   4.134  0.00  0.00    -0.029 A 
ATOM     29  C   UNL     1       3.807   2.146   3.886  0.00  0.00    +0.040 A 
ATOM     30  C   UNL     1       5.999   3.132   3.168  0.00  0.00    +0.045 C 
BRANCH  24  32
ATOM     31  C   UNL     1       1.978  -0.283   5.041  0.00  0.00    +0.009 C 
ATOM     32  C   UNL     1       1.611   1.104   4.509  0.00  0.00    +0.033 C 
ENDBRANCH  24  32
ENDBRANCH  20  29
ENDBRANCH  19  21
ENDBRANCH   1  19
TORSDOF 4
