REMARK  Name = ZINC45067371
REMARK  6 active torsions:
REMARK  status: ('A' for Active; 'I' for Inactive)
REMARK    1  A    between atoms: C_1  and  C_2
REMARK    2  A    between atoms: C_2  and  C_4
REMARK    3  A    between atoms: C_2  and  N_23
REMARK    4  A    between atoms: C_4  and  C_6
REMARK    5  A    between atoms: C_4  and  N_12
REMARK    6  A    between atoms: C_16  and  C_18
REMARK                            x       y       z     vdW  Elec       q    Type
REMARK                         _______ _______ _______ _____ _____    ______ ____
ROOT
ATOM      1  C   UNL     1       0.858  -0.380   1.179  0.00  0.00    +0.079 C 
ENDROOT
BRANCH   1   2
ATOM      2  C   UNL     1       0.398  -0.128  -0.233  0.00  0.00    +0.006 A 
ATOM      3  C   UNL     1      -0.405  -0.888  -1.017  0.00  0.00    +0.014 A 
ATOM      4  C   UNL     1      -0.698  -0.455  -2.297  0.00  0.00    +0.023 A 
ATOM      5  C   UNL     1      -0.171   0.718  -2.730  0.00  0.00    +0.055 A 
ATOM      6  S   UNL     1       0.763   1.252  -1.306  0.00  0.00    -0.085 S 
ATOM      7 BR   UNL     1      -0.380   1.569  -4.406  0.00  0.00    -0.043 Br
ENDBRANCH   1   2
BRANCH   1   8
ATOM      8  N   UNL     1       2.272  -0.001   1.308  0.00  0.00    -0.293 NA
ATOM      9  C   UNL     1       2.432   1.469   1.276  0.00  0.00    +0.085 C 
ATOM     10  C   UNL     1       2.537   1.887   2.764  0.00  0.00    +0.017 C 
ATOM     11  C   UNL     1       3.355   0.713   3.363  0.00  0.00    +0.020 C 
ATOM     12  C   UNL     1       2.841  -0.508   2.570  0.00  0.00    +0.060 C 
BRANCH  12  13
ATOM     13  C   UNL     1       4.001  -1.460   2.272  0.00  0.00    +0.006 C 
ATOM     14  C   UNL     1       3.503  -2.652   1.429  0.00  0.00    +0.005 C 
ATOM     15  C   UNL     1       4.305  -3.861   1.970  0.00  0.00    +0.000 C 
ATOM     16  C   UNL     1       4.367  -3.577   3.492  0.00  0.00    +0.000 C 
ATOM     17  C   UNL     1       4.550  -2.049   3.584  0.00  0.00    +0.005 C 
ENDBRANCH  12  13
ENDBRANCH   1   8
BRANCH   1  19
ATOM     18  C   UNL     1       0.349   0.057   3.586  0.00  0.00    -0.012 C 
ATOM     19  C   UNL     1       0.016   0.455   2.146  0.00  0.00    -0.056 C 
BRANCH  19  20
ATOM     20  N   UNL     1      -1.409   0.213   1.888  0.00  0.00    +0.381 N 
ATOM     21  H   UNL     1      -1.965   0.763   2.526  0.00  0.00    -0.090 HD
ATOM     22  H   UNL     1      -1.629   0.475   0.939  0.00  0.00    -0.090 HD
ATOM     23  H   UNL     1      -1.614  -0.766   2.023  0.00  0.00    -0.090 HD
ENDBRANCH  19  20
ENDBRANCH   1  19
TORSDOF 5
