REMARK  Name = ZINC67290846
REMARK  6 active torsions:
REMARK  status: ('A' for Active; 'I' for Inactive)
REMARK    1  A    between atoms: N_4  and  C_6
REMARK    2  A    between atoms: C_9  and  C_13
REMARK    3  A    between atoms: C_10  and  O_12
REMARK    4  A    between atoms: N_15  and  C_16
REMARK    5  A    between atoms: C_16  and  C_17
REMARK    6  A    between atoms: C_22  and  N_23
REMARK                            x       y       z     vdW  Elec       q    Type
REMARK                         _______ _______ _______ _____ _____    ______ ____
ROOT
ATOM      1  C   UNL     1       3.089  -5.771  -0.061  0.00  0.00    +0.248 C 
ATOM      2  O   UNL     1       2.282  -6.681  -0.064  0.00  0.00    -0.270 OA
ATOM      3  N   UNL     1       4.409  -6.040  -0.071  0.00  0.00    -0.307 N 
ATOM      4  H   UNL     1       5.052  -5.314  -0.070  0.00  0.00    +0.149 HD
ENDROOT
BRANCH   1   8
ATOM      5  C   UNL     1       1.744  -1.741  -0.024  0.00  0.00    +0.049 A 
ATOM      6  C   UNL     1       3.108  -2.021  -0.034  0.00  0.00    +0.027 A 
ATOM      7  C   UNL     1       3.547  -3.324  -0.046  0.00  0.00    +0.019 A 
ATOM      8  C   UNL     1       2.622  -4.373  -0.048  0.00  0.00    +0.078 A 
ATOM      9  C   UNL     1       1.248  -4.090  -0.038  0.00  0.00    +0.131 A 
ATOM     10  C   UNL     1       0.818  -2.774  -0.021  0.00  0.00    +0.072 A 
BRANCH   5  14
ATOM     11  C   UNL     1      -0.016   1.344   0.009  0.00  0.00    +0.019 A 
ATOM     12  C   UNL     1       1.323   1.786  -0.001  0.00  0.00    +0.019 A 
ATOM     13  C   UNL     1       2.110   0.692  -0.014  0.00  0.00    +0.091 A 
ATOM     14  N   UNL     1       1.306  -0.413  -0.013  0.00  0.00    -0.323 N 
ATOM     15  C   UNL     1       0.002  -0.004   0.002  0.00  0.00    +0.091 A 
ENDBRANCH   5  14
BRANCH   9  16
ATOM     16  O   UNL     1       0.344  -5.102  -0.041  0.00  0.00    -0.506 OA
ATOM     17  H   UNL     1       0.087  -5.402   0.841  0.00  0.00    +0.292 HD
ENDBRANCH   9  16
ENDBRANCH   1   8
BRANCH   3  18
ATOM     18  C   UNL     1       4.873  -7.430  -0.085  0.00  0.00    +0.143 C 
BRANCH  18  19
ATOM     19  C   UNL     1       6.380  -7.456  -0.094  0.00  0.00    +0.014 A 
ATOM     20  C   UNL     1       7.071  -7.661  -1.276  0.00  0.00    +0.010 A 
ATOM     21  C   UNL     1       8.458  -7.678  -1.237  0.00  0.00    +0.020 A 
ATOM     22  C   UNL     1       9.103  -7.490  -0.030  0.00  0.00    +0.113 A 
ATOM     23  N   UNL     1       8.417  -7.298   1.080  0.00  0.00    -0.236 NA
ATOM     24  C   UNL     1       7.094  -7.269   1.083  0.00  0.00    +0.159 A 
BRANCH  24  25
ATOM     25  N   UNL     1       6.409  -7.055   2.283  0.00  0.00    -0.222 N 
ATOM     26  C   UNL     1       6.878  -7.318   3.530  0.00  0.00    +0.116 A 
ATOM     27  C   UNL     1       5.912  -6.970   4.412  0.00  0.00    +0.041 A 
ATOM     28  C   UNL     1       4.821  -6.480   3.686  0.00  0.00    +0.135 A 
ATOM     29  N   UNL     1       5.118  -6.526   2.413  0.00  0.00    -0.173 NA
ENDBRANCH  24  25
ENDBRANCH  18  19
ENDBRANCH   3  18
TORSDOF 6
