REMARK  Name = ZINC39729387
REMARK  6 active torsions:
REMARK  status: ('A' for Active; 'I' for Inactive)
REMARK    1  A    between atoms: C_1  and  N_2
REMARK    2  A    between atoms: N_2  and  C_3
REMARK    3  A    between atoms: N_2  and  C_16
REMARK    4  A    between atoms: C_3  and  C_4
REMARK    5  A    between atoms: C_9  and  N_10
REMARK    6  A    between atoms: C_16  and  C_17
REMARK                            x       y       z     vdW  Elec       q    Type
REMARK                         _______ _______ _______ _____ _____    ______ ____
ROOT
ATOM      1  C   UNL     1      -0.242   1.792   0.639  0.00  0.00    -0.095 C 
ATOM      2  N   UNL     1      -0.054   0.363   0.353  0.00  0.00    +0.386 N 
ATOM      3  H   UNL     1       0.272   0.250  -0.595  0.00  0.00    -0.081 HD
ENDROOT
BRANCH   2   4
ATOM      4  C   UNL     1       0.937  -0.196   1.282  0.00  0.00    -0.041 C 
BRANCH   4   5
ATOM      5  C   UNL     1       2.284   0.423   1.012  0.00  0.00    -0.043 A 
ATOM      6  C   UNL     1       2.757   1.433   1.827  0.00  0.00    +0.003 A 
ATOM      7  C   UNL     1       3.992   2.002   1.580  0.00  0.00    +0.000 A 
ATOM      8  C   UNL     1       4.759   1.562   0.516  0.00  0.00    +0.002 A 
ATOM      9  C   UNL     1       4.293   0.552  -0.302  0.00  0.00    +0.023 A 
ATOM     10  C   UNL     1       3.054  -0.025  -0.053  0.00  0.00    +0.031 A 
BRANCH  10  11
ATOM     11  N   UNL     1       2.582  -1.050  -0.876  0.00  0.00    -0.330 N 
ATOM     12  C   UNL     1       1.803  -0.742  -2.083  0.00  0.00    +0.105 C 
ATOM     13  C   UNL     1       2.459  -1.433  -3.283  0.00  0.00    +0.019 C 
ATOM     14  C   UNL     1       2.601  -2.928  -2.991  0.00  0.00    +0.003 C 
ATOM     15  C   UNL     1       3.499  -3.128  -1.768  0.00  0.00    +0.019 C 
ATOM     16  C   UNL     1       2.860  -2.457  -0.554  0.00  0.00    +0.105 C 
ENDBRANCH  10  11
ENDBRANCH   4   5
ENDBRANCH   2   4
BRANCH   2  17
ATOM     17  C   UNL     1      -1.332  -0.342   0.518  0.00  0.00    +0.019 C 
BRANCH  17  18
ATOM     18  C   UNL     1      -2.312   0.146  -0.517  0.00  0.00    +0.201 C 
ATOM     19  O   UNL     1      -1.979   0.998  -1.314  0.00  0.00    -0.278 OA
ATOM     20  N   UNL     1      -3.560  -0.363  -0.558  0.00  0.00    -0.286 N 
ATOM     21  C   UNL     1      -4.012  -0.914  -1.667  0.00  0.00    +0.050 C 
ATOM     22  C   UNL     1      -3.108  -1.095  -2.824  0.00  0.00    +0.054 C 
ATOM     23  C   UNL     1      -3.583  -1.663  -3.961  0.00  0.00    +0.097 C 
ATOM     24  N   UNL     1      -3.044  -1.971  -5.176  0.00  0.00    -0.190 NA
ATOM     25  C   UNL     1      -3.982  -2.519  -5.913  0.00  0.00    +0.369 C 
ATOM     26  O   UNL     1      -3.799  -2.950  -7.183  0.00  0.00    -0.243 OA
ATOM     27  N   UNL     1      -5.147  -2.599  -5.247  0.00  0.00    -0.190 NA
ATOM     28  C   UNL     1      -4.993  -2.095  -4.038  0.00  0.00    +0.096 C 
ATOM     29  C   UNL     1      -5.881  -1.911  -2.887  0.00  0.00    +0.047 C 
ATOM     30  C   UNL     1      -5.412  -1.353  -1.754  0.00  0.00    +0.041 C 
ATOM     31 BR   UNL     1      -6.562  -1.126  -0.270  0.00  0.00    -0.048 Br
ATOM     32  H   UNL     1      -4.125  -0.325   0.230  0.00  0.00    +0.155 HD
ENDBRANCH  17  18
ENDBRANCH   2  17
TORSDOF 5
