REMARK  Name = ZINC09193496
REMARK  8 active torsions:
REMARK  status: ('A' for Active; 'I' for Inactive)
REMARK    1  A    between atoms: C_1  and  C_2
REMARK    2  A    between atoms: C_2  and  C_3
REMARK    3  A    between atoms: C_2  and  C_4
REMARK    4  A    between atoms: C_4  and  C_6
REMARK    5  A    between atoms: C_4  and  S_12
REMARK    6  A    between atoms: S_12  and  C_13
REMARK    7  A    between atoms: C_16  and  C_24
REMARK    8  A    between atoms: N_17  and  C_18
REMARK                            x       y       z     vdW  Elec       q    Type
REMARK                         _______ _______ _______ _____ _____    ______ ____
ROOT
ATOM      1  C   UNL     1       3.063  -0.681   0.156  0.00  0.00    +0.193 A 
ATOM      2  N   UNL     1       2.236  -1.548   0.694  0.00  0.00    -0.122 NA
ATOM      3  N   UNL     1       2.853  -2.268   1.562  0.00  0.00    -0.128 NA
ATOM      4  C   UNL     1       4.110  -1.897   1.638  0.00  0.00    +0.167 A 
ATOM      5  N   UNL     1       4.283  -0.869   0.740  0.00  0.00    -0.299 N 
ENDROOT
BRANCH   4   6
ATOM      6  C   UNL     1       5.144  -2.475   2.522  0.00  0.00    +0.038 A 
ATOM      7  C   UNL     1       5.977  -1.639   3.267  0.00  0.00    +0.014 A 
ATOM      8  C   UNL     1       6.940  -2.184   4.090  0.00  0.00    +0.021 A 
ATOM      9  C   UNL     1       7.083  -3.559   4.178  0.00  0.00    +0.042 A 
ATOM     10  C   UNL     1       6.260  -4.395   3.442  0.00  0.00    +0.040 A 
ATOM     11  C   UNL     1       5.289  -3.861   2.619  0.00  0.00    +0.053 A 
ATOM     12 CL   UNL     1       4.253  -4.910   1.702  0.00  0.00    -0.083 Cl
ATOM     13 CL   UNL     1       8.298  -4.237   5.216  0.00  0.00    -0.083 Cl
ENDBRANCH   4   6
BRANCH   5  14
ATOM     14  C   UNL     1       5.519  -0.130   0.468  0.00  0.00    +0.091 C 
ATOM     15  C   UNL     1       5.320   1.344   0.825  0.00  0.00    +0.025 C 
ATOM     16  C   UNL     1       6.611   2.116   0.540  0.00  0.00    +0.002 C 
ATOM     17  C   UNL     1       6.962   1.993  -0.944  0.00  0.00    +0.000 C 
ATOM     18  C   UNL     1       7.160   0.518  -1.300  0.00  0.00    +0.002 C 
ATOM     19  C   UNL     1       5.870  -0.253  -1.016  0.00  0.00    +0.025 C 
ENDBRANCH   5  14
BRANCH   1  20
ATOM     20  S   UNL     1       2.670   0.509  -1.082  0.00  0.00    -0.073 S 
BRANCH  20  21
ATOM     21  C   UNL     1       0.949   0.058  -1.417  0.00  0.00    +0.143 C 
BRANCH  21  22
ATOM     22  C   UNL     1       0.463   0.801  -2.634  0.00  0.00    +0.234 C 
ATOM     23  O   UNL     1       1.037   1.803  -3.003  0.00  0.00    -0.274 OA
ATOM     24  N   UNL     1      -0.612   0.352  -3.313  0.00  0.00    -0.239 N 
ATOM     25  C   UNL     1      -1.047   1.017  -4.402  0.00  0.00    +0.303 C 
ATOM     26  O   UNL     1      -0.471   2.022  -4.771  0.00  0.00    -0.253 OA
ATOM     27  N   UNL     1      -2.121   0.568  -5.081  0.00  0.00    -0.313 N 
ATOM     28  H   UNL     1      -1.071  -0.450  -3.019  0.00  0.00    +0.159 HD
ATOM     29  H   UNL     1      -2.581  -0.234  -4.786  0.00  0.00    +0.146 HD
ATOM     30  H   UNL     1      -2.434   1.047  -5.864  0.00  0.00    +0.146 HD
ENDBRANCH  21  22
BRANCH  21  32
ATOM     31  C   UNL     1      -1.344  -0.082  -0.436  0.00  0.00    +0.009 C 
ATOM     32  C   UNL     1       0.081   0.427  -0.213  0.00  0.00    +0.005 C 
ATOM     33  C   UNL     1       0.059   1.948  -0.048  0.00  0.00    +0.009 C 
ENDBRANCH  21  32
ENDBRANCH  20  21
ENDBRANCH   1  20
TORSDOF 6
