REMARK  Name = ZINC00752940
REMARK  8 active torsions:
REMARK  status: ('A' for Active; 'I' for Inactive)
REMARK    1  A    between atoms: C_1  and  C_2
REMARK    2  A    between atoms: C_2  and  O_3
REMARK    3  A    between atoms: O_3  and  C_4
REMARK    4  A    between atoms: C_4  and  C_6
REMARK    5  A    between atoms: C_10  and  N_11
REMARK    6  A    between atoms: C_12  and  C_14
REMARK    7  A    between atoms: C_27  and  C_29
REMARK    8  A    between atoms: C_27  and  C_30
REMARK                            x       y       z     vdW  Elec       q    Type
REMARK                         _______ _______ _______ _____ _____    ______ ____
ROOT
ATOM      1  C   UNL     1      -1.220   2.333   0.020  0.00  0.00    +0.091 A 
ATOM      2  C   UNL     1      -0.019   1.520   0.010  0.00  0.00    -0.016 A 
ATOM      3  C   UNL     1       1.146   2.209   0.003  0.00  0.00    +0.021 A 
ATOM      4  S   UNL     1       0.665   3.910   0.015  0.00  0.00    -0.075 S 
ATOM      5  C   UNL     1      -1.057   3.714   0.030  0.00  0.00    +0.087 A 
ATOM      6  C   UNL     1       2.520   1.616  -0.012  0.00  0.00    +0.203 C 
ATOM      7  O   UNL     1       2.402   0.220   0.306  0.00  0.00    -0.368 OA
ATOM      8  C   UNL     1       1.394  -0.456  -0.451  0.00  0.00    +0.068 C 
ATOM      9  C   UNL     1       0.002  -0.004   0.002  0.00  0.00    +0.071 C 
ATOM     10  C   UNL     1       1.530  -1.966  -0.242  0.00  0.00    +0.041 C 
ATOM     11  C   UNL     1       1.575  -0.132  -1.935  0.00  0.00    +0.041 C 
ENDROOT
BRANCH   5  12
ATOM     12  N   UNL     1      -2.034   4.695   0.043  0.00  0.00    -0.275 N 
ATOM     13  C   UNL     1      -1.682   5.996   0.046  0.00  0.00    +0.256 C 
ATOM     14  O   UNL     1      -0.507   6.309   0.036  0.00  0.00    -0.270 OA
ATOM     15  H   UNL     1      -2.971   4.446   0.051  0.00  0.00    +0.156 HD
BRANCH  13  16
ATOM     16  C   UNL     1      -2.721   7.039   0.060  0.00  0.00    +0.122 A 
ATOM     17  C   UNL     1      -4.063   6.698   0.071  0.00  0.00    +0.031 A 
ATOM     18  C   UNL     1      -5.029   7.735   0.085  0.00  0.00    +0.018 A 
ATOM     19  C   UNL     1      -6.397   7.424   0.097  0.00  0.00    +0.011 A 
ATOM     20  C   UNL     1      -7.323   8.428   0.111  0.00  0.00    +0.001 A 
ATOM     21  C   UNL     1      -6.920   9.756   0.114  0.00  0.00    +0.004 A 
ATOM     22  C   UNL     1      -5.581  10.085   0.102  0.00  0.00    +0.047 A 
ATOM     23  C   UNL     1      -4.619   9.080   0.087  0.00  0.00    +0.139 A 
ATOM     24  O   UNL     1      -3.308   9.405   0.076  0.00  0.00    -0.422 OA
ATOM     25  C   UNL     1      -2.353   8.460   0.069  0.00  0.00    +0.350 A 
ATOM     26  O   UNL     1      -1.180   8.783   0.064  0.00  0.00    -0.244 OA
ENDBRANCH  13  16
ENDBRANCH   5  12
BRANCH   1  27
ATOM     27  C   UNL     1      -2.551   1.724   0.024  0.00  0.00    +0.342 C 
ATOM     28  O   UNL     1      -3.098   1.466   1.079  0.00  0.00    -0.245 OA
BRANCH  27  29
ATOM     29  O   UNL     1      -3.170   1.448  -1.142  0.00  0.00    -0.461 OA
BRANCH  29  31
ATOM     30  C   UNL     1      -5.027   0.608  -2.474  0.00  0.00    +0.048 C 
ATOM     31  C   UNL     1      -4.488   0.845  -1.062  0.00  0.00    +0.229 C 
ENDBRANCH  29  31
ENDBRANCH  27  29
ENDBRANCH   1  27
TORSDOF 5
