REMARK  Name = ZINC36599004
REMARK  15 active torsions:
REMARK  status: ('A' for Active; 'I' for Inactive)
REMARK    1  A    between atoms: C_1  and  C_2
REMARK    2  A    between atoms: C_7  and  C_8
REMARK    3  A    between atoms: C_8  and  C_10
REMARK    4  A    between atoms: C_8  and  N_17
REMARK    5  A    between atoms: N_12  and  C_13
REMARK    6  A    between atoms: C_13  and  C_14
REMARK    7  A    between atoms: C_13  and  C_15
REMARK    8  A    between atoms: C_13  and  C_16
REMARK    9  A    between atoms: N_17  and  C_18
REMARK   10  A    between atoms: C_18  and  C_19
REMARK   11  A    between atoms: C_22  and  C_24
REMARK   12  A    between atoms: C_25  and  C_27
REMARK   13  A    between atoms: C_27  and  C_28
REMARK   14  A    between atoms: C_27  and  C_34
REMARK   15  A    between atoms: C_27  and  O_40
REMARK                            x       y       z     vdW  Elec       q    Type
REMARK                         _______ _______ _______ _____ _____    ______ ____
ROOT
ATOM      1  N   UNL     1       0.197  -1.188   2.568  0.00  0.00    -0.276 N 
ATOM      2  C   UNL     1      -0.315  -2.298   3.136  0.00  0.00    +0.258 C 
ATOM      3  O   UNL     1       0.348  -2.937   3.925  0.00  0.00    -0.272 OA
ENDROOT
BRANCH   1   4
ATOM      4  C   UNL     1      -0.634  -0.368   1.682  0.00  0.00    +0.193 C 
BRANCH   4  11
ATOM      5  C   UNL     1      -3.143   0.338   0.437  0.00  0.00    +0.044 C 
ATOM      6  C   UNL     1      -2.911   0.648   1.894  0.00  0.00    -0.045 A 
ATOM      7  C   UNL     1      -3.901   1.266   2.635  0.00  0.00    +0.004 A 
ATOM      8  C   UNL     1      -3.688   1.550   3.971  0.00  0.00    +0.000 A 
ATOM      9  C   UNL     1      -2.485   1.216   4.566  0.00  0.00    +0.000 A 
ATOM     10  C   UNL     1      -1.496   0.598   3.824  0.00  0.00    +0.006 A 
ATOM     11  C   UNL     1      -1.711   0.310   2.489  0.00  0.00    -0.015 A 
ENDBRANCH   4  11
BRANCH   4  12
ATOM     12  C   UNL     1       0.224   0.674   1.012  0.00  0.00    +0.239 C 
ATOM     13  O   UNL     1       0.940   1.390   1.679  0.00  0.00    -0.273 OA
ATOM     14  N   UNL     1       0.195   0.810  -0.329  0.00  0.00    -0.309 N 
ATOM     15  H   UNL     1      -0.435   0.293  -0.855  0.00  0.00    +0.149 HD
BRANCH  14  16
ATOM     16  C   UNL     1       1.114   1.738  -0.991  0.00  0.00    +0.026 C 
ATOM     17  C   UNL     1       2.557   1.305  -0.724  0.00  0.00    +0.031 C 
ATOM     18  C   UNL     1       0.850   1.730  -2.498  0.00  0.00    +0.031 C 
ATOM     19  C   UNL     1       0.896   3.150  -0.443  0.00  0.00    +0.031 C 
ENDBRANCH  14  16
ENDBRANCH   4  12
ENDBRANCH   1   4
BRANCH   1  20
ATOM     20  C   UNL     1       1.584  -0.801   2.837  0.00  0.00    +0.183 C 
BRANCH  20  21
ATOM     21  C   UNL     1       1.629   0.100   4.044  0.00  0.00    +0.122 A 
ATOM     22  C   UNL     1       1.776  -0.301   5.320  0.00  0.00    +0.046 A 
ATOM     23  C   UNL     1       1.764   0.865   6.119  0.00  0.00    +0.045 A 
ATOM     24  C   UNL     1       1.611   1.909   5.284  0.00  0.00    +0.102 A 
ATOM     25  O   UNL     1       1.536   1.440   4.028  0.00  0.00    -0.463 OA
ATOM     26  C   UNL     1       1.542   3.359   5.689  0.00  0.00    +0.086 C 
ENDBRANCH  20  21
ENDBRANCH   1  20
BRANCH   2  27
ATOM     27  C   UNL     1      -1.712  -2.746   2.790  0.00  0.00    +0.192 C 
BRANCH  27  28
ATOM     28  C   UNL     1      -1.807  -4.244   2.920  0.00  0.00    -0.003 A 
ATOM     29  C   UNL     1      -1.430  -4.861   4.098  0.00  0.00    +0.007 A 
ATOM     30  C   UNL     1      -1.517  -6.235   4.217  0.00  0.00    +0.000 A 
ATOM     31  C   UNL     1      -1.980  -6.993   3.158  0.00  0.00    +0.000 A 
ATOM     32  C   UNL     1      -2.357  -6.376   1.980  0.00  0.00    +0.000 A 
ATOM     33  C   UNL     1      -2.275  -5.001   1.862  0.00  0.00    +0.007 A 
ENDBRANCH  27  28
BRANCH  27  34
ATOM     34  C   UNL     1      -2.695  -2.097   3.731  0.00  0.00    -0.003 A 
ATOM     35  C   UNL     1      -2.330  -1.834   5.038  0.00  0.00    +0.007 A 
ATOM     36  C   UNL     1      -3.231  -1.239   5.901  0.00  0.00    +0.000 A 
ATOM     37  C   UNL     1      -4.497  -0.907   5.456  0.00  0.00    +0.000 A 
ATOM     38  C   UNL     1      -4.862  -1.168   4.149  0.00  0.00    +0.000 A 
ATOM     39  C   UNL     1      -3.959  -1.760   3.285  0.00  0.00    +0.007 A 
ENDBRANCH  27  34
BRANCH  27  40
ATOM     40  O   UNL     1      -2.016  -2.364   1.446  0.00  0.00    -0.371 OA
ATOM     41  H   UNL     1      -1.396  -2.710   0.790  0.00  0.00    +0.212 HD
ENDBRANCH  27  40
ENDBRANCH   2  27
TORSDOF 10
