REMARK  Name = ZINC64372455
REMARK  4 active torsions:
REMARK  status: ('A' for Active; 'I' for Inactive)
REMARK    1  A    between atoms: C_5  and  C_7
REMARK    2  A    between atoms: C_8  and  C_9
REMARK    3  A    between atoms: C_9  and  N_11
REMARK    4  A    between atoms: C_15  and  C_18
REMARK                            x       y       z     vdW  Elec       q    Type
REMARK                         _______ _______ _______ _____ _____    ______ ____
ROOT
ATOM      1  N   UNL     1      -1.018  -5.011  -0.018  0.00  0.00    -0.142 NA
ATOM      2  C   UNL     1      -0.992  -6.341  -0.026  0.00  0.00    +0.216 A 
ATOM      3  N   UNL     1       0.120  -7.126  -0.036  0.00  0.00    -0.308 N 
ATOM      4  H   UNL     1       1.038  -6.813  -0.039  0.00  0.00    +0.170 HD
ATOM      5  C   UNL     1      -0.286  -8.444  -0.042  0.00  0.00    +0.179 A 
ATOM      6  N   UNL     1      -1.589  -8.484  -0.036  0.00  0.00    -0.151 NA
ATOM      7  N   UNL     1      -2.070  -7.168  -0.020  0.00  0.00    -0.246 N 
ATOM      8  H   UNL     1      -3.001  -6.897  -0.008  0.00  0.00    +0.192 HD
ENDROOT
BRANCH   5   9
ATOM      9  C   UNL     1       0.611  -9.621  -0.054  0.00  0.00    +0.108 A 
ATOM     10  C   UNL     1       0.067 -10.905  -0.065  0.00  0.00    +0.031 A 
ATOM     11  C   UNL     1       0.919 -11.996  -0.077  0.00  0.00    +0.004 A 
ATOM     12  C   UNL     1       2.288 -11.767  -0.077  0.00  0.00    +0.020 A 
ATOM     13  C   UNL     1       2.759 -10.467  -0.066  0.00  0.00    +0.111 A 
ATOM     14  N   UNL     1       1.927  -9.446  -0.060  0.00  0.00    -0.252 NA
ENDBRANCH   5   9
BRANCH   1  15
ATOM     15  C   UNL     1       0.129  -4.319  -0.025  0.00  0.00    +0.263 C 
ATOM     16  O   UNL     1       1.197  -4.909  -0.039  0.00  0.00    -0.269 OA
BRANCH  15  18
ATOM     17  C   UNL     1       1.253  -2.155  -0.023  0.00  0.00    +0.014 C 
ATOM     18  C   UNL     1       0.100  -2.851  -0.016  0.00  0.00    +0.070 C 
BRANCH  17  23
ATOM     19  C   UNL     1      -0.017   1.374   0.010  0.00  0.00    +0.001 A 
ATOM     20  C   UNL     1       1.170   2.087   0.002  0.00  0.00    +0.001 A 
ATOM     21  C   UNL     1       2.384   1.423  -0.013  0.00  0.00    +0.016 A 
ATOM     22  C   UNL     1       2.420   0.043  -0.021  0.00  0.00    +0.025 A 
ATOM     23  C   UNL     1       1.224  -0.683  -0.014  0.00  0.00    -0.011 A 
ATOM     24  C   UNL     1       0.002  -0.004   0.002  0.00  0.00    +0.009 A 
ATOM     25 BR   UNL     1       4.080  -0.862  -0.043  0.00  0.00    -0.050 Br
ENDBRANCH  17  23
ENDBRANCH  15  18
ENDBRANCH   1  15
TORSDOF 4
