REMARK  Name = ZINC12987352
REMARK  9 active torsions:
REMARK  status: ('A' for Active; 'I' for Inactive)
REMARK    1  A    between atoms: C_1  and  C_2
REMARK    2  A    between atoms: C_5  and  N_28
REMARK    3  A    between atoms: C_6  and  N_9
REMARK    4  A    between atoms: C_7  and  C_8
REMARK    5  A    between atoms: C_10  and  C_12
REMARK    6  A    between atoms: C_12  and  N_59
REMARK    7  A    between atoms: C_18  and  C_20
REMARK    8  A    between atoms: C_23  and  O_26
REMARK    9  A    between atoms: O_26  and  C_27
REMARK                            x       y       z     vdW  Elec       q    Type
REMARK                         _______ _______ _______ _____ _____    ______ ____
ROOT
ATOM      1  C   UNL     1      -0.781   0.812   2.300  0.00  0.00    +0.020 C 
ENDROOT
BRANCH   1   8
ATOM      2  C   UNL     1      -0.143  -0.269   0.223  0.00  0.00    -0.077 C 
ATOM      3  C   UNL     1      -0.581  -0.202  -1.219  0.00  0.00    -0.019 C 
ATOM      4  C   UNL     1       0.566   0.250  -2.139  0.00  0.00    -0.002 C 
ATOM      5  C   UNL     1       1.395   1.388  -1.510  0.00  0.00    -0.001 C 
ATOM      6  C   UNL     1       0.537   2.418  -0.821  0.00  0.00    -0.011 C 
ATOM      7  C   UNL     1       0.407   2.046   0.673  0.00  0.00    -0.037 C 
ATOM      8  N   UNL     1      -0.558   1.021   0.858  0.00  0.00    +0.390 N 
ATOM      9  H   UNL     1      -1.439   1.326   0.426  0.00  0.00    -0.080 HD
BRANCH   7  10
ATOM     10  C   UNL     1      -0.052   3.257   1.442  0.00  0.00    -0.061 A 
ATOM     11  C   UNL     1      -1.395   3.585   1.476  0.00  0.00    +0.005 A 
ATOM     12  C   UNL     1      -1.820   4.692   2.185  0.00  0.00    +0.046 A 
ATOM     13  C   UNL     1      -0.896   5.482   2.855  0.00  0.00    +0.120 A 
ATOM     14  C   UNL     1       0.452   5.154   2.815  0.00  0.00    +0.046 A 
ATOM     15  C   UNL     1       0.870   4.043   2.109  0.00  0.00    +0.005 A 
BRANCH  13  16
ATOM     16  O   UNL     1      -1.310   6.574   3.549  0.00  0.00    -0.495 OA
ATOM     17  C   UNL     1      -2.712   6.851   3.546  0.00  0.00    +0.277 C 
ENDBRANCH  13  16
ENDBRANCH   7  10
ENDBRANCH   1   8
BRANCH   1  19
ATOM     18  N   UNL     1       0.401  -0.082   4.281  0.00  0.00    -0.285 N 
ATOM     19  C   UNL     1       0.442   0.245   2.974  0.00  0.00    +0.201 C 
ATOM     20  O   UNL     1       1.463   0.082   2.340  0.00  0.00    -0.278 OA
ATOM     21  H   UNL     1      -0.436  -0.028   4.768  0.00  0.00    +0.155 HD
BRANCH  18  27
ATOM     22  C   UNL     1       4.199  -3.188   4.589  0.00  0.00    +0.044 C 
ATOM     23  C   UNL     1       3.427  -2.002   5.105  0.00  0.00    -0.046 A 
ATOM     24  C   UNL     1       3.869  -1.324   6.226  0.00  0.00    +0.006 A 
ATOM     25  C   UNL     1       3.163  -0.235   6.703  0.00  0.00    +0.035 A 
ATOM     26  C   UNL     1       2.016   0.183   6.057  0.00  0.00    +0.148 A 
ATOM     27  C   UNL     1       1.566  -0.499   4.934  0.00  0.00    +0.067 A 
ATOM     28  C   UNL     1       2.277  -1.593   4.458  0.00  0.00    -0.024 A 
ATOM     29  C   UNL     1       1.796  -2.331   3.236  0.00  0.00    +0.046 C 
BRANCH  26  30
ATOM     30  N   UNL     1       1.264   1.352   6.564  0.00  0.00    +0.058 N 
ATOM     31  O   UNL     1       1.707   2.005   7.492  0.00  0.00    -0.126 OA
ATOM     32  O   UNL     1       0.202   1.662   6.054  0.00  0.00    -0.126 OA
ENDBRANCH  26  30
ENDBRANCH  18  27
ENDBRANCH   1  19
TORSDOF 6
