REMARK  Name = ZINC04164497
REMARK  18 active torsions:
REMARK  status: ('A' for Active; 'I' for Inactive)
REMARK    1  A    between atoms: C_1  and  C_2
REMARK    2  A    between atoms: C_2  and  C_3
REMARK    3  A    between atoms: C_2  and  C_4
REMARK    4  A    between atoms: C_4  and  N_5
REMARK    5  A    between atoms: C_6  and  N_35
REMARK    6  A    between atoms: C_7  and  N_14
REMARK    7  A    between atoms: N_14  and  C_15
REMARK    8  A    between atoms: C_15  and  C_16
REMARK    9  A    between atoms: C_16  and  C_17
REMARK   10  A    between atoms: C_16  and  C_18
REMARK   11  A    between atoms: C_19  and  C_21
REMARK   12  A    between atoms: C_21  and  N_22
REMARK   13  A    between atoms: N_22  and  C_23
REMARK   14  A    between atoms: N_22  and  C_24
REMARK   15  A    between atoms: C_24  and  C_25
REMARK   16  A    between atoms: C_28  and  O_31
REMARK   17  A    between atoms: O_31  and  C_32
REMARK   18  A    between atoms: C_32  and  C_33
REMARK                            x       y       z     vdW  Elec       q    Type
REMARK                         _______ _______ _______ _____ _____    ______ ____
ROOT
ATOM      1  N   UNL     1       4.463   3.216  -2.034  0.00  0.00    -0.266 N 
ATOM      2  C   UNL     1       3.331   3.918  -1.818  0.00  0.00    +0.203 C 
ATOM      3  O   UNL     1       2.253   3.365  -1.877  0.00  0.00    -0.277 OA
ENDROOT
BRANCH   1   6
ATOM      4  N   UNL     1       4.771  -0.101  -3.585  0.00  0.00    -0.280 N 
ATOM      5  C   UNL     1       4.845   1.263  -3.417  0.00  0.00    +0.127 A 
ATOM      6  C   UNL     1       4.400   1.821  -2.236  0.00  0.00    +0.140 A 
ATOM      7  C   UNL     1       3.882   0.975  -1.238  0.00  0.00    +0.277 A 
ATOM      8  O   UNL     1       3.481   1.442  -0.185  0.00  0.00    -0.266 OA
ATOM      9  N   UNL     1       3.831  -0.354  -1.453  0.00  0.00    -0.273 N 
ATOM     10  H   UNL     1       3.474  -0.938  -0.765  0.00  0.00    +0.173 HD
ATOM     11  C   UNL     1       4.265  -0.880  -2.612  0.00  0.00    +0.331 A 
ATOM     12  O   UNL     1       4.203  -2.082  -2.782  0.00  0.00    -0.246 OA
BRANCH   5  13
ATOM     13  N   UNL     1       5.357   2.059  -4.413  0.00  0.00    -0.343 N 
ATOM     14  H   UNL     1       5.767   1.656  -5.194  0.00  0.00    +0.144 HD
ATOM     15  H   UNL     1       5.309   3.025  -4.335  0.00  0.00    +0.144 HD
ENDBRANCH   5  13
BRANCH   4  16
ATOM     16  C   UNL     1       5.240  -0.707  -4.833  0.00  0.00    +0.131 C 
BRANCH  16  18
ATOM     17  C   UNL     1       3.657   0.650  -6.211  0.00  0.00    +0.009 C 
ATOM     18  C   UNL     1       4.085  -0.770  -5.835  0.00  0.00    +0.003 C 
ATOM     19  C   UNL     1       4.541  -1.515  -7.092  0.00  0.00    +0.009 C 
ENDBRANCH  16  18
ENDBRANCH   4  16
ENDBRANCH   1   6
BRANCH   1  20
ATOM     20  C   UNL     1       5.757   3.902  -2.058  0.00  0.00    +0.117 C 
BRANCH  20  21
ATOM     21  C   UNL     1       6.279   4.056  -0.628  0.00  0.00    +0.001 C 
ATOM     22  C   UNL     1       6.599   2.675  -0.050  0.00  0.00    +0.009 C 
ATOM     23  C   UNL     1       7.548   4.911  -0.637  0.00  0.00    +0.009 C 
ENDBRANCH  20  21
ENDBRANCH   1  20
BRANCH   2  24
ATOM     24  C   UNL     1       3.406   5.390  -1.503  0.00  0.00    +0.019 C 
BRANCH  24  25
ATOM     25  N   UNL     1       2.049   5.950  -1.454  0.00  0.00    +0.386 N 
ATOM     26  C   UNL     1       1.437   5.869  -2.787  0.00  0.00    -0.095 C 
ATOM     27  H   UNL     1       1.492   5.426  -0.796  0.00  0.00    -0.081 HD
BRANCH  25  28
ATOM     28  C   UNL     1       2.114   7.355  -1.030  0.00  0.00    -0.043 C 
BRANCH  28  29
ATOM     29  C   UNL     1       0.717   7.894  -0.862  0.00  0.00    -0.064 A 
ATOM     30  C   UNL     1       0.070   8.482  -1.933  0.00  0.00    +0.005 A 
ATOM     31  C   UNL     1      -1.210   8.978  -1.781  0.00  0.00    +0.046 A 
ATOM     32  C   UNL     1      -1.848   8.884  -0.552  0.00  0.00    +0.121 A 
ATOM     33  C   UNL     1      -1.196   8.294   0.521  0.00  0.00    +0.046 A 
ATOM     34  C   UNL     1       0.082   7.795   0.362  0.00  0.00    +0.005 A 
BRANCH  32  35
ATOM     35  O   UNL     1      -3.107   9.371  -0.400  0.00  0.00    -0.488 OA
BRANCH  35  36
ATOM     36  C   UNL     1      -3.701   9.241   0.894  0.00  0.00    +0.256 C 
BRANCH  36  37
ATOM     37  C   UNL     1      -5.087   9.833   0.872  0.00  0.00    +0.006 C 
ATOM     38  C   UNL     1      -6.083   9.188   1.426  0.00  0.00    +0.007 C 
ENDBRANCH  36  37
ENDBRANCH  35  36
ENDBRANCH  32  35
ENDBRANCH  28  29
ENDBRANCH  25  28
ENDBRANCH  24  25
ENDBRANCH   2  24
TORSDOF 13
