REMARK  Name = ZINC06746990
REMARK  12 active torsions:
REMARK  status: ('A' for Active; 'I' for Inactive)
REMARK    1  A    between atoms: C_1  and  C_2
REMARK    2  A    between atoms: C_2  and  C_3
REMARK    3  A    between atoms: C_3  and  O_4
REMARK    4  A    between atoms: O_4  and  C_5
REMARK    5  A    between atoms: C_8  and  S_12
REMARK    6  A    between atoms: C_10  and  C_11
REMARK    7  A    between atoms: S_12  and  N_15
REMARK    8  A    between atoms: N_15  and  C_16
REMARK    9  A    between atoms: C_18  and  C_23
REMARK   10  A    between atoms: C_18  and  C_24
REMARK   11  A    between atoms: C_19  and  C_21
REMARK   12  A    between atoms: C_19  and  C_22
REMARK                            x       y       z     vdW  Elec       q    Type
REMARK                         _______ _______ _______ _____ _____    ______ ____
ROOT
ATOM      1  S   UNL     1       0.064  -4.532  -0.024  0.00  0.00    +0.059 S 
ATOM      2  O   UNL     1      -1.181  -4.952  -0.566  0.00  0.00    -0.153 OA
ATOM      3  O   UNL     1       1.309  -4.918  -0.589  0.00  0.00    -0.153 OA
ENDROOT
BRANCH   1   7
ATOM      4  C   UNL     1       0.002  -0.004   0.002  0.00  0.00    +0.123 A 
ATOM      5  C   UNL     1       1.212  -0.683  -0.013  0.00  0.00    +0.048 A 
ATOM      6  C   UNL     1       1.228  -2.064  -0.021  0.00  0.00    +0.032 A 
ATOM      7  C   UNL     1       0.040  -2.770  -0.014  0.00  0.00    +0.106 A 
ATOM      8  C   UNL     1      -1.167  -2.096   0.002  0.00  0.00    +0.035 A 
ATOM      9  C   UNL     1      -1.189  -0.715   0.015  0.00  0.00    -0.007 A 
ATOM     10  C   UNL     1      -2.505   0.019   0.038  0.00  0.00    +0.047 C 
BRANCH   4  11
ATOM     11  O   UNL     1      -0.016   1.355   0.009  0.00  0.00    -0.492 OA
BRANCH  11  12
ATOM     12  C   UNL     1       1.248   2.021   0.001  0.00  0.00    +0.229 C 
BRANCH  12  14
ATOM     13  C   UNL     1       2.381   4.248   0.002  0.00  0.00    +0.007 C 
ATOM     14  C   UNL     1       1.027   3.535   0.011  0.00  0.00    +0.038 C 
ENDBRANCH  12  14
ENDBRANCH  11  12
ENDBRANCH   4  11
ENDBRANCH   1   7
BRANCH   1  15
ATOM     15  N   UNL     1       0.085  -5.031   1.555  0.00  0.00    -0.187 NA
ATOM     16  H   UNL     1       0.856  -5.505   1.903  0.00  0.00    +0.148 HD
BRANCH  15  17
ATOM     17  C   UNL     1      -1.063  -4.755   2.428  0.00  0.00    +0.074 C 
ATOM     18  C   UNL     1      -0.789  -3.487   3.235  0.00  0.00    +0.007 C 
ATOM     19  C   UNL     1      -1.960  -3.187   4.168  0.00  0.00    -0.072 C 
ATOM     20  C   UNL     1      -2.423  -5.650   4.337  0.00  0.00    -0.072 C 
ATOM     21  C   UNL     1      -1.248  -5.920   3.400  0.00  0.00    +0.007 C 
ATOM     22  C   UNL     1      -3.740  -5.857   3.579  0.00  0.00    -0.010 C 
ATOM     23  C   UNL     1      -2.372  -6.707   5.463  0.00  0.00    -0.010 C 
ATOM     24  C   UNL     1      -3.130  -2.621   3.356  0.00  0.00    -0.010 C 
ATOM     25  C   UNL     1      -1.504  -2.081   5.146  0.00  0.00    -0.010 C 
ATOM     26  N   UNL     1      -2.390  -4.329   5.020  0.00  0.00    +0.386 N 
ATOM     27  H   UNL     1      -3.334  -4.127   5.368  0.00  0.00    -0.084 HD
ATOM     28  H   UNL     1      -1.740  -4.397   5.812  0.00  0.00    -0.084 HD
ENDBRANCH  15  17
ENDBRANCH   1  15
TORSDOF 6
