REMARK  Name = ZINC01805306
REMARK  7 active torsions:
REMARK  status: ('A' for Active; 'I' for Inactive)
REMARK    1  A    between atoms: C_3  and  C_6
REMARK    2  A    between atoms: C_8  and  C_29
REMARK    3  A    between atoms: C_10  and  S_12
REMARK    4  A    between atoms: S_12  and  C_13
REMARK    5  A    between atoms: C_13  and  C_14
REMARK    6  A    between atoms: N_16  and  C_17
REMARK    7  A    between atoms: C_18  and  C_26
REMARK                            x       y       z     vdW  Elec       q    Type
REMARK                         _______ _______ _______ _____ _____    ______ ____
ROOT
ATOM      1  C   UNL     1      -2.065   1.840   5.838  0.00  0.00    +0.228 C 
ATOM      2  O   UNL     1      -2.759   2.761   5.463  0.00  0.00    -0.275 OA
ATOM      3  N   UNL     1      -1.288   1.179   4.957  0.00  0.00    -0.279 N 
ATOM      4  H   UNL     1      -0.734   0.442   5.258  0.00  0.00    +0.155 HD
ENDROOT
BRANCH   3   5
ATOM      5  C   UNL     1      -1.282   1.552   3.622  0.00  0.00    +0.084 A 
ATOM      6  C   UNL     1      -0.558   0.999   2.575  0.00  0.00    +0.068 A 
ATOM      7  C   UNL     1      -0.732   1.580   1.257  0.00  0.00    -0.023 A 
ATOM      8  C   UNL     1      -1.601   2.615   1.194  0.00  0.00    -0.004 A 
ATOM      9  S   UNL     1      -2.178   2.821   2.855  0.00  0.00    -0.077 S 
ATOM     10  C   UNL     1      -1.979   3.405  -0.021  0.00  0.00    +0.043 C 
ATOM     11  C   UNL     1      -0.956   3.111  -1.127  0.00  0.00    +0.005 C 
ATOM     12  C   UNL     1      -0.758   1.595  -1.227  0.00  0.00    +0.005 C 
ATOM     13  C   UNL     1      -0.013   1.086   0.008  0.00  0.00    +0.037 C 
BRANCH   6  14
ATOM     14  C   UNL     1       0.351  -0.131   2.793  0.00  0.00    +0.244 C 
ATOM     15  O   UNL     1      -0.061  -1.272   2.693  0.00  0.00    -0.270 OA
ATOM     16  N   UNL     1       1.643   0.094   3.104  0.00  0.00    -0.325 N 
ATOM     17  H   UNL     1       1.971   1.004   3.184  0.00  0.00    +0.145 HD
ATOM     18  H   UNL     1       2.244  -0.653   3.248  0.00  0.00    +0.145 HD
ENDBRANCH   6  14
ENDBRANCH   3   5
BRANCH   1  19
ATOM     19  C   UNL     1      -2.071   1.434   7.290  0.00  0.00    +0.173 C 
BRANCH  19  20
ATOM     20  S   UNL     1      -3.205   2.504   8.210  0.00  0.00    -0.077 S 
BRANCH  20  25
ATOM     21  C   UNL     1      -3.591   1.861  12.062  0.00  0.00    +0.111 A 
ATOM     22  C   UNL     1      -2.726   0.782  12.283  0.00  0.00    +0.064 A 
ATOM     23  C   UNL     1      -2.027   0.268  11.207  0.00  0.00    +0.149 A 
ATOM     24  N   UNL     1      -2.195   0.806  10.008  0.00  0.00    -0.218 NA
ATOM     25  C   UNL     1      -3.021   1.827   9.826  0.00  0.00    +0.190 A 
ATOM     26  N   UNL     1      -3.706   2.355  10.829  0.00  0.00    -0.219 NA
BRANCH  21  29
ATOM     27  C   UNL     1      -5.729   3.712  14.385  0.00  0.00    +0.042 A 
ATOM     28  C   UNL     1      -5.224   3.494  13.090  0.00  0.00    +0.051 A 
ATOM     29  C   UNL     1      -4.360   2.446  13.178  0.00  0.00    +0.153 A 
ATOM     30  O   UNL     1      -4.324   2.039  14.462  0.00  0.00    -0.461 OA
ATOM     31  C   UNL     1      -5.150   2.801  15.194  0.00  0.00    +0.196 A 
ENDBRANCH  21  29
BRANCH  23  32
ATOM     32  C   UNL     1      -1.085  -0.893  11.395  0.00  0.00    +0.434 C 
ATOM     33  F   UNL     1      -0.419  -1.153  10.193  0.00  0.00    -0.164 F 
ATOM     34  F   UNL     1      -0.150  -0.578  12.388  0.00  0.00    -0.164 F 
ATOM     35  F   UNL     1      -1.811  -2.025  11.781  0.00  0.00    -0.164 F 
ENDBRANCH  23  32
ENDBRANCH  20  25
ENDBRANCH  19  20
ENDBRANCH   1  19
TORSDOF 7
