REMARK  Name = ZINC01407894
REMARK  14 active torsions:
REMARK  status: ('A' for Active; 'I' for Inactive)
REMARK    1  A    between atoms: C_1  and  C_2
REMARK    2  A    between atoms: C_4  and  C_42
REMARK    3  A    between atoms: C_6  and  S_8
REMARK    4  A    between atoms: S_8  and  C_9
REMARK    5  A    between atoms: C_9  and  C_10
REMARK    6  A    between atoms: N_12  and  C_13
REMARK    7  A    between atoms: N_12  and  C_21
REMARK    8  A    between atoms: C_13  and  C_14
REMARK    9  A    between atoms: C_21  and  C_23
REMARK   10  A    between atoms: C_21  and  C_30
REMARK   11  A    between atoms: N_32  and  C_33
REMARK   12  A    between atoms: C_36  and  N_39
REMARK   13  A    between atoms: N_39  and  C_40
REMARK   14  A    between atoms: N_39  and  C_41
REMARK                            x       y       z     vdW  Elec       q    Type
REMARK                         _______ _______ _______ _____ _____    ______ ____
ROOT
ATOM      1  C   UNL     1       2.680   1.816   2.238  0.00  0.00    +0.227 C 
ATOM      2  O   UNL     1       2.407   2.974   2.476  0.00  0.00    -0.275 OA
ATOM      3  N   UNL     1       2.253   1.244   1.095  0.00  0.00    -0.285 N 
ENDROOT
BRANCH   1   4
ATOM      4  C   UNL     1       3.497   1.018   3.220  0.00  0.00    +0.173 C 
BRANCH   4   5
ATOM      5  S   UNL     1       4.123   2.115   4.517  0.00  0.00    -0.077 S 
BRANCH   5  11
ATOM      6  C   UNL     1       5.721  -2.663   5.417  0.00  0.00    +0.066 C 
ATOM      7  C   UNL     1       5.699  -1.218   5.842  0.00  0.00    +0.043 A 
ATOM      8  C   UNL     1       6.369  -0.812   6.986  0.00  0.00    +0.046 A 
ATOM      9  C   UNL     1       6.322   0.526   7.342  0.00  0.00    +0.043 A 
ATOM     10  N   UNL     1       5.644   1.373   6.585  0.00  0.00    -0.227 NA
ATOM     11  C   UNL     1       5.014   0.953   5.497  0.00  0.00    +0.189 A 
ATOM     12  N   UNL     1       5.034  -0.321   5.132  0.00  0.00    -0.227 NA
ATOM     13  C   UNL     1       7.037   1.012   8.577  0.00  0.00    +0.066 C 
ENDBRANCH   5  11
ENDBRANCH   4   5
ENDBRANCH   1   4
BRANCH   3  14
ATOM     14  C   UNL     1       2.662  -0.123   0.762  0.00  0.00    +0.143 C 
BRANCH  14  15
ATOM     15  C   UNL     1       1.594  -1.088   1.209  0.00  0.00    -0.030 A 
ATOM     16  C   UNL     1       1.547  -1.505   2.526  0.00  0.00    +0.008 A 
ATOM     17  C   UNL     1       0.565  -2.386   2.938  0.00  0.00    +0.038 A 
ATOM     18  C   UNL     1      -0.364  -2.861   2.028  0.00  0.00    +0.123 A 
ATOM     19  C   UNL     1      -0.312  -2.447   0.707  0.00  0.00    +0.038 A 
ATOM     20  C   UNL     1       0.667  -1.561   0.299  0.00  0.00    +0.008 A 
ATOM     21  F   UNL     1      -1.321  -3.727   2.428  0.00  0.00    -0.205 F 
ENDBRANCH  14  15
ENDBRANCH   3  14
BRANCH   3  22
ATOM     22  C   UNL     1       1.381   1.990   0.184  0.00  0.00    +0.166 C 
BRANCH  22  23
ATOM     23  C   UNL     1       0.055   1.243   0.022  0.00  0.00    +0.023 C 
ATOM     24  C   UNL     1      -0.905   2.076  -0.836  0.00  0.00    +0.010 C 
ATOM     25  C   UNL     1      -2.150   1.228  -1.126  0.00  0.00    +0.027 C 
ATOM     26  C   UNL     1      -2.674   0.623   0.143  0.00  0.00    -0.031 C 
ATOM     27  C   UNL     1      -1.992   0.531   1.239  0.00  0.00    -0.031 C 
ATOM     28  C   UNL     1      -0.583   1.024   1.396  0.00  0.00    +0.032 C 
ENDBRANCH  22  23
BRANCH  22  29
ATOM     29  C   UNL     1       2.051   2.120  -1.159  0.00  0.00    +0.238 C 
ATOM     30  O   UNL     1       2.902   1.323  -1.493  0.00  0.00    -0.273 OA
ATOM     31  N   UNL     1       1.704   3.123  -1.991  0.00  0.00    -0.284 N 
ATOM     32  H   UNL     1       1.075   3.801  -1.697  0.00  0.00    +0.155 HD
BRANCH  31  33
ATOM     33  C   UNL     1       2.253   3.187  -3.279  0.00  0.00    +0.034 A 
ATOM     34  C   UNL     1       2.464   4.419  -3.884  0.00  0.00    +0.025 A 
ATOM     35  C   UNL     1       3.009   4.482  -5.151  0.00  0.00    +0.025 A 
ATOM     36  C   UNL     1       3.336   3.312  -5.825  0.00  0.00    +0.029 A 
ATOM     37  C   UNL     1       3.120   2.080  -5.222  0.00  0.00    +0.025 A 
ATOM     38  C   UNL     1       2.580   2.017  -3.952  0.00  0.00    +0.025 A 
BRANCH  36  39
ATOM     39  N   UNL     1       3.882   3.376  -7.111  0.00  0.00    -0.336 N 
ATOM     40  C   UNL     1       4.227   2.142  -7.822  0.00  0.00    +0.129 C 
ATOM     41  C   UNL     1       4.110   4.676  -7.747  0.00  0.00    +0.129 C 
ENDBRANCH  36  39
ENDBRANCH  31  33
ENDBRANCH  22  29
ENDBRANCH   3  22
TORSDOF 10
