REMARK  Name = ZINC13679776
REMARK  10 active torsions:
REMARK  status: ('A' for Active; 'I' for Inactive)
REMARK    1  A    between atoms: C_1  and  C_2
REMARK    2  A    between atoms: C_2  and  C_3
REMARK    3  A    between atoms: C_3  and  C_5
REMARK    4  A    between atoms: C_3  and  N_6
REMARK    5  A    between atoms: C_7  and  C_9
REMARK    6  A    between atoms: C_14  and  N_15
REMARK    7  A    between atoms: C_16  and  C_18
REMARK    8  A    between atoms: N_21  and  S_29
REMARK    9  A    between atoms: S_29  and  C_32
REMARK   10  A    between atoms: C_32  and  C_33
REMARK                            x       y       z     vdW  Elec       q    Type
REMARK                         _______ _______ _______ _____ _____    ______ ____
ROOT
ATOM      1  C   UNL     1       3.907  -2.198   0.321  0.00  0.00    +0.278 C 
ATOM      2  C   UNL     1       3.558  -2.717  -1.081  0.00  0.00    +0.185 C 
ATOM      3  N   UNL     1       3.718  -4.181  -1.066  0.00  0.00    -0.200 N 
ATOM      4  C   UNL     1       4.836  -4.709  -0.400  0.00  0.00    +0.093 A 
ATOM      5  C   UNL     1       5.196  -6.034  -0.588  0.00  0.00    +0.028 A 
ATOM      6  C   UNL     1       6.296  -6.549   0.072  0.00  0.00    +0.002 A 
ATOM      7  C   UNL     1       7.037  -5.744   0.917  0.00  0.00    +0.004 A 
ATOM      8  C   UNL     1       6.683  -4.421   1.107  0.00  0.00    +0.047 A 
ATOM      9  C   UNL     1       5.582  -3.895   0.449  0.00  0.00    +0.144 A 
ATOM     10  O   UNL     1       5.243  -2.592   0.642  0.00  0.00    -0.476 OA
ENDROOT
BRANCH   1  12
ATOM     11  N   UNL     1       2.610  -0.097   0.162  0.00  0.00    -0.282 N 
ATOM     12  C   UNL     1       3.805  -0.694   0.342  0.00  0.00    +0.260 C 
ATOM     13  O   UNL     1       4.798  -0.022   0.521  0.00  0.00    -0.271 OA
ATOM     14  H   UNL     1       1.805  -0.634   0.095  0.00  0.00    +0.155 HD
BRANCH  11  20
ATOM     15  C   UNL     1       1.423   1.969   0.598  0.00  0.00    +0.058 A 
ATOM     16  C   UNL     1       1.353   3.361   0.495  0.00  0.00    +0.015 A 
ATOM     17  C   UNL     1       2.377   4.057  -0.110  0.00  0.00    +0.001 A 
ATOM     18  C   UNL     1       3.471   3.384  -0.628  0.00  0.00    +0.002 A 
ATOM     19  C   UNL     1       3.551   2.009  -0.540  0.00  0.00    +0.024 A 
ATOM     20  C   UNL     1       2.532   1.290   0.072  0.00  0.00    +0.046 A 
BRANCH  15  22
ATOM     21  N   UNL     1      -0.684   1.879   1.836  0.00  0.00    -0.309 N 
ATOM     22  C   UNL     1       0.333   1.218   1.249  0.00  0.00    +0.246 C 
ATOM     23  O   UNL     1       0.350   0.002   1.252  0.00  0.00    -0.270 OA
ATOM     24  H   UNL     1      -0.698   2.849   1.833  0.00  0.00    +0.149 HD
BRANCH  21  25
ATOM     25  C   UNL     1      -1.769   1.132   2.478  0.00  0.00    +0.070 C 
ATOM     26  C   UNL     1      -1.367   0.778   3.910  0.00  0.00    +0.028 C 
BRANCH  25  28
ATOM     27  C   UNL     1      -3.508   2.242   1.068  0.00  0.00    +0.005 C 
ATOM     28  C   UNL     1      -3.035   1.992   2.501  0.00  0.00    +0.018 C 
ENDBRANCH  25  28
ENDBRANCH  21  25
ENDBRANCH  15  22
ENDBRANCH  11  20
ENDBRANCH   1  12
BRANCH   3  29
ATOM     29  S   UNL     1       2.618  -5.172  -1.808  0.00  0.00    +0.050 S 
ATOM     30  O   UNL     1       2.712  -6.406  -1.109  0.00  0.00    -0.155 OA
ATOM     31  O   UNL     1       1.405  -4.430  -1.808  0.00  0.00    -0.155 OA
BRANCH  29  32
ATOM     32  C   UNL     1       3.233  -5.365  -3.503  0.00  0.00    +0.224 C 
BRANCH  32  33
ATOM     33  C   UNL     1       2.298  -6.257  -4.278  0.00  0.00    -0.025 A 
ATOM     34  C   UNL     1       2.505  -7.624  -4.299  0.00  0.00    +0.005 A 
ATOM     35  C   UNL     1       1.645  -8.443  -5.006  0.00  0.00    +0.000 A 
ATOM     36  C   UNL     1       0.583  -7.894  -5.700  0.00  0.00    +0.000 A 
ATOM     37  C   UNL     1       0.378  -6.527  -5.684  0.00  0.00    +0.000 A 
ATOM     38  C   UNL     1       1.236  -5.709  -4.973  0.00  0.00    +0.005 A 
ENDBRANCH  32  33
ENDBRANCH  29  32
ENDBRANCH   3  29
TORSDOF 8
