REMARK  Name = ZINC12298854
REMARK  11 active torsions:
REMARK  status: ('A' for Active; 'I' for Inactive)
REMARK    1  A    between atoms: C_1  and  C_2
REMARK    2  A    between atoms: N_6  and  C_26
REMARK    3  A    between atoms: C_10  and  C_12
REMARK    4  A    between atoms: C_12  and  C_13
REMARK    5  A    between atoms: C_13  and  C_14
REMARK    6  A    between atoms: C_14  and  N_15
REMARK    7  A    between atoms: C_16  and  C_20
REMARK    8  A    between atoms: C_20  and  N_62
REMARK    9  A    between atoms: C_26  and  C_27
REMARK   10  A    between atoms: C_27  and  C_28
REMARK   11  A    between atoms: C_27  and  C_29
REMARK                            x       y       z     vdW  Elec       q    Type
REMARK                         _______ _______ _______ _____ _____    ______ ____
ROOT
ATOM      1  C   UNL     1       0.444  -1.542  -0.832  0.00  0.00    +0.098 C 
ENDROOT
BRANCH   1  10
ATOM      2  C   UNL     1      -2.956  -4.014  -2.820  0.00  0.00    +0.038 C 
ATOM      3  C   UNL     1      -2.725  -3.654  -1.351  0.00  0.00    +0.159 C 
ATOM      4  C   UNL     1      -2.999  -4.856  -0.494  0.00  0.00    +0.236 C 
ATOM      5  O   UNL     1      -4.149  -5.205  -0.339  0.00  0.00    -0.274 OA
ATOM      6  N   UNL     1      -2.035  -5.555   0.107  0.00  0.00    -0.298 N 
ATOM      7  C   UNL     1      -0.622  -5.203   0.085  0.00  0.00    +0.127 C 
ATOM      8  C   UNL     1      -0.307  -4.296  -1.107  0.00  0.00    +0.127 C 
ATOM      9  N   UNL     1      -1.328  -3.236  -1.160  0.00  0.00    -0.289 N 
ATOM     10  C   UNL     1      -0.996  -1.936  -1.033  0.00  0.00    +0.216 C 
ATOM     11  O   UNL     1      -1.857  -1.083  -1.080  0.00  0.00    -0.276 OA
BRANCH   6  12
ATOM     12  C   UNL     1      -2.425  -6.761   0.841  0.00  0.00    +0.110 C 
BRANCH  12  13
ATOM     13  C   UNL     1      -2.860  -6.379   2.256  0.00  0.00    +0.000 C 
ATOM     14  C   UNL     1      -3.362  -7.624   2.990  0.00  0.00    +0.009 C 
ATOM     15  C   UNL     1      -1.669  -5.787   3.014  0.00  0.00    +0.009 C 
ENDBRANCH  12  13
ENDBRANCH   6  12
ENDBRANCH   1  10
BRANCH   1  16
ATOM     16  C   UNL     1       0.546  -0.019  -0.718  0.00  0.00    +0.033 C 
BRANCH  16  17
ATOM     17  C   UNL     1       2.008   0.381  -0.514  0.00  0.00    +0.147 C 
BRANCH  17  18
ATOM     18  N   UNL     1       2.120   1.841  -0.516  0.00  0.00    -0.231 N 
ATOM     19  C   UNL     1       2.288   2.629  -1.594  0.00  0.00    +0.135 A 
ATOM     20  N   UNL     1       2.336   3.863  -1.155  0.00  0.00    -0.115 NA
ATOM     21  N   UNL     1       2.211   3.834   0.127  0.00  0.00    -0.023 NA
ATOM     22  N   UNL     1       2.081   2.614   0.517  0.00  0.00    -0.044 NA
BRANCH  19  23
ATOM     23  C   UNL     1       2.398   2.180  -3.028  0.00  0.00    +0.001 C 
BRANCH  23  29
ATOM     24  C   UNL     1       4.648   2.999  -3.395  0.00  0.00    -0.050 C 
ATOM     25  C   UNL     1       6.095   2.564  -3.640  0.00  0.00    +0.141 C 
ATOM     26  O   UNL     1       6.155   1.778  -4.834  0.00  0.00    -0.383 OA
ATOM     27  C   UNL     1       5.331   0.610  -4.795  0.00  0.00    +0.141 C 
ATOM     28  C   UNL     1       3.876   1.025  -4.561  0.00  0.00    -0.050 C 
ATOM     29  N   UNL     1       3.799   1.793  -3.301  0.00  0.00    +0.387 N 
ATOM     30  H   UNL     1       4.139   1.205  -2.530  0.00  0.00    -0.081 HD
ENDBRANCH  23  29
ENDBRANCH  19  23
ENDBRANCH  17  18
ENDBRANCH  16  17
ENDBRANCH   1  16
TORSDOF 8
