REMARK  Name = ZINC41036068
REMARK  4 active torsions:
REMARK  status: ('A' for Active; 'I' for Inactive)
REMARK    1  A    between atoms: C_1  and  C_2
REMARK    2  A    between atoms: N_10  and  C_11
REMARK    3  A    between atoms: C_11  and  C_19
REMARK    4  A    between atoms: C_15  and  C_18
REMARK                            x       y       z     vdW  Elec       q    Type
REMARK                         _______ _______ _______ _____ _____    ______ ____
ROOT
ATOM      1  C   UNL     1       3.728   0.571   6.142  0.00  0.00    +0.066 C 
ATOM      2  C   UNL     1       3.550  -0.884   5.789  0.00  0.00    +0.047 A 
ATOM      3  C   UNL     1       4.452  -1.821   6.172  0.00  0.00    +0.071 A 
ATOM      4  S   UNL     1       3.716  -3.293   5.481  0.00  0.00    -0.060 S 
ATOM      5  C   UNL     1       2.361  -2.574   4.790  0.00  0.00    +0.166 A 
ATOM      6  N   UNL     1       2.507  -1.303   5.098  0.00  0.00    -0.230 NA
ATOM      7  N   UNL     1       1.335  -3.176   4.072  0.00  0.00    -0.248 N 
ATOM      8  C   UNL     1       1.353  -4.507   3.858  0.00  0.00    +0.306 C 
ATOM      9  O   UNL     1       2.267  -5.180   4.294  0.00  0.00    -0.252 OA
ATOM     10  N   UNL     1       0.358  -5.091   3.162  0.00  0.00    -0.283 N 
ATOM     11  H   UNL     1       0.606  -2.639   3.724  0.00  0.00    +0.158 HD
ATOM     12  H   UNL     1      -0.371  -4.554   2.814  0.00  0.00    +0.151 HD
ENDROOT
BRANCH  10  13
ATOM     13  C   UNL     1       0.377  -6.538   2.930  0.00  0.00    +0.137 C 
ATOM     14  C   UNL     1      -0.845  -6.938   2.101  0.00  0.00    +0.037 C 
ATOM     15  C   UNL     1      -2.120  -6.560   2.856  0.00  0.00    +0.003 C 
ATOM     16  C   UNL     1      -2.153  -7.292   4.199  0.00  0.00    +0.003 C 
ATOM     17  C   UNL     1      -0.931  -6.892   5.029  0.00  0.00    -0.012 C 
ATOM     18  C   UNL     1       0.344  -7.270   4.273  0.00  0.00    +0.040 C 
ATOM     19  C   UNL     1      -0.952  -5.381   5.271  0.00  0.00    +0.007 C 
BRANCH  13  20
ATOM     20  C   UNL     1       1.633  -6.910   2.186  0.00  0.00    +0.379 C 
ATOM     21  O   UNL     1       2.438  -6.048   1.877  0.00  0.00    -0.244 OA
ATOM     22  O   UNL     1       1.845  -8.074   1.892  0.00  0.00    -0.244 OA
ENDBRANCH  13  20
ENDBRANCH  10  13
TORSDOF 2
