REMARK  Name = ZINC14933670
REMARK  8 active torsions:
REMARK  status: ('A' for Active; 'I' for Inactive)
REMARK    1  A    between atoms: C_4  and  C_7
REMARK    2  A    between atoms: C_7  and  N_8
REMARK    3  A    between atoms: N_8  and  C_9
REMARK    4  A    between atoms: N_8  and  C_15
REMARK    5  A    between atoms: C_9  and  C_10
REMARK    6  A    between atoms: C_15  and  C_16
REMARK    7  A    between atoms: N_21  and  C_22
REMARK    8  A    between atoms: C_22  and  C_23
REMARK                            x       y       z     vdW  Elec       q    Type
REMARK                         _______ _______ _______ _____ _____    ______ ____
ROOT
ATOM      1  N   UNL     1       3.902  -0.716   1.163  0.00  0.00    +0.393 N 
ATOM      2  H   UNL     1       3.727   0.143   1.664  0.00  0.00    -0.080 HD
ENDROOT
BRANCH   1   3
ATOM      3  C   UNL     1       3.686  -0.497  -0.273  0.00  0.00    -0.042 C 
BRANCH   3   7
ATOM      4  C   UNL     1      -0.237   1.072  -0.902  0.00  0.00    +0.000 A 
ATOM      5  C   UNL     1       0.826   1.931  -0.695  0.00  0.00    +0.000 A 
ATOM      6  C   UNL     1       2.095   1.423  -0.491  0.00  0.00    +0.002 A 
ATOM      7  C   UNL     1       2.302   0.056  -0.494  0.00  0.00    -0.064 A 
ATOM      8  C   UNL     1       1.239  -0.803  -0.701  0.00  0.00    +0.002 A 
ATOM      9  C   UNL     1      -0.030  -0.295  -0.906  0.00  0.00    +0.000 A 
ENDBRANCH   3   7
ENDBRANCH   1   3
BRANCH   1  10
ATOM     10  C   UNL     1       2.985  -1.758   1.643  0.00  0.00    -0.002 C 
BRANCH  10  11
ATOM     11  C   UNL     1       3.117  -1.893   3.139  0.00  0.00    +0.089 A 
ATOM     12  C   UNL     1       2.481  -1.141   4.055  0.00  0.00    +0.042 A 
ATOM     13  C   UNL     1       2.894  -1.607   5.325  0.00  0.00    +0.041 A 
ATOM     14  C   UNL     1       3.758  -2.616   5.108  0.00  0.00    +0.195 A 
ATOM     15  O   UNL     1       3.884  -2.788   3.782  0.00  0.00    -0.470 OA
ENDBRANCH  10  11
ENDBRANCH   1  10
BRANCH   1  16
ATOM     16  C   UNL     1       5.290  -1.141   1.391  0.00  0.00    +0.020 C 
BRANCH  16  17
ATOM     17  C   UNL     1       6.224  -0.006   1.057  0.00  0.00    +0.204 C 
ATOM     18  O   UNL     1       5.776   1.083   0.771  0.00  0.00    -0.277 OA
ATOM     19  N   UNL     1       7.557  -0.203   1.077  0.00  0.00    -0.242 N 
ATOM     20  C   UNL     1       8.393   0.811   0.778  0.00  0.00    +0.306 C 
ATOM     21  O   UNL     1       7.944   1.904   0.492  0.00  0.00    -0.252 OA
ATOM     22  N   UNL     1       9.726   0.614   0.798  0.00  0.00    -0.294 N 
ATOM     23  H   UNL     1       7.915  -1.075   1.305  0.00  0.00    +0.159 HD
ATOM     24  H   UNL     1      10.084  -0.258   1.027  0.00  0.00    +0.151 HD
BRANCH  22  25
ATOM     25  C   UNL     1      10.634   1.717   0.474  0.00  0.00    +0.148 C 
BRANCH  25  26
ATOM     26  C   UNL     1      12.060   1.238   0.568  0.00  0.00    +0.007 A 
ATOM     27  C   UNL     1      12.843   0.695  -0.396  0.00  0.00    +0.013 A 
ATOM     28  C   UNL     1      14.136   0.325  -0.079  0.00  0.00    +0.008 A 
ATOM     29  C   UNL     1      14.583   0.516   1.187  0.00  0.00    +0.045 A 
ATOM     30  S   UNL     1      13.158   1.246   1.976  0.00  0.00    -0.100 S 
ENDBRANCH  25  26
ENDBRANCH  22  25
ENDBRANCH  16  17
ENDBRANCH   1  16
TORSDOF 8
