REMARK  Name = ZINC13146009
REMARK  11 active torsions:
REMARK  status: ('A' for Active; 'I' for Inactive)
REMARK    1  A    between atoms: C_1  and  O_2
REMARK    2  A    between atoms: O_2  and  C_3
REMARK    3  A    between atoms: C_6  and  N_9
REMARK    4  A    between atoms: N_12  and  C_15
REMARK    5  A    between atoms: C_15  and  C_16
REMARK    6  A    between atoms: C_16  and  C_18
REMARK    7  A    between atoms: C_16  and  O_35
REMARK    8  A    between atoms: C_18  and  O_19
REMARK    9  A    between atoms: O_19  and  C_20
REMARK   10  A    between atoms: C_20  and  C_21
REMARK   11  A    between atoms: C_20  and  C_28
REMARK                            x       y       z     vdW  Elec       q    Type
REMARK                         _______ _______ _______ _____ _____    ______ ____
ROOT
ATOM      1  C   UNL     1       3.075  -6.511   7.378  0.00  0.00    +0.154 C 
ENDROOT
BRANCH   1   2
ATOM      2  O   UNL     1       1.912  -5.787   7.785  0.00  0.00    -0.388 OA
ATOM      3  H   UNL     1       2.090  -5.082   8.422  0.00  0.00    +0.210 HD
ENDBRANCH   1   2
BRANCH   1   4
ATOM      4  C   UNL     1       4.069  -5.550   6.721  0.00  0.00    +0.118 C 
BRANCH   4   8
ATOM      5  N   UNL     1       3.504  -4.132   2.780  0.00  0.00    -0.391 NA
ATOM      6  C   UNL     1       2.788  -5.349   3.185  0.00  0.00    +0.100 C 
ATOM      7  C   UNL     1       3.471  -5.959   4.410  0.00  0.00    +0.102 C 
ATOM      8  N   UNL     1       3.470  -4.981   5.507  0.00  0.00    -0.297 NA
ATOM      9  C   UNL     1       4.162  -3.747   5.107  0.00  0.00    +0.102 C 
ATOM     10  C   UNL     1       3.473  -3.155   3.876  0.00  0.00    +0.100 C 
ATOM     11  H   UNL     1       4.462  -4.363   2.562  0.00  0.00    +0.126 HD
BRANCH   5  15
ATOM     12  C   UNL     1       1.672  -2.500  -0.586  0.00  0.00    +0.120 A 
ATOM     13  C   UNL     1       3.000  -2.898  -0.642  0.00  0.00    +0.047 A 
ATOM     14  C   UNL     1       3.605  -3.439   0.476  0.00  0.00    +0.025 A 
ATOM     15  C   UNL     1       2.889  -3.584   1.650  0.00  0.00    +0.014 A 
ATOM     16  C   UNL     1       1.565  -3.189   1.708  0.00  0.00    +0.025 A 
ATOM     17  C   UNL     1       0.957  -2.642   0.595  0.00  0.00    +0.047 A 
BRANCH  12  19
ATOM     18  C   UNL     1       1.871  -1.852  -2.864  0.00  0.00    +0.277 C 
ATOM     19  O   UNL     1       1.074  -1.968  -1.684  0.00  0.00    -0.495 OA
ENDBRANCH  12  19
ENDBRANCH   5  15
ENDBRANCH   4   8
ENDBRANCH   1   4
BRANCH   1  20
ATOM     20  C   UNL     1       3.725  -7.161   8.601  0.00  0.00    +0.193 C 
BRANCH  20  21
ATOM     21  O   UNL     1       2.841  -8.142   9.145  0.00  0.00    -0.365 OA
BRANCH  21  22
ATOM     22  C   UNL     1       3.356  -8.813  10.297  0.00  0.00    +0.178 C 
BRANCH  22  23
ATOM     23  C   UNL     1       2.954  -8.059  11.539  0.00  0.00    -0.014 A 
ATOM     24  C   UNL     1       1.685  -7.518  11.637  0.00  0.00    +0.009 A 
ATOM     25  C   UNL     1       1.315  -6.827  12.775  0.00  0.00    +0.039 A 
ATOM     26  C   UNL     1       2.215  -6.677  13.817  0.00  0.00    +0.123 A 
ATOM     27  C   UNL     1       3.485  -7.220  13.717  0.00  0.00    +0.039 A 
ATOM     28  C   UNL     1       3.851  -7.915  12.580  0.00  0.00    +0.009 A 
ATOM     29  F   UNL     1       1.854  -6.001  14.930  0.00  0.00    -0.205 F 
ENDBRANCH  22  23
BRANCH  22  30
ATOM     30  C   UNL     1       2.798 -10.211  10.356  0.00  0.00    -0.014 A 
ATOM     31  C   UNL     1       1.509 -10.460   9.922  0.00  0.00    +0.009 A 
ATOM     32  C   UNL     1       0.996 -11.742   9.974  0.00  0.00    +0.039 A 
ATOM     33  C   UNL     1       1.774 -12.778  10.462  0.00  0.00    +0.123 A 
ATOM     34  C   UNL     1       3.065 -12.529  10.896  0.00  0.00    +0.039 A 
ATOM     35  C   UNL     1       3.577 -11.247  10.838  0.00  0.00    +0.009 A 
ATOM     36  F   UNL     1       1.274 -14.032  10.514  0.00  0.00    -0.205 F 
ENDBRANCH  22  30
ENDBRANCH  21  22
ENDBRANCH  20  21
ENDBRANCH   1  20
TORSDOF 10
