REMARK  Name = ZINC63374004
REMARK  8 active torsions:
REMARK  status: ('A' for Active; 'I' for Inactive)
REMARK    1  A    between atoms: C_1  and  C_2
REMARK    2  A    between atoms: C_2  and  C_3
REMARK    3  A    between atoms: C_2  and  C_4
REMARK    4  A    between atoms: C_4  and  N_5
REMARK    5  A    between atoms: C_11  and  C_27
REMARK    6  A    between atoms: C_23  and  C_26
REMARK    7  A    between atoms: C_32  and  O_33
REMARK    8  A    between atoms: O_33  and  C_34
REMARK                            x       y       z     vdW  Elec       q    Type
REMARK                         _______ _______ _______ _____ _____    ______ ____
ROOT
ATOM      1  N   UNL     1      -1.421  -1.991  -0.108  0.00  0.00    -0.291 N 
ATOM      2  C   UNL     1      -1.455  -2.650  -1.427  0.00  0.00    +0.203 C 
ATOM      3  C   UNL     1      -0.396  -3.732  -1.456  0.00  0.00    +0.234 C 
ATOM      4  O   UNL     1       0.318  -3.896  -2.422  0.00  0.00    -0.274 OA
ATOM      5  N   UNL     1      -0.283  -4.518  -0.335  0.00  0.00    -0.283 N 
ATOM      6  C   UNL     1       0.860  -5.412  -0.266  0.00  0.00    +0.121 C 
ATOM      7  C   UNL     1       0.717  -6.501   0.800  0.00  0.00    +0.068 C 
ATOM      8  C   UNL     1       0.088  -5.835   1.998  0.00  0.00    -0.027 C 
ATOM      9  C   UNL     1       0.490  -5.671   3.250  0.00  0.00    -0.000 A 
ATOM     10  C   UNL     1       1.653  -6.191   3.986  0.00  0.00    +0.010 A 
ATOM     11  C   UNL     1       1.770  -5.793   5.281  0.00  0.00    +0.001 A 
ATOM     12  C   UNL     1       0.859  -4.939   5.909  0.00  0.00    +0.002 A 
ATOM     13  C   UNL     1      -0.245  -4.423   5.311  0.00  0.00    +0.026 A 
ATOM     14  C   UNL     1      -0.484  -4.780   3.953  0.00  0.00    +0.043 A 
ATOM     15  N   UNL     1      -1.465  -4.462   3.159  0.00  0.00    -0.375 N 
ATOM     16  C   UNL     1      -1.270  -5.162   1.890  0.00  0.00    +0.139 C 
ATOM     17  C   UNL     1      -1.298  -4.285   0.678  0.00  0.00    +0.135 C 
ATOM     18  C   UNL     1      -1.364  -2.811   0.984  0.00  0.00    +0.242 C 
ATOM     19  O   UNL     1      -1.371  -2.383   2.119  0.00  0.00    -0.273 OA
ATOM     20  C   UNL     1      -2.629  -4.588  -0.012  0.00  0.00    +0.044 C 
ATOM     21  H   UNL     1      -2.199  -3.864   3.372  0.00  0.00    +0.160 HD
ENDROOT
BRANCH   7  22
ATOM     22  C   UNL     1       2.072  -7.052   1.162  0.00  0.00    +0.003 A 
ATOM     23  C   UNL     1       3.041  -6.217   1.686  0.00  0.00    +0.008 A 
ATOM     24  C   UNL     1       4.284  -6.722   2.018  0.00  0.00    +0.001 A 
ATOM     25  C   UNL     1       4.562  -8.063   1.827  0.00  0.00    +0.004 A 
ATOM     26  C   UNL     1       3.597  -8.902   1.304  0.00  0.00    +0.046 A 
ATOM     27  C   UNL     1       2.347  -8.399   0.975  0.00  0.00    +0.124 A 
BRANCH  27  28
ATOM     28  O   UNL     1       1.394  -9.223   0.466  0.00  0.00    -0.495 OA
ATOM     29  C   UNL     1       1.747 -10.598   0.300  0.00  0.00    +0.277 C 
ENDBRANCH  27  28
ENDBRANCH   7  22
BRANCH   1  30
ATOM     30  C   UNL     1      -1.440  -0.532   0.024  0.00  0.00    +0.111 C 
BRANCH  30  32
ATOM     31  C   UNL     1      -0.028   1.530   0.027  0.00  0.00    +0.009 C 
ATOM     32  C   UNL     1      -0.005   0.000   0.014  0.00  0.00    +0.000 C 
ATOM     33  C   UNL     1       0.737  -0.509   1.252  0.00  0.00    +0.009 C 
ENDBRANCH  30  32
ENDBRANCH   1  30
TORSDOF 4
