REMARK  Name = ZINC18935162
REMARK  12 active torsions:
REMARK  status: ('A' for Active; 'I' for Inactive)
REMARK    1  A    between atoms: C_1  and  C_2
REMARK    2  A    between atoms: C_2  and  O_3
REMARK    3  A    between atoms: O_3  and  C_4
REMARK    4  A    between atoms: C_4  and  C_6
REMARK    5  A    between atoms: C_7  and  C_31
REMARK    6  A    between atoms: C_8  and  C_27
REMARK    7  A    between atoms: C_10  and  N_11
REMARK    8  A    between atoms: C_12  and  C_14
REMARK    9  A    between atoms: C_14  and  N_60
REMARK   10  A    between atoms: C_15  and  N_60
REMARK   11  A    between atoms: C_16  and  N_60
REMARK   12  A    between atoms: N_29  and  C_30
REMARK                            x       y       z     vdW  Elec       q    Type
REMARK                         _______ _______ _______ _____ _____    ______ ____
ROOT
ATOM      1  N   UNL     1      -0.680  -3.142   2.085  0.00  0.00    -0.281 N 
ATOM      2  C   UNL     1      -0.457  -4.443   1.814  0.00  0.00    +0.201 C 
ATOM      3  O   UNL     1      -0.566  -4.853   0.678  0.00  0.00    -0.278 OA
ATOM      4  H   UNL     1      -0.592  -2.814   2.994  0.00  0.00    +0.155 HD
ENDROOT
BRANCH   1   9
ATOM      5  C   UNL     1      -1.303  -0.904   1.147  0.00  0.00    +0.091 A 
ATOM      6  C   UNL     1      -1.641  -0.246  -0.025  0.00  0.00    -0.015 A 
ATOM      7  C   UNL     1      -1.691  -0.983  -1.177  0.00  0.00    +0.079 A 
ATOM      8  S   UNL     1      -1.251  -2.617  -0.616  0.00  0.00    -0.068 S 
ATOM      9  C   UNL     1      -1.033  -2.275   1.069  0.00  0.00    +0.087 A 
ATOM     10  C   UNL     1      -1.948   1.230  -0.031  0.00  0.00    +0.046 C 
BRANCH   7  11
ATOM     11  C   UNL     1      -2.021  -0.540  -2.533  0.00  0.00    +0.251 C 
ATOM     12  O   UNL     1      -2.300   0.626  -2.741  0.00  0.00    -0.270 OA
ATOM     13  N   UNL     1      -2.018  -1.425  -3.550  0.00  0.00    -0.314 N 
ATOM     14  C   UNL     1      -2.348  -0.981  -4.907  0.00  0.00    +0.128 C 
ATOM     15  H   UNL     1      -1.796  -2.354  -3.384  0.00  0.00    +0.149 HD
ENDBRANCH   7  11
BRANCH   5  16
ATOM     16  C   UNL     1      -1.232  -0.189   2.426  0.00  0.00    +0.342 C 
ATOM     17  O   UNL     1      -2.220  -0.103   3.130  0.00  0.00    -0.245 OA
BRANCH  16  18
ATOM     18  O   UNL     1      -0.072   0.374   2.821  0.00  0.00    -0.461 OA
BRANCH  18  20
ATOM     19  C   UNL     1       1.317   1.635   4.373  0.00  0.00    +0.048 C 
ATOM     20  C   UNL     1      -0.076   1.066   4.097  0.00  0.00    +0.229 C 
ENDBRANCH  18  20
ENDBRANCH  16  18
ENDBRANCH   5  16
ENDBRANCH   1   9
BRANCH   2  21
ATOM     21  C   UNL     1      -0.071  -5.388   2.922  0.00  0.00    +0.019 C 
BRANCH  21  23
ATOM     22  C   UNL     1       1.391  -6.843   1.655  0.00  0.00    -0.095 C 
ATOM     23  N   UNL     1       0.093  -6.743   2.353  0.00  0.00    +0.388 N 
ATOM     24  H   UNL     1      -0.663  -6.915   1.679  0.00  0.00    -0.081 HD
BRANCH  23  25
ATOM     25  C   UNL     1       0.018  -7.755   3.428  0.00  0.00    -0.037 C 
ATOM     26  C   UNL     1       1.205  -7.609   4.377  0.00  0.00    -0.010 C 
ATOM     27  C   UNL     1       1.206  -8.804   5.338  0.00  0.00    +0.003 C 
ATOM     28  C   UNL     1       1.580 -10.056   4.548  0.00  0.00    +0.035 C 
ATOM     29  C   UNL     1       0.721 -10.182   3.316  0.00  0.00    -0.046 A 
ATOM     30  C   UNL     1       0.007  -9.124   2.800  0.00  0.00    -0.058 A 
ATOM     31  C   UNL     1      -0.761  -9.305   1.657  0.00  0.00    +0.002 A 
ATOM     32  C   UNL     1      -0.816 -10.536   1.037  0.00  0.00    +0.000 A 
ATOM     33  C   UNL     1      -0.102 -11.599   1.558  0.00  0.00    +0.000 A 
ATOM     34  C   UNL     1       0.663 -11.421   2.692  0.00  0.00    +0.004 A 
ENDBRANCH  23  25
ENDBRANCH  21  23
ENDBRANCH   2  21
TORSDOF 8
