REMARK  Name = ZINC40106620
REMARK  8 active torsions:
REMARK  status: ('A' for Active; 'I' for Inactive)
REMARK    1  A    between atoms: C_1  and  C_2
REMARK    2  A    between atoms: C_2  and  O_3
REMARK    3  A    between atoms: O_3  and  C_4
REMARK    4  A    between atoms: C_4  and  C_6
REMARK    5  A    between atoms: C_9  and  S_11
REMARK    6  A    between atoms: S_11  and  N_14
REMARK    7  A    between atoms: C_20  and  C_22
REMARK    8  A    between atoms: C_22  and  C_23
REMARK                            x       y       z     vdW  Elec       q    Type
REMARK                         _______ _______ _______ _____ _____    ______ ____
ROOT
ATOM      1  N   UNL     1       5.063  -1.877   5.429  0.00  0.00    -0.171 NA
ATOM      2  C   UNL     1       5.975  -3.025   5.524  0.00  0.00    +0.128 C 
ATOM      3  C   UNL     1       6.657  -3.224   4.165  0.00  0.00    +0.125 C 
ATOM      4  N   UNL     1       7.191  -1.931   3.714  0.00  0.00    -0.299 N 
ATOM      5  C   UNL     1       6.279  -0.782   3.619  0.00  0.00    +0.125 C 
ATOM      6  C   UNL     1       5.596  -0.585   4.973  0.00  0.00    +0.128 C 
ATOM      7  C   UNL     1       8.493  -1.801   3.394  0.00  0.00    +0.220 C 
ATOM      8  O   UNL     1       9.236  -2.756   3.477  0.00  0.00    -0.275 OA
ENDROOT
BRANCH   1   9
ATOM      9  S   UNL     1       3.462  -2.036   5.822  0.00  0.00    +0.094 S 
ATOM     10  O   UNL     1       2.997  -0.739   6.165  0.00  0.00    -0.150 OA
ATOM     11  O   UNL     1       3.371  -3.139   6.714  0.00  0.00    -0.150 OA
BRANCH   9  15
ATOM     12  C   UNL     1       1.497  -2.371   2.467  0.00  0.00    +0.214 A 
ATOM     13  C   UNL     1       1.682  -3.699   2.732  0.00  0.00    +0.059 A 
ATOM     14  C   UNL     1       2.393  -3.773   3.939  0.00  0.00    +0.072 A 
ATOM     15  C   UNL     1       2.609  -2.505   4.353  0.00  0.00    +0.259 A 
ATOM     16  O   UNL     1       2.072  -1.663   3.461  0.00  0.00    -0.430 OA
BRANCH  12  17
ATOM     17  C   UNL     1       0.801  -1.814   1.305  0.00  0.00    +0.375 C 
ATOM     18  O   UNL     1       0.321  -2.557   0.470  0.00  0.00    -0.241 OA
BRANCH  17  19
ATOM     19  O   UNL     1       0.693  -0.477   1.160  0.00  0.00    -0.459 OA
BRANCH  19  21
ATOM     20  C   UNL     1      -0.019   1.526   0.010  0.00  0.00    +0.048 C 
ATOM     21  C   UNL     1       0.002  -0.004   0.002  0.00  0.00    +0.229 C 
ENDBRANCH  19  21
ENDBRANCH  17  19
ENDBRANCH  12  17
ENDBRANCH   9  15
ENDBRANCH   1   9
BRANCH   7  22
ATOM     22  C   UNL     1       9.027  -0.469   2.933  0.00  0.00    +0.138 C 
BRANCH  22  23
ATOM     23  C   UNL     1      10.500  -0.591   2.640  0.00  0.00    -0.001 A 
ATOM     24  C   UNL     1      11.115  -0.913   1.476  0.00  0.00    +0.011 A 
ATOM     25  C   UNL     1      12.496  -0.965   1.440  0.00  0.00    +0.008 A 
ATOM     26  C   UNL     1      13.194  -0.694   2.570  0.00  0.00    +0.045 A 
ATOM     27  S   UNL     1      11.888  -0.344   3.736  0.00  0.00    -0.101 S 
ENDBRANCH  22  23
ENDBRANCH   7  22
TORSDOF 7
