REMARK  Name = ZINC58997556
REMARK  9 active torsions:
REMARK  status: ('A' for Active; 'I' for Inactive)
REMARK    1  A    between atoms: C_1  and  C_2
REMARK    2  A    between atoms: C_4  and  N_9
REMARK    3  A    between atoms: C_10  and  C_12
REMARK    4  A    between atoms: C_12  and  S_13
REMARK    5  A    between atoms: S_13  and  C_14
REMARK    6  A    between atoms: N_19  and  N_20
REMARK    7  A    between atoms: C_21  and  C_22
REMARK    8  A    between atoms: C_24  and  N_29
REMARK    9  A    between atoms: C_27  and  O_28
REMARK                            x       y       z     vdW  Elec       q    Type
REMARK                         _______ _______ _______ _____ _____    ______ ____
ROOT
ATOM      1  C   UNL     1       0.537  -7.345  -5.022  0.00  0.00    +0.211 A 
ATOM      2  N   UNL     1       0.657  -8.640  -5.288  0.00  0.00    -0.186 NA
ATOM      3  C   UNL     1       0.723  -8.773  -6.610  0.00  0.00    +0.232 A 
ATOM      4  N   UNL     1       0.639  -7.514  -7.148  0.00  0.00    -0.245 N 
ATOM      5  N   UNL     1       0.522  -6.674  -6.177  0.00  0.00    -0.144 NA
ATOM      6  N   UNL     1       0.849  -9.928  -7.293  0.00  0.00    -0.205 N 
ATOM      7  H   UNL     1       0.888  -9.917  -8.263  0.00  0.00    +0.177 HD
ATOM      8  H   UNL     1       0.659  -7.294  -8.092  0.00  0.00    +0.192 HD
ENDROOT
BRANCH   6   9
ATOM      9  N   UNL     1       0.918 -11.049  -6.658  0.00  0.00    -0.187 NA
ATOM     10  C   UNL     1       1.042 -12.189  -7.333  0.00  0.00    +0.142 C 
BRANCH  10  11
ATOM     11  C   UNL     1       1.117 -13.411  -6.641  0.00  0.00    +0.038 A 
ATOM     12  C   UNL     1       1.256 -14.629  -7.343  0.00  0.00    +0.045 A 
ATOM     13  C   UNL     1       1.327 -15.802  -6.658  0.00  0.00    +0.127 A 
ATOM     14  C   UNL     1       1.266 -15.830  -5.268  0.00  0.00    +0.036 A 
ATOM     15  C   UNL     1       1.131 -14.671  -4.532  0.00  0.00    +0.048 A 
ATOM     16  C   UNL     1       1.060 -13.444  -5.177  0.00  0.00    +0.126 A 
BRANCH  13  17
ATOM     17  N   UNL     1       1.471 -17.072  -7.405  0.00  0.00    +0.056 N 
ATOM     18  O   UNL     1       1.529 -17.059  -8.721  0.00  0.00    -0.126 OA
ATOM     19  O   UNL     1       1.542 -18.214  -6.754  0.00  0.00    -0.126 OA
ENDBRANCH  13  17
BRANCH  16  20
ATOM     20  O   UNL     1       0.933 -12.299  -4.467  0.00  0.00    -0.506 OA
ATOM     21  H   UNL     1       0.016 -12.041  -4.297  0.00  0.00    +0.292 HD
ENDBRANCH  16  20
ENDBRANCH  10  11
ENDBRANCH   6   9
BRANCH   1  22
ATOM     22  S   UNL     1       0.411  -6.631  -3.416  0.00  0.00    -0.075 S 
BRANCH  22  23
ATOM     23  C   UNL     1       0.265  -4.851  -3.737  0.00  0.00    +0.173 C 
BRANCH  23  25
ATOM     24  N   UNL     1       0.028  -2.771  -2.420  0.00  0.00    -0.285 N 
ATOM     25  C   UNL     1       0.148  -4.113  -2.428  0.00  0.00    +0.227 C 
ATOM     26  O   UNL     1       0.162  -4.727  -1.382  0.00  0.00    -0.275 OA
ATOM     27  H   UNL     1      -0.060  -2.287  -3.256  0.00  0.00    +0.155 HD
BRANCH  24  31
ATOM     28  C   UNL     1       1.619  -2.350   2.213  0.00  0.00    +0.045 C 
ATOM     29  C   UNL     1       0.793  -1.849   1.057  0.00  0.00    -0.035 A 
ATOM     30  C   UNL     1       0.792  -2.538  -0.141  0.00  0.00    +0.027 A 
ATOM     31  C   UNL     1       0.030  -2.075  -1.206  0.00  0.00    +0.034 A 
ATOM     32  C   UNL     1      -0.729  -0.921  -1.063  0.00  0.00    +0.024 A 
ATOM     33  C   UNL     1      -0.724  -0.236   0.136  0.00  0.00    +0.017 A 
ATOM     34  C   UNL     1       0.032  -0.703   1.197  0.00  0.00    +0.021 A 
ATOM     35 BR   UNL     1       0.029   0.233   2.841  0.00  0.00    -0.050 Br
ENDBRANCH  24  31
ENDBRANCH  23  25
ENDBRANCH  22  23
ENDBRANCH   1  22
TORSDOF 8
