REMARK  Name = ZINC39359194
REMARK  4 active torsions:
REMARK  status: ('A' for Active; 'I' for Inactive)
REMARK    1  A    between atoms: C_4  and  C_30
REMARK    2  A    between atoms: C_5  and  C_7
REMARK    3  A    between atoms: C_10  and  O_29
REMARK    4  A    between atoms: C_21  and  C_24
REMARK                            x       y       z     vdW  Elec       q    Type
REMARK                         _______ _______ _______ _____ _____    ______ ____
ROOT
ATOM      1  C   UNL     1       1.558  -2.161  -0.143  0.00  0.00    +0.089 C 
ATOM      2  C   UNL     1       1.004  -2.687  -1.433  0.00  0.00    +0.048 C 
ATOM      3  C   UNL     1       1.530  -3.056  -2.580  0.00  0.00    +0.235 C 
ATOM      4  N   UNL     1       0.571  -3.590  -3.386  0.00  0.00    -0.114 NA
ATOM      5  N   UNL     1      -0.569  -3.573  -2.905  0.00  0.00    -0.157 NA
ATOM      6  C   UNL     1      -0.502  -2.912  -1.601  0.00  0.00    +0.245 C 
ATOM      7  N   UNL     1      -0.852  -3.803  -0.492  0.00  0.00    -0.321 N 
ATOM      8  C   UNL     1      -0.325  -3.567   0.753  0.00  0.00    +0.014 C 
ATOM      9  C   UNL     1       0.790  -2.838   0.982  0.00  0.00    +0.023 C 
ATOM     10  C   UNL     1       1.303  -2.668   2.279  0.00  0.00    +0.162 C 
ATOM     11  O   UNL     1       2.306  -2.000   2.437  0.00  0.00    -0.292 OA
ATOM     12  C   UNL     1       0.641  -3.291   3.476  0.00  0.00    +0.088 C 
ATOM     13  C   UNL     1      -0.094  -4.560   3.028  0.00  0.00    +0.039 C 
ATOM     14  C   UNL     1      -1.080  -4.180   1.916  0.00  0.00    +0.060 C 
ATOM     15  H   UNL     1      -1.452  -4.551  -0.636  0.00  0.00    +0.148 HD
ENDROOT
BRANCH   1  20
ATOM     16  C   UNL     1      -0.086   1.233   0.047  0.00  0.00    +0.000 A 
ATOM     17  C   UNL     1       1.008   2.081   0.060  0.00  0.00    +0.001 A 
ATOM     18  C   UNL     1       2.285   1.565   0.008  0.00  0.00    +0.015 A 
ATOM     19  C   UNL     1       2.474   0.182  -0.059  0.00  0.00    +0.067 A 
ATOM     20  C   UNL     1       1.365  -0.668  -0.071  0.00  0.00    -0.021 A 
ATOM     21  C   UNL     1       0.093  -0.137  -0.019  0.00  0.00    +0.005 A 
BRANCH  19  22
ATOM     22  C   UNL     1       3.838  -0.378  -0.116  0.00  0.00    +0.387 C 
ATOM     23  O   UNL     1       4.800   0.366  -0.246  0.00  0.00    -0.241 OA
ATOM     24  O   UNL     1       4.007  -1.587  -0.033  0.00  0.00    -0.241 OA
ENDBRANCH  19  22
ENDBRANCH   1  20
BRANCH  13  25
ATOM     25  C   UNL     1      -0.845  -5.150   4.194  0.00  0.00    -0.006 A 
ATOM     26  C   UNL     1      -0.709  -6.371   4.766  0.00  0.00    +0.011 A 
ATOM     27  C   UNL     1      -1.515  -6.701   5.839  0.00  0.00    +0.008 A 
ATOM     28  C   UNL     1      -2.417  -5.794   6.288  0.00  0.00    +0.045 A 
ATOM     29  S   UNL     1      -2.137  -4.419   5.184  0.00  0.00    -0.101 S 
ENDBRANCH  13  25
BRANCH   3  30
ATOM     30  O   UNL     1       2.841  -2.925  -2.913  0.00  0.00    -0.491 OA
ATOM     31  H   UNL     1       3.056  -3.249  -3.798  0.00  0.00    +0.294 HD
ENDBRANCH   3  30
TORSDOF 4
