REMARK  Name = ZINC38702163
REMARK  12 active torsions:
REMARK  status: ('A' for Active; 'I' for Inactive)
REMARK    1  A    between atoms: C_1  and  C_2
REMARK    2  A    between atoms: C_4  and  C_40
REMARK    3  A    between atoms: C_5  and  O_39
REMARK    4  A    between atoms: C_6  and  C_8
REMARK    5  A    between atoms: N_16  and  C_31
REMARK    6  A    between atoms: C_17  and  C_19
REMARK    7  A    between atoms: C_23  and  O_25
REMARK    8  A    between atoms: O_25  and  C_26
REMARK    9  A    between atoms: C_26  and  C_27
REMARK   10  A    between atoms: C_27  and  C_28
REMARK   11  A    between atoms: C_28  and  C_29
REMARK   12  A    between atoms: C_28  and  C_30
REMARK                            x       y       z     vdW  Elec       q    Type
REMARK                         _______ _______ _______ _____ _____    ______ ____
ROOT
ATOM      1  C   UNL     1       0.049  -2.840   2.467  0.00  0.00    +0.102 A 
ATOM      2  C   UNL     1       0.141  -2.290   3.750  0.00  0.00    +0.035 A 
ATOM      3  C   UNL     1       0.118  -3.362   4.622  0.00  0.00    +0.126 A 
ATOM      4  N   UNL     1       0.017  -4.481   3.845  0.00  0.00    -0.272 N 
ATOM      5  H   UNL     1      -0.021  -5.390   4.180  0.00  0.00    +0.189 HD
ATOM      6  N   UNL     1      -0.026  -4.149   2.604  0.00  0.00    -0.173 NA
ATOM      7  C   UNL     1       0.212  -2.849   5.993  0.00  0.00    +0.266 C 
ATOM      8  O   UNL     1       0.218  -3.541   6.994  0.00  0.00    -0.268 OA
ATOM      9  N   UNL     1       0.291  -1.507   5.988  0.00  0.00    -0.280 N 
ATOM     10  C   UNL     1       0.253  -1.049   4.593  0.00  0.00    +0.142 C 
ENDROOT
BRANCH   1  16
ATOM     11  C   UNL     1      -1.673   0.942  -0.299  0.00  0.00    +0.044 C 
ATOM     12  C   UNL     1      -0.792  -0.271  -0.146  0.00  0.00    -0.049 A 
ATOM     13  C   UNL     1       0.003  -0.683  -1.202  0.00  0.00    +0.010 A 
ATOM     14  C   UNL     1       0.814  -1.794  -1.071  0.00  0.00    -0.008 A 
ATOM     15  C   UNL     1       0.835  -2.502   0.120  0.00  0.00    +0.129 A 
ATOM     16  C   UNL     1       0.034  -2.088   1.188  0.00  0.00    +0.044 A 
ATOM     17  C   UNL     1      -0.776  -0.963   1.048  0.00  0.00    +0.017 A 
ATOM     18  C   UNL     1       1.676  -2.237  -2.225  0.00  0.00    +0.047 C 
BRANCH  15  19
ATOM     19  O   UNL     1       1.631  -3.595   0.250  0.00  0.00    -0.506 OA
ATOM     20  H   UNL     1       2.519  -3.398   0.580  0.00  0.00    +0.292 HD
ENDBRANCH  15  19
ENDBRANCH   1  16
BRANCH   9  21
ATOM     21  C   UNL     1       0.397  -0.648   7.170  0.00  0.00    +0.100 C 
ATOM     22  C   UNL     1       1.652  -1.025   7.975  0.00  0.00    +0.047 C 
ATOM     23  C   UNL     1       1.603  -0.358   9.371  0.00  0.00    +0.168 C 
ATOM     24  S   UNL     1      -0.203  -0.200   9.681  0.00  0.00    -0.029 S 
ATOM     25  O   UNL     1      -0.571  -1.088  10.727  0.00  0.00    -0.174 OA
ATOM     26  O   UNL     1      -0.536   1.177   9.783  0.00  0.00    -0.174 OA
ATOM     27  C   UNL     1      -0.845  -0.857   8.084  0.00  0.00    +0.188 C 
ENDBRANCH   9  21
BRANCH  10  28
ATOM     28  C   UNL     1       1.520  -0.306   4.256  0.00  0.00    -0.019 A 
ATOM     29  C   UNL     1       2.743  -0.801   4.672  0.00  0.00    +0.006 A 
ATOM     30  C   UNL     1       3.907  -0.122   4.365  0.00  0.00    +0.004 A 
ATOM     31  C   UNL     1       3.852   1.054   3.642  0.00  0.00    +0.045 A 
ATOM     32  C   UNL     1       2.627   1.553   3.224  0.00  0.00    +0.121 A 
ATOM     33  C   UNL     1       1.460   0.866   3.528  0.00  0.00    +0.051 A 
BRANCH  32  34
ATOM     34  O   UNL     1       2.570   2.709   2.513  0.00  0.00    -0.492 OA
BRANCH  34  35
ATOM     35  C   UNL     1       3.812   3.360   2.231  0.00  0.00    +0.229 C 
BRANCH  35  36
ATOM     36  C   UNL     1       3.549   4.635   1.428  0.00  0.00    +0.044 C 
BRANCH  36  37
ATOM     37  C   UNL     1       4.877   5.331   1.127  0.00  0.00    -0.014 C 
ATOM     38  C   UNL     1       4.627   6.537   0.220  0.00  0.00    +0.007 C 
ATOM     39  C   UNL     1       5.515   5.801   2.436  0.00  0.00    +0.007 C 
ENDBRANCH  36  37
ENDBRANCH  35  36
ENDBRANCH  34  35
ENDBRANCH  32  34
ENDBRANCH  10  28
TORSDOF 8
