REMARK  Name = ZINC39738345
REMARK  10 active torsions:
REMARK  status: ('A' for Active; 'I' for Inactive)
REMARK    1  A    between atoms: C_1  and  C_2
REMARK    2  A    between atoms: C_2  and  O_3
REMARK    3  A    between atoms: O_3  and  C_4
REMARK    4  A    between atoms: C_4  and  C_6
REMARK    5  A    between atoms: C_7  and  C_19
REMARK    6  A    between atoms: N_9  and  C_12
REMARK    7  A    between atoms: C_10  and  N_11
REMARK    8  A    between atoms: C_21  and  C_37
REMARK    9  A    between atoms: N_23  and  C_30
REMARK   10  A    between atoms: C_33  and  C_36
REMARK                            x       y       z     vdW  Elec       q    Type
REMARK                         _______ _______ _______ _____ _____    ______ ____
ROOT
ATOM      1  C   UNL     1       1.496  -2.371   2.467  0.00  0.00    +0.127 A 
ATOM      2  C   UNL     1       0.903  -2.728   3.761  0.00  0.00    +0.129 A 
ATOM      3  N   UNL     1       1.871  -3.190   4.518  0.00  0.00    -0.162 NA
ATOM      4  N   UNL     1       3.073  -3.160   3.804  0.00  0.00    -0.217 N 
ATOM      5  C   UNL     1       2.853  -2.673   2.564  0.00  0.00    +0.135 A 
ENDROOT
BRANCH   2   6
ATOM      6  C   UNL     1      -0.523  -2.594   4.143  0.00  0.00    +0.119 C 
ATOM      7  C   UNL     1      -0.933  -2.967   5.402  0.00  0.00    +0.036 C 
ATOM      8  C   UNL     1      -0.285  -3.536   6.639  0.00  0.00    +0.130 C 
ATOM      9  N   UNL     1      -1.415  -3.658   7.579  0.00  0.00    -0.217 N 
ATOM     10  N   UNL     1      -2.479  -3.243   6.992  0.00  0.00    -0.174 NA
ATOM     11  C   UNL     1      -2.296  -2.832   5.750  0.00  0.00    +0.154 C 
ATOM     12  C   UNL     1      -3.185  -2.288   4.710  0.00  0.00    +0.305 C 
ATOM     13  O   UNL     1      -4.378  -2.136   4.921  0.00  0.00    -0.265 OA
ATOM     14  N   UNL     1      -2.649  -1.964   3.521  0.00  0.00    -0.074 NA
ATOM     15  N   UNL     1      -1.401  -2.105   3.266  0.00  0.00    -0.154 NA
ATOM     16  C   UNL     1       0.330  -4.905   6.346  0.00  0.00    +0.035 C 
BRANCH   9  17
ATOM     17  C   UNL     1      -1.340  -4.141   8.883  0.00  0.00    +0.052 A 
ATOM     18  C   UNL     1      -0.119  -4.556   9.404  0.00  0.00    +0.025 A 
ATOM     19  C   UNL     1      -0.050  -5.033  10.698  0.00  0.00    +0.005 A 
ATOM     20  C   UNL     1      -1.192  -5.100  11.475  0.00  0.00    -0.050 A 
ATOM     21  C   UNL     1      -2.408  -4.689  10.960  0.00  0.00    +0.005 A 
ATOM     22  C   UNL     1      -2.486  -4.205   9.670  0.00  0.00    +0.025 A 
ATOM     23  C   UNL     1      -1.111  -5.622  12.886  0.00  0.00    +0.044 C 
ENDBRANCH   9  17
ENDBRANCH   2   6
BRANCH   4  24
ATOM     24  C   UNL     1       4.315  -3.579   4.299  0.00  0.00    +0.068 A 
ATOM     25  C   UNL     1       5.232  -4.186   3.451  0.00  0.00    +0.029 A 
ATOM     26  C   UNL     1       6.456  -4.597   3.940  0.00  0.00    +0.022 A 
ATOM     27  C   UNL     1       6.769  -4.404   5.275  0.00  0.00    +0.041 A 
ATOM     28  C   UNL     1       5.857  -3.800   6.122  0.00  0.00    +0.022 A 
ATOM     29  C   UNL     1       4.634  -3.382   5.636  0.00  0.00    +0.029 A 
ATOM     30 CL   UNL     1       8.309  -4.922   5.887  0.00  0.00    -0.084 Cl
ENDBRANCH   4  24
BRANCH   5  31
ATOM     31  N   UNL     1       3.799  -2.503   1.576  0.00  0.00    -0.342 N 
ATOM     32  H   UNL     1       3.541  -2.141   0.714  0.00  0.00    +0.144 HD
ATOM     33  H   UNL     1       4.724  -2.745   1.742  0.00  0.00    +0.144 HD
ENDBRANCH   5  31
BRANCH   1  34
ATOM     34  C   UNL     1       0.801  -1.814   1.305  0.00  0.00    +0.345 C 
ATOM     35  O   UNL     1       0.321  -2.557   0.470  0.00  0.00    -0.245 OA
BRANCH  34  36
ATOM     36  O   UNL     1       0.693  -0.477   1.160  0.00  0.00    -0.461 OA
BRANCH  36  38
ATOM     37  C   UNL     1      -0.019   1.526   0.010  0.00  0.00    +0.048 C 
ATOM     38  C   UNL     1       0.002  -0.004   0.002  0.00  0.00    +0.229 C 
ENDBRANCH  36  38
ENDBRANCH  34  36
ENDBRANCH   1  34
TORSDOF 7
