REMARK  Name = ZINC36029144
REMARK  10 active torsions:
REMARK  status: ('A' for Active; 'I' for Inactive)
REMARK    1  A    between atoms: C_1  and  C_2
REMARK    2  A    between atoms: C_2  and  C_3
REMARK    3  A    between atoms: C_3  and  C_5
REMARK    4  A    between atoms: C_3  and  C_6
REMARK    5  A    between atoms: N_10  and  C_24
REMARK    6  A    between atoms: N_15  and  S_18
REMARK    7  A    between atoms: S_18  and  C_21
REMARK    8  A    between atoms: C_21  and  C_22
REMARK    9  A    between atoms: C_21  and  C_23
REMARK   10  A    between atoms: C_24  and  C_25
REMARK                            x       y       z     vdW  Elec       q    Type
REMARK                         _______ _______ _______ _____ _____    ______ ____
ROOT
ATOM      1  C   UNL     1      -2.242  -3.016   0.712  0.00  0.00    +0.022 C 
ATOM      2  C   UNL     1      -1.164  -3.411  -0.274  0.00  0.00    +0.201 C 
ATOM      3  O   UNL     1       0.010  -3.115  -0.197  0.00  0.00    -0.277 OA
ATOM      4  N   UNL     1      -1.728  -4.147  -1.253  0.00  0.00    -0.309 N 
ATOM      5  C   UNL     1      -3.163  -4.291  -0.991  0.00  0.00    +0.006 C 
ATOM      6  N   UNL     1      -3.518  -3.245  -0.007  0.00  0.00    +0.401 N 
ATOM      7  C   UNL     1      -3.457  -5.670  -0.403  0.00  0.00    +0.023 C 
ATOM      8  C   UNL     1      -3.049  -6.749  -1.412  0.00  0.00    +0.109 C 
ATOM      9  N   UNL     1      -3.716  -6.475  -2.692  0.00  0.00    -0.181 NA
ATOM     10  C   UNL     1      -3.556  -5.148  -3.303  0.00  0.00    +0.109 C 
ATOM     11  C   UNL     1      -3.959  -4.082  -2.278  0.00  0.00    +0.023 C 
ATOM     12  H   UNL     1      -4.230  -3.576   0.627  0.00  0.00    -0.082 HD
ATOM     13  H   UNL     1      -3.819  -2.403  -0.475  0.00  0.00    -0.082 HD
ENDROOT
BRANCH   9  14
ATOM     14  S   UNL     1      -4.630  -7.640  -3.434  0.00  0.00    +0.034 S 
ATOM     15  O   UNL     1      -5.021  -8.515  -2.385  0.00  0.00    -0.158 OA
ATOM     16  O   UNL     1      -5.603  -6.919  -4.176  0.00  0.00    -0.158 OA
BRANCH  14  17
ATOM     17  C   UNL     1      -3.485  -8.485  -4.559  0.00  0.00    +0.142 C 
ATOM     18  C   UNL     1      -2.268  -8.977  -3.773  0.00  0.00    +0.033 C 
ATOM     19  C   UNL     1      -4.192  -9.678  -5.204  0.00  0.00    +0.033 C 
ENDBRANCH  14  17
ENDBRANCH   9  14
BRANCH   1  20
ATOM     20  C   UNL     1      -2.101  -1.540   1.093  0.00  0.00    -0.020 C 
ATOM     21  C   UNL     1      -3.243  -1.145   2.031  0.00  0.00    +0.006 C 
BRANCH  20  23
ATOM     22  C   UNL     1      -0.566   0.173   2.067  0.00  0.00    +0.004 C 
ATOM     23  C   UNL     1      -0.762  -1.321   1.798  0.00  0.00    -0.001 C 
ENDBRANCH  20  23
ENDBRANCH   1  20
BRANCH   4  24
ATOM     24  C   UNL     1      -1.017  -4.714  -2.401  0.00  0.00    +0.141 C 
BRANCH  24  25
ATOM     25  C   UNL     1      -0.774  -3.635  -3.425  0.00  0.00    -0.026 A 
ATOM     26  C   UNL     1      -1.832  -3.123  -4.153  0.00  0.00    +0.009 A 
ATOM     27  C   UNL     1      -1.614  -2.133  -5.092  0.00  0.00    +0.050 A 
ATOM     28  C   UNL     1      -0.333  -1.652  -5.308  0.00  0.00    +0.166 A 
ATOM     29  C   UNL     1       0.733  -2.167  -4.575  0.00  0.00    +0.167 A 
ATOM     30  C   UNL     1       0.506  -3.156  -3.631  0.00  0.00    +0.054 A 
ATOM     31  O   UNL     1       1.878  -1.536  -4.967  0.00  0.00    -0.453 OA
ATOM     32  C   UNL     1       1.564  -0.921  -6.231  0.00  0.00    +0.466 C 
ATOM     33  O   UNL     1       0.144  -0.697  -6.159  0.00  0.00    -0.453 OA
ENDBRANCH  24  25
ENDBRANCH   4  24
TORSDOF 6
