REMARK  Name = ZINC16956698
REMARK  7 active torsions:
REMARK  status: ('A' for Active; 'I' for Inactive)
REMARK    1  A    between atoms: C_1  and  C_2
REMARK    2  A    between atoms: C_2  and  O_3
REMARK    3  A    between atoms: O_3  and  C_4
REMARK    4  A    between atoms: C_4  and  C_6
REMARK    5  A    between atoms: C_7  and  C_22
REMARK    6  A    between atoms: C_10  and  N_11
REMARK    7  A    between atoms: N_11  and  C_12
REMARK                            x       y       z     vdW  Elec       q    Type
REMARK                         _______ _______ _______ _____ _____    ______ ____
ROOT
ATOM      1  C   UNL     1       1.460  -2.209  -2.553  0.00  0.00    +0.095 A 
ATOM      2  C   UNL     1       2.910  -2.231  -2.633  0.00  0.00    +0.012 A 
ATOM      3  C   UNL     1       3.421  -2.502  -3.865  0.00  0.00    +0.057 A 
ATOM      4  S   UNL     1       1.970  -2.719  -4.871  0.00  0.00    -0.081 S 
ATOM      5  C   UNL     1       0.770  -2.471  -3.727  0.00  0.00    +0.084 A 
ENDROOT
BRANCH   2   6
ATOM      6  C   UNL     1       3.770  -1.975  -1.459  0.00  0.00    +0.021 A 
ATOM      7  C   UNL     1       4.830  -2.705  -0.991  0.00  0.00    +0.016 A 
ATOM      8  C   UNL     1       5.490  -2.265   0.137  0.00  0.00    +0.008 A 
ATOM      9  C   UNL     1       5.072  -1.127   0.746  0.00  0.00    +0.046 A 
ATOM     10  S   UNL     1       3.704  -0.630  -0.287  0.00  0.00    -0.097 S 
ENDBRANCH   2   6
BRANCH   1  11
ATOM     11  C   UNL     1       0.763  -1.932  -1.297  0.00  0.00    +0.342 C 
ATOM     12  O   UNL     1       0.475  -2.846  -0.546  0.00  0.00    -0.245 OA
BRANCH  11  13
ATOM     13  O   UNL     1       0.440  -0.664  -0.970  0.00  0.00    -0.461 OA
BRANCH  13  15
ATOM     14  C   UNL     1      -0.520   1.025   0.468  0.00  0.00    +0.048 C 
ATOM     15  C   UNL     1      -0.239  -0.467   0.271  0.00  0.00    +0.229 C 
ENDBRANCH  13  15
ENDBRANCH  11  13
ENDBRANCH   1  11
BRANCH   5  16
ATOM     16  N   UNL     1      -0.601  -2.515  -3.913  0.00  0.00    -0.314 N 
ATOM     17  H   UNL     1      -1.197  -2.351  -3.166  0.00  0.00    +0.152 HD
BRANCH  16  18
ATOM     18  C   UNL     1      -1.108  -2.787  -5.135  0.00  0.00    +0.090 C 
ATOM     19  C   UNL     1      -2.472  -2.718  -5.348  0.00  0.00    +0.113 C 
ATOM     20  C   UNL     1      -3.385  -2.181  -4.323  0.00  0.00    +0.256 C 
ATOM     21  O   UNL     1      -2.959  -1.782  -3.255  0.00  0.00    -0.270 OA
ATOM     22  N   UNL     1      -4.704  -2.144  -4.600  0.00  0.00    -0.263 N 
ATOM     23  C   UNL     1      -5.186  -2.580  -5.772  0.00  0.00    +0.143 C 
ATOM     24  S   UNL     1      -6.876  -2.495  -6.036  0.00  0.00    -0.018 S 
ATOM     25  N   UNL     1      -4.416  -3.080  -6.749  0.00  0.00    -0.263 N 
ATOM     26  C   UNL     1      -3.077  -3.172  -6.614  0.00  0.00    +0.256 C 
ATOM     27  O   UNL     1      -2.388  -3.623  -7.510  0.00  0.00    -0.270 OA
ATOM     28  H   UNL     1      -5.318  -1.793  -3.936  0.00  0.00    +0.157 HD
ATOM     29  H   UNL     1      -4.830  -3.378  -7.574  0.00  0.00    +0.157 HD
ENDBRANCH  16  18
ENDBRANCH   5  16
TORSDOF 6
