REMARK  Name = ZINC14273309
REMARK  8 active torsions:
REMARK  status: ('A' for Active; 'I' for Inactive)
REMARK    1  A    between atoms: C_1  and  C_2
REMARK    2  A    between atoms: C_2  and  C_3
REMARK    3  A    between atoms: C_2  and  C_4
REMARK    4  A    between atoms: C_2  and  C_5
REMARK    5  A    between atoms: C_12  and  N_17
REMARK    6  A    between atoms: C_13  and  C_14
REMARK    7  A    between atoms: C_18  and  C_20
REMARK    8  A    between atoms: C_23  and  C_25
REMARK                            x       y       z     vdW  Elec       q    Type
REMARK                         _______ _______ _______ _____ _____    ______ ____
ROOT
ATOM      1  C   UNL     1       4.333  10.972   0.393  0.00  0.00    -0.000 C 
ATOM      2  C   UNL     1       3.117  11.406  -0.430  0.00  0.00    +0.009 C 
ATOM      3  C   UNL     1       1.875  10.643   0.034  0.00  0.00    +0.037 C 
ATOM      4  C   UNL     1       2.185   9.151   0.024  0.00  0.00    -0.023 A 
ATOM      5  C   UNL     1       3.460   8.705   0.010  0.00  0.00    -0.004 A 
ATOM      6  S   UNL     1       3.322   6.940   0.003  0.00  0.00    -0.077 S 
ATOM      7  C   UNL     1       1.595   6.794   0.020  0.00  0.00    +0.085 A 
ATOM      8  C   UNL     1       1.167   8.114   0.024  0.00  0.00    +0.068 A 
ATOM      9  C   UNL     1       4.707   9.534   0.003  0.00  0.00    +0.046 C 
ENDROOT
BRANCH   8  10
ATOM     10  C   UNL     1      -0.260   8.450   0.033  0.00  0.00    +0.244 C 
ATOM     11  O   UNL     1      -0.847   8.588   1.091  0.00  0.00    -0.270 OA
ATOM     12  N   UNL     1      -0.923   8.606  -1.130  0.00  0.00    -0.325 N 
ATOM     13  H   UNL     1      -0.456   8.496  -1.973  0.00  0.00    +0.145 HD
ATOM     14  H   UNL     1      -1.867   8.828  -1.124  0.00  0.00    +0.145 HD
ENDBRANCH   8  10
BRANCH   1  16
ATOM     15  C   UNL     1       5.129  13.339   0.473  0.00  0.00    +0.011 C 
ATOM     16  C   UNL     1       5.510  11.905   0.100  0.00  0.00    -0.035 C 
ATOM     17  C   UNL     1       6.724  11.469   0.923  0.00  0.00    +0.011 C 
ATOM     18  C   UNL     1       5.854  11.839  -1.389  0.00  0.00    +0.011 C 
ENDBRANCH   1  16
BRANCH   7  19
ATOM     19  N   UNL     1       0.830   5.640   0.022  0.00  0.00    -0.273 N 
ATOM     20  C   UNL     1       1.429   4.433   0.010  0.00  0.00    +0.284 C 
ATOM     21  O   UNL     1       2.644   4.357  -0.002  0.00  0.00    -0.266 OA
ATOM     22  H   UNL     1      -0.139   5.701   0.032  0.00  0.00    +0.156 HD
BRANCH  20  23
ATOM     23  C   UNL     1       0.619   3.213   0.013  0.00  0.00    +0.190 A 
ATOM     24  C   UNL     1       1.101   1.922   0.002  0.00  0.00    +0.055 A 
ATOM     25  C   UNL     1      -0.013   1.076   0.008  0.00  0.00    +0.050 A 
ATOM     26  C   UNL     1      -1.122   1.872   0.017  0.00  0.00    +0.136 A 
ATOM     27  O   UNL     1      -0.730   3.157   0.025  0.00  0.00    -0.450 OA
BRANCH  26  28
ATOM     28  C   UNL     1      -2.521   1.399   0.021  0.00  0.00    +0.017 A 
ATOM     29  C   UNL     1      -2.799   0.031   0.009  0.00  0.00    +0.013 A 
ATOM     30  C   UNL     1      -4.107  -0.405   0.019  0.00  0.00    +0.021 A 
ATOM     31  C   UNL     1      -5.145   0.512   0.028  0.00  0.00    +0.041 A 
ATOM     32  C   UNL     1      -4.876   1.871   0.034  0.00  0.00    +0.021 A 
ATOM     33  C   UNL     1      -3.572   2.319   0.030  0.00  0.00    +0.013 A 
ATOM     34 CL   UNL     1      -6.790  -0.043   0.032  0.00  0.00    -0.084 Cl
ENDBRANCH  26  28
ENDBRANCH  20  23
ENDBRANCH   7  19
TORSDOF 5
