REMARK  Name = ZINC35746421
REMARK  11 active torsions:
REMARK  status: ('A' for Active; 'I' for Inactive)
REMARK    1  A    between atoms: C_1  and  C_2
REMARK    2  A    between atoms: C_5  and  C_9
REMARK    3  A    between atoms: C_6  and  C_8
REMARK    4  A    between atoms: C_18  and  C_20
REMARK    5  A    between atoms: C_20  and  N_21
REMARK    6  A    between atoms: N_21  and  C_22
REMARK    7  A    between atoms: N_21  and  C_28
REMARK    8  A    between atoms: C_22  and  C_23
REMARK    9  A    between atoms: C_23  and  C_24
REMARK   10  A    between atoms: C_23  and  C_25
REMARK   11  A    between atoms: C_23  and  O_27
REMARK                            x       y       z     vdW  Elec       q    Type
REMARK                         _______ _______ _______ _____ _____    ______ ____
ROOT
ATOM      1  C   UNL     1       0.757  -5.909  -1.689  0.00  0.00    +0.004 A 
ATOM      2  C   UNL     1       1.417  -6.776  -2.494  0.00  0.00    +0.056 A 
ATOM      3  S   UNL     1       0.625  -8.337  -2.155  0.00  0.00    -0.076 S 
ATOM      4  C   UNL     1      -0.562  -7.794  -0.954  0.00  0.00    +0.116 A 
ATOM      5  C   UNL     1      -0.312  -6.417  -0.838  0.00  0.00    +0.080 A 
ATOM      6  C   UNL     1      -1.143  -5.712   0.090  0.00  0.00    +0.260 A 
ATOM      7  O   UNL     1      -1.006  -4.512   0.256  0.00  0.00    -0.267 OA
ATOM      8  N   UNL     1      -2.079  -6.394   0.776  0.00  0.00    -0.312 N 
ATOM      9  H   UNL     1      -2.645  -5.921   1.407  0.00  0.00    +0.170 HD
ATOM     10  C   UNL     1      -2.246  -7.730   0.603  0.00  0.00    +0.094 A 
ATOM     11  N   UNL     1      -1.510  -8.399  -0.244  0.00  0.00    -0.229 NA
ENDROOT
BRANCH   1  16
ATOM     12  C   UNL     1       2.163  -0.326  -1.614  0.00  0.00    +0.044 C 
ATOM     13  C   UNL     1       1.796  -1.787  -1.634  0.00  0.00    -0.050 A 
ATOM     14  C   UNL     1       1.265  -2.349  -2.782  0.00  0.00    +0.004 A 
ATOM     15  C   UNL     1       0.927  -3.686  -2.806  0.00  0.00    +0.009 A 
ATOM     16  C   UNL     1       1.119  -4.471  -1.670  0.00  0.00    -0.014 A 
ATOM     17  C   UNL     1       1.654  -3.900  -0.516  0.00  0.00    -0.042 A 
ATOM     18  C   UNL     1       1.994  -2.562  -0.506  0.00  0.00    +0.007 A 
ATOM     19  C   UNL     1       1.865  -4.742   0.715  0.00  0.00    +0.044 C 
ENDBRANCH   1  16
BRANCH  10  20
ATOM     20  C   UNL     1      -3.307  -8.452   1.393  0.00  0.00    -0.003 C 
BRANCH  20  21
ATOM     21  N   UNL     1      -3.298  -9.877   1.038  0.00  0.00    +0.388 N 
ATOM     22  H   UNL     1      -3.360  -9.974   0.035  0.00  0.00    -0.081 HD
BRANCH  21  23
ATOM     23  C   UNL     1      -2.051 -10.492   1.513  0.00  0.00    -0.068 C 
ATOM     24  C   UNL     1      -1.103 -11.070   0.460  0.00  0.00    -0.017 C 
ATOM     25  C   UNL     1      -1.909 -12.008   1.362  0.00  0.00    -0.017 C 
ENDBRANCH  21  23
BRANCH  21  26
ATOM     26  C   UNL     1      -4.444 -10.546   1.667  0.00  0.00    -0.039 C 
BRANCH  26  27
ATOM     27  C   UNL     1      -4.484 -10.199   3.156  0.00  0.00    +0.067 C 
ATOM     28  C   UNL     1      -3.128 -10.517   3.790  0.00  0.00    +0.044 C 
BRANCH  27  29
ATOM     29  C   UNL     1      -5.557 -11.011   3.834  0.00  0.00    -0.003 C 
ATOM     30  C   UNL     1      -6.549 -10.408   4.441  0.00  0.00    +0.006 C 
ENDBRANCH  27  29
BRANCH  27  31
ATOM     31  O   UNL     1      -4.768  -8.807   3.314  0.00  0.00    -0.387 OA
ATOM     32  H   UNL     1      -5.615  -8.534   2.935  0.00  0.00    +0.210 HD
ENDBRANCH  27  31
ENDBRANCH  26  27
ENDBRANCH  21  26
ENDBRANCH  20  21
ENDBRANCH  10  20
TORSDOF 8
