REMARK  Name = ZINC63686440
REMARK  5 active torsions:
REMARK  status: ('A' for Active; 'I' for Inactive)
REMARK    1  A    between atoms: C_1  and  C_2
REMARK    2  A    between atoms: C_6  and  C_8
REMARK    3  A    between atoms: C_11  and  S_15
REMARK    4  A    between atoms: S_15  and  C_16
REMARK    5  A    between atoms: C_16  and  C_17
REMARK                            x       y       z     vdW  Elec       q    Type
REMARK                         _______ _______ _______ _____ _____    ______ ____
ROOT
ATOM      1  S   UNL     1      -2.972  -5.003   3.469  0.00  0.00    -0.111 S 
ENDROOT
BRANCH   1   4
ATOM      2  C   UNL     1       0.054  -2.845   2.489  0.00  0.00    +0.198 C 
ATOM      3  N   UNL     1      -0.659  -4.138   2.340  0.00  0.00    -0.261 NA
ATOM      4  C   UNL     1      -1.329  -4.257   3.659  0.00  0.00    +0.254 C 
ATOM      5  N   UNL     1      -1.445  -2.876   4.145  0.00  0.00    -0.184 NA
ATOM      6  N   UNL     1      -0.700  -2.115   3.517  0.00  0.00    -0.290 N 
ATOM      7  H   UNL     1      -1.336  -4.095   1.593  0.00  0.00    +0.127 HD
ATOM      8  H   UNL     1      -0.622  -1.162   3.680  0.00  0.00    +0.184 HD
BRANCH   2  14
ATOM      9  C   UNL     1      -0.018   1.503   0.010  0.00  0.00    +0.044 C 
ATOM     10  C   UNL     1       0.002  -0.004   0.002  0.00  0.00    -0.050 A 
ATOM     11  C   UNL     1       0.006  -0.689  -1.199  0.00  0.00    +0.003 A 
ATOM     12  C   UNL     1       0.025  -2.071  -1.207  0.00  0.00    +0.001 A 
ATOM     13  C   UNL     1       0.040  -2.768  -0.013  0.00  0.00    +0.007 A 
ATOM     14  C   UNL     1       0.037  -2.084   1.188  0.00  0.00    -0.009 A 
ATOM     15  C   UNL     1       0.023  -0.702   1.195  0.00  0.00    +0.010 A 
ENDBRANCH   2  14
ENDBRANCH   1   4
BRANCH   1  16
ATOM     16  C   UNL     1      -3.849  -3.857   2.370  0.00  0.00    +0.125 C 
BRANCH  16  17
ATOM     17  C   UNL     1      -5.247  -4.366   2.126  0.00  0.00    +0.030 A 
ATOM     18  N   UNL     1      -5.420  -5.421   1.294  0.00  0.00    -0.356 N 
ATOM     19  C   UNL     1      -6.671  -5.933   1.029  0.00  0.00    +0.069 A 
ATOM     20  C   UNL     1      -7.800  -5.354   1.634  0.00  0.00    +0.046 A 
ATOM     21  C   UNL     1      -9.072  -5.863   1.373  0.00  0.00    +0.014 A 
ATOM     22  C   UNL     1      -9.214  -6.928   0.527  0.00  0.00    +0.002 A 
ATOM     23  C   UNL     1      -8.105  -7.506  -0.073  0.00  0.00    +0.022 A 
ATOM     24  C   UNL     1      -6.838  -7.018   0.171  0.00  0.00    +0.065 A 
ATOM     25 CL   UNL     1      -5.460  -7.750  -0.588  0.00  0.00    -0.081 Cl
ATOM     26  C   UNL     1      -7.601  -4.207   2.538  0.00  0.00    +0.190 A 
ATOM     27  O   UNL     1      -8.546  -3.667   3.089  0.00  0.00    -0.287 OA
ATOM     28  C   UNL     1      -6.277  -3.757   2.750  0.00  0.00    +0.073 A 
ATOM     29  H   UNL     1      -4.645  -5.825   0.874  0.00  0.00    +0.166 HD
ENDBRANCH  16  17
ENDBRANCH   1  16
TORSDOF 4
