REMARK  Name = ZINC63694430
REMARK  6 active torsions:
REMARK  status: ('A' for Active; 'I' for Inactive)
REMARK    1  A    between atoms: C_1  and  C_2
REMARK    2  A    between atoms: C_11  and  C_15
REMARK    3  A    between atoms: C_15  and  C_16
REMARK    4  A    between atoms: N_18  and  C_19
REMARK    5  A    between atoms: C_19  and  C_20
REMARK    6  A    between atoms: C_20  and  C_21
REMARK                            x       y       z     vdW  Elec       q    Type
REMARK                         _______ _______ _______ _____ _____    ______ ____
ROOT
ATOM      1  C   UNL     1       3.351  -0.363   2.929  0.00  0.00    +0.215 C 
ATOM      2  O   UNL     1       2.290   0.222   2.967  0.00  0.00    -0.276 OA
ATOM      3  N   UNL     1       4.500   0.311   3.132  0.00  0.00    -0.315 N 
ATOM      4  H   UNL     1       5.349  -0.157   3.101  0.00  0.00    +0.149 HD
ENDROOT
BRANCH   1   5
ATOM      5  C   UNL     1       3.386  -1.844   2.652  0.00  0.00    +0.119 C 
BRANCH   5  14
ATOM      6  C   UNL     1       2.291  -6.018  -0.711  0.00  0.00    +0.018 C 
ATOM      7  C   UNL     1       1.600  -5.649   0.604  0.00  0.00    +0.086 C 
ATOM      8  C   UNL     1       2.155  -6.519   1.733  0.00  0.00    +0.096 C 
ATOM      9  N   UNL     1       1.646  -6.035   3.021  0.00  0.00    -0.289 NA
ATOM     10  C   UNL     1       2.164  -4.711   3.346  0.00  0.00    +0.204 C 
ATOM     11  N   UNL     1       2.004  -3.792   2.192  0.00  0.00    -0.272 N 
ATOM     12  C   UNL     1       1.856  -4.198   0.915  0.00  0.00    +0.222 C 
ATOM     13  O   UNL     1       1.941  -3.393   0.012  0.00  0.00    -0.275 OA
ATOM     14  C   UNL     1       1.956  -2.388   2.607  0.00  0.00    +0.097 C 
ATOM     15  C   UNL     1       1.305  -2.164   3.990  0.00  0.00    +0.095 C 
ATOM     16  S   UNL     1       1.049  -3.905   4.575  0.00  0.00    -0.121 S 
ATOM     17  H   UNL     1       0.637  -6.043   3.037  0.00  0.00    +0.124 HD
ENDBRANCH   5  14
ENDBRANCH   1   5
BRANCH   3  18
ATOM     18  C   UNL     1       4.467   1.751   3.401  0.00  0.00    +0.108 C 
BRANCH  18  19
ATOM     19  C   UNL     1       5.894   2.267   3.594  0.00  0.00    +0.052 C 
BRANCH  19  20
ATOM     20  C   UNL     1       5.859   3.748   3.871  0.00  0.00    -0.040 C 
ATOM     21  C   UNL     1       5.870   4.350   5.082  0.00  0.00    -0.001 A 
ATOM     22  C   UNL     1       5.913   3.825   6.452  0.00  0.00    +0.010 A 
ATOM     23  C   UNL     1       5.911   4.695   7.488  0.00  0.00    +0.001 A 
ATOM     24  C   UNL     1       5.869   6.081   7.286  0.00  0.00    +0.002 A 
ATOM     25  C   UNL     1       5.827   6.638   6.057  0.00  0.00    +0.026 A 
ATOM     26  C   UNL     1       5.826   5.817   4.896  0.00  0.00    +0.043 A 
ATOM     27  N   UNL     1       5.790   6.112   3.619  0.00  0.00    -0.380 N 
ATOM     28  C   UNL     1       5.813   4.863   2.850  0.00  0.00    +0.144 C 
ATOM     29  H   UNL     1       5.758   7.006   3.245  0.00  0.00    +0.160 HD
ENDBRANCH  19  20
ENDBRANCH  18  19
ENDBRANCH   3  18
TORSDOF 5
