REMARK  Name = ZINC15701974
REMARK  11 active torsions:
REMARK  status: ('A' for Active; 'I' for Inactive)
REMARK    1  A    between atoms: C_1  and  C_2
REMARK    2  A    between atoms: C_2  and  C_4
REMARK    3  A    between atoms: C_2  and  O_14
REMARK    4  A    between atoms: N_9  and  C_10
REMARK    5  A    between atoms: C_10  and  C_11
REMARK    6  A    between atoms: C_10  and  C_12
REMARK    7  A    between atoms: C_10  and  C_13
REMARK    8  A    between atoms: O_14  and  C_15
REMARK    9  A    between atoms: C_15  and  C_17
REMARK   10  A    between atoms: C_21  and  S_23
REMARK   11  A    between atoms: S_23  and  N_26
REMARK                            x       y       z     vdW  Elec       q    Type
REMARK                         _______ _______ _______ _____ _____    ______ ____
ROOT
ATOM      1  C   UNL     1       0.041  -2.095   1.184  0.00  0.00    +0.061 A 
ATOM      2  C   UNL     1       0.039  -2.778  -0.033  0.00  0.00    +0.015 A 
ATOM      3  C   UNL     1       0.018  -2.071  -1.218  0.00  0.00    +0.003 A 
ATOM      4  C   UNL     1      -0.006  -0.688  -1.201  0.00  0.00    +0.029 A 
ATOM      5  C   UNL     1       0.002  -0.004   0.002  0.00  0.00    +0.109 A 
ATOM      6  C   UNL     1       0.023  -0.699   1.194  0.00  0.00    +0.043 A 
ENDROOT
BRANCH   5   7
ATOM      7  S   UNL     1      -0.022   1.758   0.012  0.00  0.00    +0.075 S 
ATOM      8  O   UNL     1      -0.590   2.163  -1.226  0.00  0.00    -0.150 OA
ATOM      9  O   UNL     1      -0.566   2.150   1.264  0.00  0.00    -0.150 OA
BRANCH   7  10
ATOM     10  N   UNL     1       1.553   2.269  -0.001  0.00  0.00    -0.202 N 
ATOM     11  C   UNL     1       2.340   2.534  -1.208  0.00  0.00    +0.136 C 
ATOM     12  C   UNL     1       3.721   2.979  -0.699  0.00  0.00    +0.058 C 
ATOM     13  C   UNL     1       3.605   2.929   0.808  0.00  0.00    -0.023 A 
ATOM     14  C   UNL     1       2.323   2.515   1.137  0.00  0.00    +0.054 A 
ATOM     15  C   UNL     1       1.974   2.398   2.484  0.00  0.00    +0.025 A 
ATOM     16  C   UNL     1       2.893   2.693   3.469  0.00  0.00    +0.002 A 
ATOM     17  C   UNL     1       4.167   3.108   3.130  0.00  0.00    +0.000 A 
ATOM     18  C   UNL     1       4.523   3.218   1.798  0.00  0.00    +0.005 A 
ENDBRANCH   7  10
ENDBRANCH   5   7
BRANCH   1  19
ATOM     19  C   UNL     1       0.063  -2.845   2.457  0.00  0.00    +0.340 C 
ATOM     20  O   UNL     1       0.065  -2.248   3.514  0.00  0.00    -0.245 OA
BRANCH  19  21
ATOM     21  O   UNL     1       0.081  -4.192   2.444  0.00  0.00    -0.449 OA
BRANCH  21  23
ATOM     22  C   UNL     1       1.551  -5.080   4.170  0.00  0.00    +0.062 C 
ATOM     23  C   UNL     1       0.102  -4.863   3.731  0.00  0.00    +0.259 C 
BRANCH  23  24
ATOM     24  C   UNL     1      -0.592  -6.196   3.614  0.00  0.00    +0.261 C 
ATOM     25  O   UNL     1      -0.978  -6.586   2.533  0.00  0.00    -0.271 OA
ATOM     26  N   UNL     1      -0.784  -6.954   4.712  0.00  0.00    -0.237 N 
ATOM     27  C   UNL     1      -1.405  -8.146   4.607  0.00  0.00    +0.306 C 
ATOM     28  O   UNL     1      -1.791  -8.537   3.523  0.00  0.00    -0.252 OA
ATOM     29  N   UNL     1      -1.596  -8.905   5.705  0.00  0.00    -0.294 N 
ATOM     30  H   UNL     1      -0.475  -6.643   5.577  0.00  0.00    +0.159 HD
ATOM     31  H   UNL     1      -1.288  -8.593   6.570  0.00  0.00    +0.151 HD
BRANCH  29  32
ATOM     32  C   UNL     1      -2.271 -10.200   5.591  0.00  0.00    +0.028 C 
ATOM     33  C   UNL     1      -1.477 -11.107   4.648  0.00  0.00    +0.031 C 
ATOM     34  C   UNL     1      -2.359 -10.852   6.972  0.00  0.00    +0.031 C 
ATOM     35  C   UNL     1      -3.680  -9.994   5.033  0.00  0.00    +0.031 C 
ENDBRANCH  29  32
ENDBRANCH  23  24
ENDBRANCH  21  23
ENDBRANCH  19  21
ENDBRANCH   1  19
TORSDOF 7
