REMARK  Name = ZINC02343802
REMARK  8 active torsions:
REMARK  status: ('A' for Active; 'I' for Inactive)
REMARK    1  A    between atoms: C_1  and  C_2
REMARK    2  A    between atoms: C_2  and  C_3
REMARK    3  A    between atoms: C_16  and  S_19
REMARK    4  A    between atoms: S_19  and  C_20
REMARK    5  A    between atoms: C_20  and  C_21
REMARK    6  A    between atoms: N_23  and  C_24
REMARK    7  A    between atoms: C_24  and  C_25
REMARK    8  A    between atoms: C_24  and  C_31
REMARK                            x       y       z     vdW  Elec       q    Type
REMARK                         _______ _______ _______ _____ _____    ______ ____
ROOT
ATOM      1  S   UNL     1      -8.866  -0.365  -2.141  0.00  0.00    -0.076 S 
ENDROOT
BRANCH   1  15
ATOM      2  C   UNL     1      -6.970   0.441   0.551  0.00  0.00    +0.118 A 
ATOM      3  N   UNL     1      -6.149   0.753   1.512  0.00  0.00    -0.226 NA
ATOM      4  C   UNL     1      -4.846   0.925   1.307  0.00  0.00    +0.114 A 
ATOM      5  C   UNL     1      -4.259   0.785   0.041  0.00  0.00    +0.056 A 
ATOM      6  C   UNL     1      -2.860   0.997  -0.042  0.00  0.00    -0.024 A 
ATOM      7  C   UNL     1      -2.205   1.316   1.099  0.00  0.00    -0.004 A 
ATOM      8  S   UNL     1      -3.466   1.343   2.345  0.00  0.00    -0.073 S 
ATOM      9  C   UNL     1      -0.738   1.584   1.266  0.00  0.00    +0.043 C 
ATOM     10  C   UNL     1      -0.013   1.086   0.008  0.00  0.00    +0.005 C 
ATOM     11  C   UNL     1      -0.760   1.596  -1.228  0.00  0.00    +0.005 C 
ATOM     12  C   UNL     1      -2.101   0.874  -1.361  0.00  0.00    +0.037 C 
ATOM     13  C   UNL     1      -5.202   0.430  -1.044  0.00  0.00    +0.173 A 
ATOM     14  N   UNL     1      -6.534   0.273  -0.731  0.00  0.00    -0.257 N 
ATOM     15  C   UNL     1      -7.149  -0.045  -1.910  0.00  0.00    +0.198 A 
ATOM     16  N   UNL     1      -6.220  -0.068  -2.839  0.00  0.00    -0.122 NA
ATOM     17  N   UNL     1      -5.071   0.212  -2.329  0.00  0.00    -0.128 NA
BRANCH   2  19
ATOM     18  C   UNL     1      -8.703  -1.200   1.226  0.00  0.00    +0.012 C 
ATOM     19  C   UNL     1      -8.434   0.261   0.861  0.00  0.00    +0.071 C 
ENDBRANCH   2  19
ENDBRANCH   1  15
BRANCH   1  20
ATOM     20  C   UNL     1      -9.012  -0.719  -3.914  0.00  0.00    +0.173 C 
BRANCH  20  21
ATOM     21  C   UNL     1     -10.451  -1.013  -4.251  0.00  0.00    +0.224 C 
ATOM     22  O   UNL     1     -11.295  -0.987  -3.380  0.00  0.00    -0.275 OA
ATOM     23  N   UNL     1     -10.800  -1.306  -5.519  0.00  0.00    -0.304 N 
ATOM     24  H   UNL     1     -10.125  -1.327  -6.216  0.00  0.00    +0.150 HD
BRANCH  23  25
ATOM     25  C   UNL     1     -12.199  -1.592  -5.847  0.00  0.00    +0.134 C 
BRANCH  25  26
ATOM     26  C   UNL     1     -12.448  -1.284  -7.301  0.00  0.00    -0.023 A 
ATOM     27  C   UNL     1     -11.493  -1.604  -8.248  0.00  0.00    +0.006 A 
ATOM     28  C   UNL     1     -11.724  -1.326  -9.583  0.00  0.00    +0.000 A 
ATOM     29  C   UNL     1     -12.904  -0.720  -9.969  0.00  0.00    +0.000 A 
ATOM     30  C   UNL     1     -13.857  -0.395  -9.021  0.00  0.00    +0.000 A 
ATOM     31  C   UNL     1     -13.629  -0.678  -7.687  0.00  0.00    +0.006 A 
ENDBRANCH  25  26
BRANCH  25  32
ATOM     32  C   UNL     1     -12.489  -3.047  -5.584  0.00  0.00    -0.023 A 
ATOM     33  C   UNL     1     -11.553  -4.009  -5.918  0.00  0.00    +0.006 A 
ATOM     34  C   UNL     1     -11.817  -5.344  -5.672  0.00  0.00    +0.000 A 
ATOM     35  C   UNL     1     -13.020  -5.718  -5.103  0.00  0.00    +0.000 A 
ATOM     36  C   UNL     1     -13.958  -4.756  -4.775  0.00  0.00    +0.000 A 
ATOM     37  C   UNL     1     -13.692  -3.421  -5.016  0.00  0.00    +0.006 A 
ENDBRANCH  25  32
ENDBRANCH  23  25
ENDBRANCH  20  21
ENDBRANCH   1  20
TORSDOF 7
