REMARK  Name = ZINC40848427
REMARK  9 active torsions:
REMARK  status: ('A' for Active; 'I' for Inactive)
REMARK    1  A    between atoms: C_1  and  C_2
REMARK    2  A    between atoms: C_2  and  C_4
REMARK    3  A    between atoms: C_2  and  C_26
REMARK    4  A    between atoms: C_4  and  N_5
REMARK    5  A    between atoms: C_6  and  C_8
REMARK    6  A    between atoms: C_8  and  N_9
REMARK    7  A    between atoms: C_14  and  C_23
REMARK    8  A    between atoms: C_23  and  C_24
REMARK    9  A    between atoms: C_23  and  C_25
REMARK                            x       y       z     vdW  Elec       q    Type
REMARK                         _______ _______ _______ _____ _____    ______ ____
ROOT
ATOM      1  N   UNL     1       5.041  -0.325  -3.471  0.00  0.00    -0.318 N 
ATOM      2  C   UNL     1       6.366   0.000  -3.689  0.00  0.00    +0.165 A 
ATOM      3  C   UNL     1       7.092  -0.593  -4.815  0.00  0.00    +0.202 A 
ATOM      4  N   UNL     1       6.769  -1.441  -5.768  0.00  0.00    -0.126 NA
ATOM      5  N   UNL     1       7.792  -1.641  -6.525  0.00  0.00    -0.133 NA
ATOM      6  C   UNL     1       8.812  -0.938  -6.100  0.00  0.00    +0.141 A 
ATOM      7  N   UNL     1       8.409  -0.255  -5.011  0.00  0.00    -0.275 N 
ATOM      8  C   UNL     1       9.015   0.636  -4.141  0.00  0.00    +0.075 A 
ATOM      9  C   UNL     1      10.345   0.997  -4.316  0.00  0.00    +0.028 A 
ATOM     10  C   UNL     1      10.941   1.884  -3.445  0.00  0.00    +0.002 A 
ATOM     11  C   UNL     1      10.219   2.423  -2.390  0.00  0.00    +0.002 A 
ATOM     12  C   UNL     1       8.901   2.080  -2.200  0.00  0.00    +0.030 A 
ATOM     13  C   UNL     1       8.279   1.179  -3.075  0.00  0.00    +0.090 A 
ATOM     14  N   UNL     1       6.977   0.845  -2.889  0.00  0.00    -0.227 NA
ATOM     15  H   UNL     1       4.591  -0.949  -4.062  0.00  0.00    +0.148 HD
ENDROOT
BRANCH   6  16
ATOM     16  C   UNL     1      10.187  -0.899  -6.717  0.00  0.00    +0.051 C 
ATOM     17  C   UNL     1      10.443  -2.204  -7.473  0.00  0.00    +0.015 C 
ATOM     18  C   UNL     1      10.277   0.280  -7.688  0.00  0.00    +0.015 C 
ENDBRANCH   6  16
BRANCH   1  19
ATOM     19  C   UNL     1       4.315   0.273  -2.348  0.00  0.00    +0.199 C 
BRANCH  19  21
ATOM     20  N   UNL     1       2.040   0.173  -1.382  0.00  0.00    -0.313 N 
ATOM     21  C   UNL     1       2.899  -0.243  -2.334  0.00  0.00    +0.230 C 
ATOM     22  O   UNL     1       2.533  -1.032  -3.178  0.00  0.00    -0.274 OA
ATOM     23  H   UNL     1       2.333   0.804  -0.706  0.00  0.00    +0.149 HD
BRANCH  20  24
ATOM     24  C   UNL     1       0.664  -0.328  -1.368  0.00  0.00    +0.112 C 
BRANCH  24  26
ATOM     25  C   UNL     1      -0.216   1.806  -0.412  0.00  0.00    +0.014 C 
ATOM     26  C   UNL     1      -0.095   0.296  -0.195  0.00  0.00    +0.033 C 
BRANCH  26  27
ATOM     27  C   UNL     1      -1.471  -0.311  -0.106  0.00  0.00    -0.043 A 
ATOM     28  C   UNL     1      -2.345  -0.200  -1.172  0.00  0.00    +0.004 A 
ATOM     29  C   UNL     1      -3.608  -0.757  -1.091  0.00  0.00    +0.000 A 
ATOM     30  C   UNL     1      -3.996  -1.425   0.056  0.00  0.00    +0.000 A 
ATOM     31  C   UNL     1      -3.122  -1.536   1.121  0.00  0.00    +0.000 A 
ATOM     32  C   UNL     1      -1.858  -0.983   1.038  0.00  0.00    +0.004 A 
ENDBRANCH  26  27
ENDBRANCH  24  26
ENDBRANCH  20  24
ENDBRANCH  19  21
ENDBRANCH   1  19
TORSDOF 6
