REMARK  Name = ZINC28537698
REMARK  11 active torsions:
REMARK  status: ('A' for Active; 'I' for Inactive)
REMARK    1  A    between atoms: C_1  and  C_2
REMARK    2  A    between atoms: C_8  and  C_28
REMARK    3  A    between atoms: C_12  and  C_14
REMARK    4  A    between atoms: C_12  and  C_17
REMARK    5  A    between atoms: C_14  and  C_15
REMARK    6  A    between atoms: C_15  and  O_16
REMARK    7  A    between atoms: C_17  and  O_18
REMARK    8  A    between atoms: C_21  and  O_27
REMARK    9  A    between atoms: C_23  and  C_24
REMARK   10  A    between atoms: C_23  and  C_25
REMARK   11  A    between atoms: C_25  and  O_26
REMARK                            x       y       z     vdW  Elec       q    Type
REMARK                         _______ _______ _______ _____ _____    ______ ____
ROOT
ATOM      1  C   UNL     1      -3.364  -1.507   2.789  0.00  0.00    +0.010 C 
ATOM      2  C   UNL     1      -2.059  -0.787   2.445  0.00  0.00    +0.018 C 
ATOM      3  C   UNL     1      -0.893  -1.473   3.162  0.00  0.00    +0.006 C 
ATOM      4  C   UNL     1       0.415  -0.766   2.802  0.00  0.00    +0.005 C 
ATOM      5  C   UNL     1       0.638  -0.841   1.290  0.00  0.00    +0.008 C 
ATOM      6  C   UNL     1      -0.522  -0.150   0.569  0.00  0.00    +0.001 C 
ATOM      7  C   UNL     1      -1.831  -0.839   0.938  0.00  0.00    +0.079 C 
ATOM      8  C   UNL     1      -1.795  -2.312   0.468  0.00  0.00    +0.039 C 
ATOM      9  C   UNL     1      -3.313  -2.610   0.321  0.00  0.00    +0.040 C 
ATOM     10  C   UNL     1      -3.872  -1.247  -0.142  0.00  0.00    +0.095 C 
ATOM     11  O   UNL     1      -2.929  -0.239   0.243  0.00  0.00    -0.364 OA
ATOM     12  C   UNL     1      -0.304  -0.232  -0.943  0.00  0.00    +0.012 C 
ATOM     13  C   UNL     1       1.011   0.471  -1.302  0.00  0.00    +0.032 C 
ATOM     14  C   UNL     1       2.171  -0.219  -0.582  0.00  0.00    +0.123 C 
ATOM     15  C   UNL     1       1.951  -0.142   0.931  0.00  0.00    +0.020 C 
ATOM     16  C   UNL     1       3.110  -0.833   1.651  0.00  0.00    +0.016 C 
ATOM     17  C   UNL     1      -0.583   1.318   0.995  0.00  0.00    +0.014 C 
ENDROOT
BRANCH  14  18
ATOM     18  O   UNL     1       2.235  -1.589  -0.985  0.00  0.00    -0.391 OA
ATOM     19  H   UNL     1       3.010  -2.249  -0.569  0.00  0.00    +0.210 HD
ENDBRANCH  14  18
BRANCH  10  20
ATOM     20  C   UNL     1      -5.220  -0.983   0.532  0.00  0.00    +0.065 C 
BRANCH  20  21
ATOM     21  C   UNL     1      -5.851   0.277  -0.065  0.00  0.00    +0.158 C 
BRANCH  21  22
ATOM     22  O   UNL     1      -7.040   0.603   0.657  0.00  0.00    -0.395 OA
ATOM     23  H   UNL     1      -7.634   1.483   0.371  0.00  0.00    +0.209 HD
ENDBRANCH  21  22
ENDBRANCH  20  21
ENDBRANCH  10  20
BRANCH  10  24
ATOM     24  C   UNL     1      -4.042  -1.246  -1.663  0.00  0.00    +0.190 C 
BRANCH  24  25
ATOM     25  O   UNL     1      -4.421   0.061  -2.099  0.00  0.00    -0.392 OA
ATOM     26  H   UNL     1      -4.589   0.258  -3.168  0.00  0.00    +0.210 HD
ENDBRANCH  24  25
ENDBRANCH  10  24
BRANCH  15  27
ATOM     27  C   UNL     1       1.883   1.324   1.362  0.00  0.00    +0.165 C 
BRANCH  27  28
ATOM     28  O   UNL     1       3.173   1.921   1.224  0.00  0.00    -0.394 OA
ATOM     29  H   UNL     1       3.321   2.979   1.489  0.00  0.00    +0.209 HD
ENDBRANCH  27  28
ENDBRANCH  15  27
TORSDOF 8
