REMARK  Name = ZINC02631347
REMARK  12 active torsions:
REMARK  status: ('A' for Active; 'I' for Inactive)
REMARK    1  A    between atoms: C_1  and  O_2
REMARK    2  A    between atoms: O_2  and  C_3
REMARK    3  A    between atoms: C_8  and  O_9
REMARK    4  A    between atoms: O_9  and  C_10
REMARK    5  A    between atoms: C_11  and  C_29
REMARK    6  A    between atoms: C_15  and  C_16
REMARK    7  A    between atoms: C_15  and  N_60
REMARK    8  A    between atoms: C_16  and  C_18
REMARK    9  A    between atoms: C_16  and  O_28
REMARK   10  A    between atoms: C_18  and  O_19
REMARK   11  A    between atoms: O_19  and  C_20
REMARK   12  A    between atoms: C_20  and  C_21
REMARK                            x       y       z     vdW  Elec       q    Type
REMARK                         _______ _______ _______ _____ _____    ______ ____
ROOT
ATOM      1  C   UNL     1       7.094  -3.652  -9.461  0.00  0.00    +0.162 A 
ATOM      2  C   UNL     1       7.786  -2.724  -8.704  0.00  0.00    +0.053 A 
ATOM      3  C   UNL     1       7.549  -2.612  -7.342  0.00  0.00    -0.043 A 
ATOM      4  C   UNL     1       6.617  -3.428  -6.736  0.00  0.00    -0.049 A 
ATOM      5  C   UNL     1       5.922  -4.362  -7.491  0.00  0.00    +0.052 A 
ATOM      6  C   UNL     1       6.155  -4.478  -8.850  0.00  0.00    +0.162 A 
ATOM      7  C   UNL     1       6.319  -3.335  -5.263  0.00  0.00    +0.001 C 
ATOM      8  C   UNL     1       7.653  -1.329  -5.215  0.00  0.00    -0.073 C 
ATOM      9  C   UNL     1       8.331  -1.588  -6.560  0.00  0.00    +0.017 C 
ATOM     10  N   UNL     1       7.414  -2.636  -4.570  0.00  0.00    +0.389 N 
ATOM     11  H   UNL     1       8.268  -3.202  -4.635  0.00  0.00    -0.080 HD
ENDROOT
BRANCH   7  12
ATOM     12  C   UNL     1       6.191  -4.724  -4.693  0.00  0.00    -0.019 A 
ATOM     13  C   UNL     1       5.070  -5.436  -4.423  0.00  0.00    +0.010 A 
ATOM     14  C   UNL     1       5.194  -6.710  -3.899  0.00  0.00    +0.008 A 
ATOM     15  C   UNL     1       6.433  -7.205  -3.662  0.00  0.00    +0.045 A 
ATOM     16  S   UNL     1       7.477  -5.856  -4.191  0.00  0.00    -0.103 S 
ENDBRANCH   7  12
BRANCH   1  18
ATOM     17  C   UNL     1       8.308  -2.878 -11.354  0.00  0.00    +0.277 C 
ATOM     18  O   UNL     1       7.330  -3.758 -10.796  0.00  0.00    -0.491 OA
ENDBRANCH   1  18
BRANCH   6  19
ATOM     19  O   UNL     1       5.471  -5.395  -9.584  0.00  0.00    -0.491 OA
ATOM     20  C   UNL     1       4.523  -6.207  -8.888  0.00  0.00    +0.277 C 
ENDBRANCH   6  19
BRANCH  10  21
ATOM     21  C   UNL     1       7.071  -2.443  -3.143  0.00  0.00    -0.044 C 
BRANCH  21  22
ATOM     22  C   UNL     1       5.778  -1.635  -3.013  0.00  0.00    +0.124 C 
BRANCH  22  23
ATOM     23  O   UNL     1       4.676  -2.420  -3.472  0.00  0.00    -0.391 OA
ATOM     24  H   UNL     1       4.549  -3.244  -2.981  0.00  0.00    +0.210 HD
ENDBRANCH  22  23
BRANCH  22  25
ATOM     25  C   UNL     1       5.559  -1.257  -1.547  0.00  0.00    +0.189 C 
BRANCH  25  26
ATOM     26  O   UNL     1       4.416  -0.405  -1.440  0.00  0.00    -0.373 OA
BRANCH  26  27
ATOM     27  C   UNL     1       4.122   0.009  -0.104  0.00  0.00    +0.195 C 
BRANCH  27  28
ATOM     28  C   UNL     1       2.906   0.898  -0.110  0.00  0.00    -0.022 A 
ATOM     29  C   UNL     1       1.646   0.346   0.030  0.00  0.00    +0.007 A 
ATOM     30  C   UNL     1       0.530   1.162   0.024  0.00  0.00    +0.020 A 
ATOM     31  C   UNL     1       0.674   2.530  -0.122  0.00  0.00    +0.041 A 
ATOM     32  C   UNL     1       1.935   3.081  -0.261  0.00  0.00    +0.020 A 
ATOM     33  C   UNL     1       3.050   2.265  -0.255  0.00  0.00    +0.007 A 
ATOM     34 CL   UNL     1      -0.728   3.554  -0.137  0.00  0.00    -0.084 Cl
ENDBRANCH  27  28
ENDBRANCH  26  27
ENDBRANCH  25  26
ENDBRANCH  22  25
ENDBRANCH  21  22
ENDBRANCH  10  21
TORSDOF 10
