REMARK  Name = ZINC09731018
REMARK  10 active torsions:
REMARK  status: ('A' for Active; 'I' for Inactive)
REMARK    1  A    between atoms: C_1  and  C_2
REMARK    2  A    between atoms: C_2  and  N_3
REMARK    3  A    between atoms: C_5  and  C_27
REMARK    4  A    between atoms: C_12  and  S_14
REMARK    5  A    between atoms: S_14  and  N_17
REMARK    6  A    between atoms: C_19  and  C_26
REMARK    7  A    between atoms: C_22  and  C_25
REMARK    8  A    between atoms: N_29  and  C_30
REMARK    9  A    between atoms: C_30  and  C_31
REMARK   10  A    between atoms: C_31  and  C_32
REMARK                            x       y       z     vdW  Elec       q    Type
REMARK                         _______ _______ _______ _____ _____    ______ ____
ROOT
ATOM      1  N   UNL     1      -6.690  -1.257  -0.938  0.00  0.00    -0.346 N 
ATOM      2  C   UNL     1      -6.927  -2.337  -0.181  0.00  0.00    +0.103 A 
ATOM      3  C   UNL     1      -5.909  -3.117   0.326  0.00  0.00    +0.100 A 
ATOM      4  C   UNL     1      -4.516  -2.752   0.025  0.00  0.00    +0.202 A 
ATOM      5  O   UNL     1      -3.581  -3.409   0.449  0.00  0.00    -0.286 OA
ATOM      6  C   UNL     1      -4.298  -1.556  -0.811  0.00  0.00    +0.048 A 
ATOM      7  C   UNL     1      -5.419  -0.842  -1.268  0.00  0.00    +0.053 A 
ATOM      8  C   UNL     1      -5.227   0.289  -2.059  0.00  0.00    +0.028 A 
ATOM      9  C   UNL     1      -3.950   0.694  -2.382  0.00  0.00    +0.030 A 
ATOM     10  C   UNL     1      -2.846  -0.014  -1.929  0.00  0.00    +0.106 A 
ATOM     11  C   UNL     1      -3.012  -1.138  -1.151  0.00  0.00    +0.042 A 
ENDROOT
BRANCH   3  12
ATOM     12  C   UNL     1      -6.211  -4.296   1.153  0.00  0.00    +0.249 C 
ATOM     13  O   UNL     1      -5.306  -4.977   1.595  0.00  0.00    -0.270 OA
ATOM     14  N   UNL     1      -7.492  -4.620   1.421  0.00  0.00    -0.311 N 
ATOM     15  H   UNL     1      -8.214  -4.077   1.069  0.00  0.00    +0.149 HD
BRANCH  14  16
ATOM     16  C   UNL     1      -7.793  -5.794   2.245  0.00  0.00    +0.109 C 
BRANCH  16  17
ATOM     17  C   UNL     1      -9.308  -5.937   2.395  0.00  0.00    +0.054 C 
BRANCH  17  18
ATOM     18  C   UNL     1      -9.618  -7.144   3.242  0.00  0.00    -0.046 A 
ATOM     19  C   UNL     1      -9.799  -8.378   2.646  0.00  0.00    +0.005 A 
ATOM     20  C   UNL     1     -10.077  -9.487   3.423  0.00  0.00    +0.020 A 
ATOM     21  C   UNL     1     -10.186  -9.360   4.797  0.00  0.00    +0.041 A 
ATOM     22  C   UNL     1     -10.010  -8.123   5.392  0.00  0.00    +0.020 A 
ATOM     23  C   UNL     1      -9.726  -7.016   4.614  0.00  0.00    +0.005 A 
ATOM     24 CL   UNL     1     -10.542 -10.750   5.772  0.00  0.00    -0.084 Cl
ENDBRANCH  17  18
ENDBRANCH  16  17
ENDBRANCH  14  16
ENDBRANCH   3  12
BRANCH  10  25
ATOM     25  S   UNL     1      -1.224   0.524  -2.358  0.00  0.00    +0.061 S 
ATOM     26  O   UNL     1      -1.350   1.284  -3.552  0.00  0.00    -0.153 OA
ATOM     27  O   UNL     1      -0.381  -0.616  -2.266  0.00  0.00    -0.153 OA
BRANCH  25  28
ATOM     28  N   UNL     1      -0.729   1.575  -1.178  0.00  0.00    -0.176 NA
ATOM     29  C   UNL     1      -0.013   1.086   0.008  0.00  0.00    +0.112 C 
ATOM     30  C   UNL     1      -0.736   1.583   1.264  0.00  0.00    +0.002 C 
ATOM     31  C   UNL     1      -0.878   3.105   1.196  0.00  0.00    +0.009 C 
ATOM     32  C   UNL     1      -1.712   3.490  -0.028  0.00  0.00    +0.002 C 
ATOM     33  C   UNL     1      -0.997   3.015  -1.297  0.00  0.00    +0.112 C 
ATOM     34  C   UNL     1      -1.879   5.010  -0.075  0.00  0.00    +0.009 C 
ATOM     35  C   UNL     1      -2.124   0.945   1.340  0.00  0.00    +0.009 C 
ENDBRANCH  25  28
ENDBRANCH  10  25
BRANCH   1  37
ATOM     36  C   UNL     1      -8.190  -0.954  -2.846  0.00  0.00    +0.027 C 
ATOM     37  C   UNL     1      -7.832  -0.484  -1.434  0.00  0.00    +0.118 C 
ENDBRANCH   1  37
TORSDOF 7
