REMARK  Name = ZINC36586609
REMARK  12 active torsions:
REMARK  status: ('A' for Active; 'I' for Inactive)
REMARK    1  A    between atoms: C_1  and  C_2
REMARK    2  A    between atoms: C_2  and  C_3
REMARK    3  A    between atoms: C_2  and  C_4
REMARK    4  A    between atoms: C_2  and  N_5
REMARK    5  A    between atoms: N_5  and  C_6
REMARK    6  A    between atoms: C_6  and  C_8
REMARK    7  A    between atoms: C_6  and  C_15
REMARK    8  A    between atoms: C_11  and  O_14
REMARK    9  A    between atoms: N_17  and  C_18
REMARK   10  A    between atoms: C_24  and  C_26
REMARK   11  A    between atoms: C_27  and  O_33
REMARK   12  A    between atoms: C_31  and  O_32
REMARK                            x       y       z     vdW  Elec       q    Type
REMARK                         _______ _______ _______ _____ _____    ______ ____
ROOT
ATOM      1  C   UNL     1       2.505  -0.976  -2.535  0.00  0.00    +0.193 C 
ENDROOT
BRANCH   1   2
ATOM      2  C   UNL     1       2.999   0.068  -3.503  0.00  0.00    -0.018 A 
ATOM      3  C   UNL     1       3.257   1.352  -3.061  0.00  0.00    +0.009 A 
ATOM      4  C   UNL     1       3.710   2.311  -3.946  0.00  0.00    +0.046 A 
ATOM      5  C   UNL     1       3.907   1.984  -5.280  0.00  0.00    +0.117 A 
ATOM      6  C   UNL     1       3.648   0.694  -5.721  0.00  0.00    +0.046 A 
ATOM      7  C   UNL     1       3.200  -0.262  -4.830  0.00  0.00    +0.009 A 
BRANCH   5   8
ATOM      8  O   UNL     1       4.352   2.925  -6.153  0.00  0.00    -0.507 OA
ATOM      9  H   UNL     1       5.315   2.969  -6.227  0.00  0.00    +0.292 HD
ENDBRANCH   5   8
ENDBRANCH   1   2
BRANCH   1  10
ATOM     10  C   UNL     1       3.671  -1.542  -1.767  0.00  0.00    +0.238 C 
ATOM     11  O   UNL     1       3.587  -1.705  -0.568  0.00  0.00    -0.273 OA
ATOM     12  N   UNL     1       4.809  -1.867  -2.412  0.00  0.00    -0.311 N 
ATOM     13  H   UNL     1       4.877  -1.736  -3.371  0.00  0.00    +0.149 HD
BRANCH  12  14
ATOM     14  C   UNL     1       5.943  -2.417  -1.666  0.00  0.00    +0.073 C 
ATOM     15  C   UNL     1       6.774  -1.272  -1.083  0.00  0.00    +0.022 C 
ATOM     16  C   UNL     1       7.958  -1.846  -0.303  0.00  0.00    +0.002 C 
ATOM     17  C   UNL     1       8.830  -2.682  -1.243  0.00  0.00    +0.000 C 
ATOM     18  C   UNL     1       8.000  -3.827  -1.826  0.00  0.00    +0.002 C 
ATOM     19  C   UNL     1       6.815  -3.252  -2.606  0.00  0.00    +0.022 C 
ENDBRANCH  12  14
ENDBRANCH   1  10
BRANCH   1  20
ATOM     20  N   UNL     1       1.556  -0.365  -1.601  0.00  0.00    -0.277 N 
ATOM     21  C   UNL     1       2.008   0.338  -0.544  0.00  0.00    +0.255 C 
ATOM     22  O   UNL     1       3.201   0.537  -0.411  0.00  0.00    -0.270 OA
BRANCH  21  23
ATOM     23  C   UNL     1       1.059   0.866   0.450  0.00  0.00    +0.119 A 
ATOM     24  C   UNL     1       0.681   0.084   1.551  0.00  0.00    +0.133 A 
ATOM     25  C   UNL     1      -0.213   0.591   2.480  0.00  0.00    +0.046 A 
ATOM     26  C   UNL     1      -0.731   1.863   2.326  0.00  0.00    +0.007 A 
ATOM     27  C   UNL     1      -0.366   2.643   1.244  0.00  0.00    +0.046 A 
ATOM     28  C   UNL     1       0.531   2.158   0.306  0.00  0.00    +0.133 A 
BRANCH  28  29
ATOM     29  O   UNL     1       0.893   2.927  -0.751  0.00  0.00    -0.506 OA
ATOM     30  H   UNL     1       0.325   2.822  -1.527  0.00  0.00    +0.292 HD
ENDBRANCH  28  29
BRANCH  24  31
ATOM     31  O   UNL     1       1.188  -1.165   1.705  0.00  0.00    -0.506 OA
ATOM     32  H   UNL     1       2.008  -1.196   2.216  0.00  0.00    +0.292 HD
ENDBRANCH  24  31
ENDBRANCH  21  23
BRANCH  20  34
ATOM     33  C   UNL     1      -0.127  -1.327  -3.092  0.00  0.00    +0.031 C 
ATOM     34  C   UNL     1       0.115  -0.518  -1.816  0.00  0.00    +0.030 C 
ATOM     35  C   UNL     1      -0.530   0.862  -1.956  0.00  0.00    +0.031 C 
ATOM     36  C   UNL     1      -0.504  -1.251  -0.623  0.00  0.00    +0.031 C 
ENDBRANCH  20  34
ENDBRANCH   1  20
TORSDOF 9
