REMARK  Name = ZINC45318331
REMARK  5 active torsions:
REMARK  status: ('A' for Active; 'I' for Inactive)
REMARK    1  A    between atoms: C_1  and  C_2
REMARK    2  A    between atoms: N_5  and  C_25
REMARK    3  A    between atoms: C_7  and  C_9
REMARK    4  A    between atoms: N_17  and  C_20
REMARK    5  A    between atoms: C_25  and  C_26
REMARK                            x       y       z     vdW  Elec       q    Type
REMARK                         _______ _______ _______ _____ _____    ______ ____
ROOT
ATOM      1  C   UNL     1       1.881  -1.407   0.876  0.00  0.00    +0.117 A 
ATOM      2  N   UNL     1       2.903  -1.548   1.758  0.00  0.00    -0.310 N 
ATOM      3  H   UNL     1       2.868  -1.094   2.615  0.00  0.00    +0.170 HD
ATOM      4  C   UNL     1       3.970  -2.322   1.449  0.00  0.00    +0.262 A 
ATOM      5  O   UNL     1       4.896  -2.461   2.228  0.00  0.00    -0.267 OA
ATOM      6  C   UNL     1       3.969  -2.984   0.145  0.00  0.00    +0.103 A 
ATOM      7  C   UNL     1       4.859  -3.841  -0.530  0.00  0.00    +0.150 A 
ATOM      8  N   UNL     1       4.344  -4.134  -1.692  0.00  0.00    -0.177 NA
ATOM      9  N   UNL     1       3.107  -3.491  -1.831  0.00  0.00    -0.243 N 
ATOM     10  C   UNL     1       2.867  -2.779  -0.701  0.00  0.00    +0.166 A 
ATOM     11  N   UNL     1       1.861  -1.993  -0.285  0.00  0.00    -0.214 NA
ENDROOT
BRANCH   1  17
ATOM     12  C   UNL     1      -0.019   1.526   0.010  0.00  0.00    +0.009 C 
ATOM     13  C   UNL     1       0.002  -0.004   0.002  0.00  0.00    +0.012 C 
ATOM     14  C   UNL     1      -1.436  -0.560   0.084  0.00  0.00    +0.088 C 
ATOM     15  N   UNL     1      -1.655  -0.820   1.530  0.00  0.00    -0.296 NA
ATOM     16  C   UNL     1      -0.358  -1.371   2.003  0.00  0.00    +0.096 C 
ATOM     17  C   UNL     1       0.713  -0.537   1.263  0.00  0.00    +0.073 C 
BRANCH  15  18
ATOM     18  C   UNL     1      -2.742  -1.786   1.733  0.00  0.00    +0.139 C 
BRANCH  18  19
ATOM     19  C   UNL     1      -4.057  -1.147   1.365  0.00  0.00    +0.055 A 
ATOM     20  C   UNL     1      -4.575  -1.333   0.097  0.00  0.00    +0.024 A 
ATOM     21  C   UNL     1      -5.785  -0.742  -0.231  0.00  0.00    +0.003 A 
ATOM     22  C   UNL     1      -6.431   0.019   0.732  0.00  0.00    +0.020 A 
ATOM     23  C   UNL     1      -5.851   0.161   1.978  0.00  0.00    +0.111 A 
ATOM     24  N   UNL     1      -4.701  -0.421   2.257  0.00  0.00    -0.259 NA
ENDBRANCH  18  19
ENDBRANCH  15  18
ENDBRANCH   1  17
BRANCH   9  25
ATOM     25  C   UNL     1       2.224  -3.574  -2.997  0.00  0.00    +0.109 C 
ATOM     26  C   UNL     1       1.862  -5.046  -3.283  0.00  0.00    +0.027 C 
ATOM     27  C   UNL     1       1.829  -5.137  -4.829  0.00  0.00    +0.002 C 
ATOM     28  C   UNL     1       3.007  -4.223  -5.249  0.00  0.00    +0.002 C 
ATOM     29  C   UNL     1       2.952  -3.050  -4.248  0.00  0.00    +0.027 C 
ENDBRANCH   9  25
TORSDOF 4
