REMARK  Name = ZINC33039558
REMARK  9 active torsions:
REMARK  status: ('A' for Active; 'I' for Inactive)
REMARK    1  A    between atoms: C_1  and  C_2
REMARK    2  A    between atoms: C_2  and  C_4
REMARK    3  A    between atoms: C_2  and  N_21
REMARK    4  A    between atoms: N_6  and  C_7
REMARK    5  A    between atoms: C_10  and  S_13
REMARK    6  A    between atoms: S_13  and  N_16
REMARK    7  A    between atoms: N_21  and  C_22
REMARK    8  A    between atoms: C_22  and  C_23
REMARK    9  A    between atoms: C_23  and  N_29
REMARK                            x       y       z     vdW  Elec       q    Type
REMARK                         _______ _______ _______ _____ _____    ______ ____
ROOT
ATOM      1  C   UNL     1       3.465   3.376   1.024  0.00  0.00    -0.004 C 
ATOM      2  C   UNL     1       2.982   3.280   2.473  0.00  0.00    +0.013 C 
ENDROOT
BRANCH   2   3
ATOM      3  C   UNL     1       3.133   4.621   3.143  0.00  0.00    +0.203 C 
ATOM      4  O   UNL     1       2.160   5.187   3.593  0.00  0.00    -0.277 OA
ATOM      5  N   UNL     1       4.350   5.191   3.243  0.00  0.00    -0.287 N 
ATOM      6  H   UNL     1       5.220   4.717   2.765  0.00  0.00    +0.155 HD
BRANCH   5   7
ATOM      7  C   UNL     1       4.507   6.385   3.955  0.00  0.00    +0.033 A 
ATOM      8  C   UNL     1       3.506   7.347   3.931  0.00  0.00    +0.025 A 
ATOM      9  C   UNL     1       3.661   8.522   4.639  0.00  0.00    +0.030 A 
ATOM     10  C   UNL     1       4.818   8.746   5.364  0.00  0.00    +0.106 A 
ATOM     11  C   UNL     1       5.819   7.793   5.386  0.00  0.00    +0.030 A 
ATOM     12  C   UNL     1       5.668   6.614   4.684  0.00  0.00    +0.025 A 
BRANCH  10  13
ATOM     13  S   UNL     1       5.015  10.250   6.261  0.00  0.00    +0.061 S 
ATOM     14  O   UNL     1       3.708  10.741   6.523  0.00  0.00    -0.153 OA
ATOM     15  O   UNL     1       5.950   9.984   7.298  0.00  0.00    -0.153 OA
BRANCH  13  16
ATOM     16  N   UNL     1       5.734  11.338   5.241  0.00  0.00    -0.177 NA
ATOM     17  C   UNL     1       7.183  11.542   5.090  0.00  0.00    +0.109 C 
ATOM     18  C   UNL     1       7.380  12.668   4.053  0.00  0.00    +0.018 C 
ATOM     19  C   UNL     1       6.028  13.427   4.104  0.00  0.00    +0.018 C 
ATOM     20  C   UNL     1       5.029  12.266   4.339  0.00  0.00    +0.109 C 
ENDBRANCH  13  16
ENDBRANCH  10  13
ENDBRANCH   5   7
ENDBRANCH   2   3
BRANCH   2  21
ATOM     21  N   UNL     1       1.569   2.879   2.493  0.00  0.00    +0.388 N 
ATOM     22  H   UNL     1       1.101   3.228   3.425  0.00  0.00    -0.085 HD
ATOM     23  H   UNL     1       1.049   3.326   1.632  0.00  0.00    -0.085 HD
BRANCH  21  24
ATOM     24  C   UNL     1       1.435   1.418   2.417  0.00  0.00    -0.059 C 
BRANCH  24  25
ATOM     25  C   UNL     1      -0.048   1.040   2.440  0.00  0.00    +0.007 C 
ATOM     26  C   UNL     1      -0.192  -0.470   2.244  0.00  0.00    +0.020 C 
ATOM     27  C   UNL     1       0.538  -1.203   3.371  0.00  0.00    +0.002 C 
ATOM     28  C   UNL     1      -0.069  -0.803   4.717  0.00  0.00    +0.000 C 
ATOM     29  C   UNL     1       0.075   0.707   4.913  0.00  0.00    +0.002 C 
ATOM     30  C   UNL     1      -0.655   1.440   3.785  0.00  0.00    +0.020 C 
BRANCH  25  31
ATOM     31  N   UNL     1      -0.749   1.744   1.357  0.00  0.00    -0.294 NA
ATOM     32  C   UNL     1      -2.184   1.424   1.365  0.00  0.00    +0.113 C 
ATOM     33  C   UNL     1      -2.885   2.222   0.262  0.00  0.00    +0.175 C 
ATOM     34  O   UNL     1      -2.271   1.927  -0.996  0.00  0.00    -0.377 OA
ATOM     35  C   UNL     1      -0.874   2.227  -1.039  0.00  0.00    +0.175 C 
ATOM     36  C   UNL     1      -0.152   1.430   0.051  0.00  0.00    +0.113 C 
ENDBRANCH  25  31
ENDBRANCH  24  25
ENDBRANCH  21  24
ENDBRANCH   2  21
TORSDOF 8
