REMARK  Name = ZINC15433934
REMARK  6 active torsions:
REMARK  status: ('A' for Active; 'I' for Inactive)
REMARK    1  A    between atoms: C_1  and  C_2
REMARK    2  A    between atoms: C_5  and  C_28
REMARK    3  A    between atoms: C_10  and  C_12
REMARK    4  A    between atoms: C_12  and  C_13
REMARK    5  A    between atoms: C_13  and  N_14
REMARK    6  A    between atoms: N_17  and  C_18
REMARK                            x       y       z     vdW  Elec       q    Type
REMARK                         _______ _______ _______ _____ _____    ______ ____
ROOT
ATOM      1  N   UNL     1      -1.590   3.690   4.807  0.00  0.00    -0.299 N 
ATOM      2  C   UNL     1      -0.959   3.256   3.698  0.00  0.00    +0.300 C 
ATOM      3  O   UNL     1       0.040   2.570   3.797  0.00  0.00    -0.253 OA
ATOM      4  N   UNL     1      -1.435   3.582   2.481  0.00  0.00    -0.294 N 
ATOM      5  H   UNL     1      -2.387   4.238   4.729  0.00  0.00    +0.150 HD
ATOM      6  H   UNL     1      -2.232   4.129   2.402  0.00  0.00    +0.151 HD
ENDROOT
BRANCH   4   7
ATOM      7  C   UNL     1      -0.750   3.109   1.275  0.00  0.00    +0.037 C 
ATOM      8  C   UNL     1      -0.729   1.579   1.267  0.00  0.00    +0.029 C 
ATOM      9  C   UNL     1      -0.013   1.086   0.008  0.00  0.00    -0.008 C 
ATOM     10  C   UNL     1      -0.753   1.593  -1.232  0.00  0.00    +0.007 C 
ATOM     11  C   UNL     1      -0.773   3.123  -1.223  0.00  0.00    -0.008 C 
ATOM     12  C   UNL     1      -1.490   3.616   0.036  0.00  0.00    +0.029 C 
ATOM     13  C   UNL     1       0.662   3.652  -1.234  0.00  0.00    +0.007 C 
ATOM     14  C   UNL     1       1.402   3.145   0.006  0.00  0.00    -0.008 C 
ATOM     15  C   UNL     1       1.423   1.615  -0.003  0.00  0.00    +0.007 C 
ATOM     16  C   UNL     1       0.686   3.639   1.264  0.00  0.00    +0.029 C 
ENDBRANCH   4   7
BRANCH   1  17
ATOM     17  C   UNL     1      -1.072   3.336   6.131  0.00  0.00    +0.115 C 
BRANCH  17  18
ATOM     18  C   UNL     1      -1.966   3.951   7.210  0.00  0.00    +0.114 C 
BRANCH  18  26
ATOM     19  C   UNL     1      -5.611   5.122  10.418  0.00  0.00    +0.009 C 
ATOM     20  C   UNL     1      -4.387   4.203  10.403  0.00  0.00    +0.004 C 
ATOM     21  C   UNL     1      -3.895   3.984  11.835  0.00  0.00    +0.009 C 
ATOM     22  C   UNL     1      -2.691   3.039  11.824  0.00  0.00    +0.004 C 
ATOM     23  C   UNL     1      -1.556   3.675  11.015  0.00  0.00    +0.111 C 
ATOM     24  N   UNL     1      -2.063   4.022   9.680  0.00  0.00    -0.301 N 
ATOM     25  C   UNL     1      -3.268   4.856   9.578  0.00  0.00    +0.111 C 
ATOM     26  C   UNL     1      -1.433   3.587   8.572  0.00  0.00    +0.217 C 
ATOM     27  O   UNL     1      -0.436   2.903   8.670  0.00  0.00    -0.276 OA
ATOM     28  C   UNL     1      -3.092   1.709  11.184  0.00  0.00    +0.009 C 
ENDBRANCH  18  26
ENDBRANCH  17  18
ENDBRANCH   1  17
TORSDOF 4
