REMARK  Name = ZINC20745809
REMARK  9 active torsions:
REMARK  status: ('A' for Active; 'I' for Inactive)
REMARK    1  A    between atoms: C_1  and  C_2
REMARK    2  A    between atoms: C_2  and  O_3
REMARK    3  A    between atoms: O_3  and  C_4
REMARK    4  A    between atoms: C_12  and  C_14
REMARK    5  A    between atoms: C_14  and  C_16
REMARK    6  A    between atoms: C_14  and  N_19
REMARK    7  A    between atoms: C_16  and  C_17
REMARK    8  A    between atoms: C_16  and  C_18
REMARK    9  A    between atoms: C_20  and  C_22
REMARK                            x       y       z     vdW  Elec       q    Type
REMARK                         _______ _______ _______ _____ _____    ______ ____
ROOT
ATOM      1  C   UNL     1      -2.197   9.563   0.118  0.00  0.00    +0.162 C 
ENDROOT
BRANCH   1  10
ATOM      2  C   UNL     1      -4.673  12.644   4.885  0.00  0.00    +0.403 C 
ATOM      3  O   UNL     1      -5.801  13.054   5.073  0.00  0.00    -0.226 OA
ATOM      4  N   UNL     1      -4.282  12.294   3.643  0.00  0.00    -0.264 N 
ATOM      5  C   UNL     1      -5.208  12.405   2.508  0.00  0.00    +0.130 C 
ATOM      6  C   UNL     1      -5.302  11.040   1.817  0.00  0.00    +0.127 C 
ATOM      7  N   UNL     1      -3.941  10.542   1.574  0.00  0.00    -0.297 N 
ATOM      8  C   UNL     1      -3.016  10.425   2.710  0.00  0.00    +0.127 C 
ATOM      9  C   UNL     1      -2.920  11.797   3.401  0.00  0.00    +0.130 C 
ATOM     10  C   UNL     1      -3.550  10.193   0.332  0.00  0.00    +0.236 C 
ATOM     11  O   UNL     1      -4.286  10.385  -0.612  0.00  0.00    -0.274 OA
BRANCH   2  12
ATOM     12  O   UNL     1      -3.814  12.537   5.916  0.00  0.00    -0.451 OA
BRANCH  12  14
ATOM     13  C   UNL     1      -3.195  12.742   8.263  0.00  0.00    +0.048 C 
ATOM     14  C   UNL     1      -4.304  12.931   7.225  0.00  0.00    +0.230 C 
ENDBRANCH  12  14
ENDBRANCH   2  12
ENDBRANCH   1  10
BRANCH   1  15
ATOM     15  N   UNL     1      -2.297   8.533  -0.919  0.00  0.00    -0.301 N 
ATOM     16  C   UNL     1      -1.413   7.516  -0.946  0.00  0.00    +0.258 C 
ATOM     17  O   UNL     1      -0.534   7.454  -0.112  0.00  0.00    -0.272 OA
ATOM     18  H   UNL     1      -3.094   8.589  -1.675  0.00  0.00    +0.150 HD
BRANCH  16  19
ATOM     19  C   UNL     1      -1.516   6.456  -2.013  0.00  0.00    +0.296 C 
ATOM     20  C   UNL     1      -2.823   5.672  -1.839  0.00  0.00    +0.283 C 
ATOM     21  O   UNL     1      -2.882   4.668  -2.857  0.00  0.00    -0.484 OA
ATOM     22  C   UNL     1      -1.755   3.931  -3.055  0.00  0.00    +0.162 A 
ATOM     23  C   UNL     1      -1.837   2.733  -3.749  0.00  0.00    +0.049 A 
ATOM     24  C   UNL     1      -0.702   1.973  -3.956  0.00  0.00    +0.004 A 
ATOM     25  C   UNL     1       0.521   2.410  -3.481  0.00  0.00    +0.004 A 
ATOM     26  C   UNL     1       0.611   3.604  -2.792  0.00  0.00    +0.049 A 
ATOM     27  C   UNL     1      -0.526   4.369  -2.575  0.00  0.00    +0.163 A 
ATOM     28  O   UNL     1      -0.423   5.539  -1.889  0.00  0.00    -0.473 OA
ENDBRANCH  16  19
ENDBRANCH   1  15
BRANCH   1  29
ATOM     29  C   UNL     1      -1.200  10.636  -0.324  0.00  0.00    +0.012 C 
ATOM     30  C   UNL     1      -1.131  11.736   0.738  0.00  0.00    +0.009 C 
ATOM     31  C   UNL     1       0.184  10.006  -0.496  0.00  0.00    +0.009 C 
ENDBRANCH   1  29
TORSDOF 6
