REMARK  Name = ZINC44918402
REMARK  6 active torsions:
REMARK  status: ('A' for Active; 'I' for Inactive)
REMARK    1  A    between atoms: C_1  and  C_2
REMARK    2  A    between atoms: C_2  and  C_31
REMARK    3  A    between atoms: C_4  and  N_13
REMARK    4  A    between atoms: C_14  and  C_16
REMARK    5  A    between atoms: N_19  and  C_22
REMARK    6  A    between atoms: C_22  and  C_23
REMARK                            x       y       z     vdW  Elec       q    Type
REMARK                         _______ _______ _______ _____ _____    ______ ____
ROOT
ATOM      1  N   UNL     1      -2.699  -2.625   0.231  0.00  0.00    -0.308 N 
ATOM      2  C   UNL     1      -3.058  -3.824  -0.270  0.00  0.00    +0.216 C 
ATOM      3  O   UNL     1      -2.289  -4.440  -0.978  0.00  0.00    -0.276 OA
ATOM      4  H   UNL     1      -3.313  -2.133   0.797  0.00  0.00    +0.149 HD
ENDROOT
BRANCH   1   8
ATOM      5  C   UNL     1      -0.019   1.526   0.010  0.00  0.00    +0.055 C 
ATOM      6  C   UNL     1       0.002  -0.004   0.002  0.00  0.00    +0.107 C 
ATOM      7  C   UNL     1      -1.435  -0.540   0.040  0.00  0.00    +0.074 C 
ATOM      8  C   UNL     1      -1.382  -2.065  -0.081  0.00  0.00    +0.110 C 
ATOM      9  C   UNL     1      -0.362  -2.616   0.883  0.00  0.00    +0.015 A 
ATOM     10  C   UNL     1      -0.413  -3.961   1.210  0.00  0.00    +0.009 A 
ATOM     11  C   UNL     1       0.507  -4.500   2.088  0.00  0.00    +0.001 A 
ATOM     12  C   UNL     1       1.486  -3.696   2.643  0.00  0.00    +0.004 A 
ATOM     13  C   UNL     1       1.540  -2.355   2.323  0.00  0.00    +0.046 A 
ATOM     14  C   UNL     1       0.613  -1.808   1.441  0.00  0.00    +0.126 A 
ATOM     15  O   UNL     1       0.692  -0.482   1.158  0.00  0.00    -0.486 OA
ATOM     16  C   UNL     1       0.706  -0.503  -1.262  0.00  0.00    +0.055 C 
ENDBRANCH   1   8
BRANCH   2  17
ATOM     17  C   UNL     1      -4.413  -4.400   0.051  0.00  0.00    +0.071 C 
ATOM     18  C   UNL     1      -4.544  -4.586   1.566  0.00  0.00    -0.006 C 
ATOM     19  C   UNL     1      -5.890  -5.244   1.878  0.00  0.00    -0.078 C 
ATOM     20  N   UNL     1      -5.965  -6.551   1.214  0.00  0.00    +0.382 N 
ATOM     21  C   UNL     1      -5.912  -6.375  -0.242  0.00  0.00    -0.078 C 
ATOM     22  C   UNL     1      -4.567  -5.760  -0.636  0.00  0.00    -0.006 C 
ATOM     23  H   UNL     1      -5.189  -7.124   1.512  0.00  0.00    -0.081 HD
BRANCH  20  24
ATOM     24  C   UNL     1      -7.225  -7.213   1.580  0.00  0.00    -0.040 C 
BRANCH  24  25
ATOM     25  C   UNL     1      -7.249  -8.603   1.000  0.00  0.00    -0.027 A 
ATOM     26  C   UNL     1      -7.767  -8.816  -0.265  0.00  0.00    +0.044 A 
ATOM     27  C   UNL     1      -7.789 -10.093  -0.797  0.00  0.00    +0.020 A 
ATOM     28  C   UNL     1      -7.294 -11.156  -0.065  0.00  0.00    +0.003 A 
ATOM     29  C   UNL     1      -6.777 -10.944   1.199  0.00  0.00    +0.020 A 
ATOM     30  C   UNL     1      -6.748  -9.666   1.729  0.00  0.00    +0.044 A 
ATOM     31 CL   UNL     1      -6.091  -9.399   3.314  0.00  0.00    -0.083 Cl
ATOM     32 CL   UNL     1      -8.390  -7.482  -1.185  0.00  0.00    -0.083 Cl
ENDBRANCH  24  25
ENDBRANCH  20  24
ENDBRANCH   2  17
TORSDOF 4
