REMARK  Name = ZINC39546140
REMARK  9 active torsions:
REMARK  status: ('A' for Active; 'I' for Inactive)
REMARK    1  A    between atoms: C_1  and  N_2
REMARK    2  A    between atoms: C_7  and  O_24
REMARK    3  A    between atoms: C_8  and  O_23
REMARK    4  A    between atoms: C_9  and  O_22
REMARK    5  A    between atoms: C_11  and  C_13
REMARK    6  A    between atoms: C_13  and  C_14
REMARK    7  A    between atoms: C_17  and  O_21
REMARK    8  A    between atoms: C_18  and  O_20
REMARK    9  A    between atoms: O_24  and  C_25
REMARK                            x       y       z     vdW  Elec       q    Type
REMARK                         _______ _______ _______ _____ _____    ______ ____
ROOT
ATOM      1  C   UNL     1      -0.234   1.407  -0.005  0.00  0.00    -0.095 C 
ATOM      2  N   UNL     1      -0.099  -0.056   0.007  0.00  0.00    +0.383 N 
ATOM      3  C   UNL     1       0.479  -0.508  -1.267  0.00  0.00    -0.074 C 
ATOM      4  C   UNL     1       0.328  -2.026  -1.361  0.00  0.00    +0.017 C 
ATOM      5  C   UNL     1       0.855  -2.670  -0.104  0.00  0.00    -0.040 A 
ATOM      6  C   UNL     1       1.130  -4.029  -0.120  0.00  0.00    +0.053 A 
ATOM      7  C   UNL     1       1.612  -4.661   1.014  0.00  0.00    +0.165 A 
ATOM      8  C   UNL     1       1.822  -3.927   2.176  0.00  0.00    +0.201 A 
ATOM      9  C   UNL     1       1.547  -2.567   2.189  0.00  0.00    +0.164 A 
ATOM     10  C   UNL     1       1.064  -1.937   1.046  0.00  0.00    -0.012 A 
ATOM     11  C   UNL     1       0.788  -0.458   1.103  0.00  0.00    -0.030 C 
ATOM     12  H   UNL     1      -1.007  -0.478   0.136  0.00  0.00    -0.081 HD
ENDROOT
BRANCH   9  13
ATOM     13  O   UNL     1       1.751  -1.846   3.324  0.00  0.00    -0.503 OA
ATOM     14  H   UNL     1       2.638  -1.468   3.395  0.00  0.00    +0.292 HD
ENDBRANCH   9  13
BRANCH   8  15
ATOM     15  O   UNL     1       2.294  -4.540   3.295  0.00  0.00    -0.501 OA
ATOM     16  H   UNL     1       3.259  -4.547   3.362  0.00  0.00    +0.292 HD
ENDBRANCH   8  15
BRANCH   7  17
ATOM     17  O   UNL     1       1.880  -5.994   0.991  0.00  0.00    -0.491 OA
ATOM     18  C   UNL     1       1.640  -6.683  -0.238  0.00  0.00    +0.277 C 
ENDBRANCH   7  17
BRANCH  11  19
ATOM     19  C   UNL     1       0.124  -0.120   2.439  0.00  0.00    +0.024 C 
BRANCH  19  20
ATOM     20  C   UNL     1      -1.127  -0.945   2.602  0.00  0.00    -0.045 A 
ATOM     21  C   UNL     1      -2.308  -0.530   2.014  0.00  0.00    +0.007 A 
ATOM     22  C   UNL     1      -3.458  -1.283   2.161  0.00  0.00    +0.049 A 
ATOM     23  C   UNL     1      -3.428  -2.457   2.896  0.00  0.00    +0.158 A 
ATOM     24  C   UNL     1      -2.239  -2.875   3.487  0.00  0.00    +0.158 A 
ATOM     25  C   UNL     1      -1.089  -2.118   3.332  0.00  0.00    +0.052 A 
BRANCH  24  26
ATOM     26  O   UNL     1      -2.205  -4.026   4.210  0.00  0.00    -0.503 OA
ATOM     27  H   UNL     1      -1.992  -4.812   3.688  0.00  0.00    +0.292 HD
ENDBRANCH  24  26
BRANCH  23  28
ATOM     28  O   UNL     1      -4.559  -3.199   3.041  0.00  0.00    -0.503 OA
ATOM     29  H   UNL     1      -4.682  -3.866   2.353  0.00  0.00    +0.292 HD
ENDBRANCH  23  28
ENDBRANCH  19  20
ENDBRANCH  11  19
TORSDOF 7
