REMARK  Name = ZINC20835438
REMARK  7 active torsions:
REMARK  status: ('A' for Active; 'I' for Inactive)
REMARK    1  A    between atoms: C_1  and  C_2
REMARK    2  A    between atoms: C_2  and  C_24
REMARK    3  A    between atoms: N_3  and  N_4
REMARK    4  A    between atoms: C_7  and  S_10
REMARK    5  A    between atoms: S_10  and  C_11
REMARK    6  A    between atoms: C_11  and  C_12
REMARK    7  A    between atoms: C_15  and  C_17
REMARK                            x       y       z     vdW  Elec       q    Type
REMARK                         _______ _______ _______ _____ _____    ______ ____
ROOT
ATOM      1  N   UNL     1      -0.011   0.966   0.007  0.00  0.00    -0.205 N 
ATOM      2  C   UNL     1      -1.222   1.643   0.017  0.00  0.00    +0.232 A 
ATOM      3  N   UNL     1      -2.463   1.070   0.019  0.00  0.00    -0.186 NA
ATOM      4  C   UNL     1      -3.391   2.073   0.029  0.00  0.00    +0.211 A 
ATOM      5  N   UNL     1      -2.751   3.217   0.033  0.00  0.00    -0.144 NA
ATOM      6  N   UNL     1      -1.377   2.945   0.030  0.00  0.00    -0.245 N 
ATOM      7  H   UNL     1       0.004  -0.134   0.006  0.00  0.00    +0.177 HD
ATOM      8  H   UNL     1      -0.495   3.603   0.037  0.00  0.00    +0.192 HD
ENDROOT
BRANCH   1  11
ATOM      9  C   UNL     1       2.346  -0.458  -0.023  0.00  0.00    +0.068 C 
ATOM     10  C   UNL     1       2.326   1.049  -0.015  0.00  0.00    +0.063 C 
ATOM     11  N   UNL     1       1.193   1.683  -0.000  0.00  0.00    -0.184 NA
BRANCH  10  12
ATOM     12  C   UNL     1       3.592   1.803  -0.023  0.00  0.00    -0.002 A 
ATOM     13  C   UNL     1       4.814   1.124  -0.032  0.00  0.00    +0.011 A 
ATOM     14  C   UNL     1       5.995   1.836  -0.046  0.00  0.00    +0.016 A 
ATOM     15  C   UNL     1       5.972   3.221  -0.038  0.00  0.00    +0.018 A 
ATOM     16  C   UNL     1       4.766   3.900  -0.022  0.00  0.00    +0.016 A 
ATOM     17  C   UNL     1       3.577   3.200  -0.015  0.00  0.00    +0.011 A 
ATOM     18 BR   UNL     1       7.597   4.189  -0.048  0.00  0.00    -0.050 Br
ENDBRANCH  10  12
ENDBRANCH   1  11
BRANCH   4  19
ATOM     19  S   UNL     1      -5.141   1.864   0.036  0.00  0.00    -0.075 S 
BRANCH  19  20
ATOM     20  C   UNL     1      -5.784   3.560   0.049  0.00  0.00    +0.175 C 
BRANCH  20  21
ATOM     21  C   UNL     1      -7.291   3.526   0.056  0.00  0.00    +0.228 A 
ATOM     22  N   UNL     1      -8.056   3.503   1.111  0.00  0.00    -0.111 NA
ATOM     23  N   UNL     1      -9.290   3.476   0.748  0.00  0.00    -0.107 NA
ATOM     24  C   UNL     1      -9.355   3.481  -0.562  0.00  0.00    +0.248 A 
ATOM     25  O   UNL     1      -8.090   3.519  -1.026  0.00  0.00    -0.419 OA
BRANCH  24  26
ATOM     26  C   UNL     1     -10.587   3.457  -1.379  0.00  0.00    +0.039 A 
ATOM     27  C   UNL     1     -10.505   3.472  -2.772  0.00  0.00    +0.014 A 
ATOM     28  C   UNL     1     -11.658   3.444  -3.529  0.00  0.00    +0.021 A 
ATOM     29  C   UNL     1     -12.896   3.413  -2.908  0.00  0.00    +0.041 A 
ATOM     30  C   UNL     1     -12.984   3.404  -1.526  0.00  0.00    +0.021 A 
ATOM     31  C   UNL     1     -11.838   3.426  -0.759  0.00  0.00    +0.014 A 
ATOM     32 CL   UNL     1     -14.343   3.386  -3.867  0.00  0.00    -0.084 Cl
ENDBRANCH  24  26
ENDBRANCH  20  21
ENDBRANCH  19  20
ENDBRANCH   4  19
TORSDOF 6
