REMARK  Name = ZINC67118871
REMARK  12 active torsions:
REMARK  status: ('A' for Active; 'I' for Inactive)
REMARK    1  A    between atoms: C_1  and  C_2
REMARK    2  A    between atoms: C_2  and  C_3
REMARK    3  A    between atoms: C_3  and  C_5
REMARK    4  A    between atoms: C_3  and  N_6
REMARK    5  A    between atoms: N_6  and  C_7
REMARK    6  A    between atoms: N_6  and  C_8
REMARK    7  A    between atoms: C_8  and  C_9
REMARK    8  A    between atoms: C_9  and  N_10
REMARK    9  A    between atoms: N_10  and  S_11
REMARK   10  A    between atoms: S_11  and  C_14
REMARK   11  A    between atoms: C_17  and  S_21
REMARK   12  A    between atoms: S_21  and  N_24
REMARK                            x       y       z     vdW  Elec       q    Type
REMARK                         _______ _______ _______ _____ _____    ______ ____
ROOT
ATOM      1  S   UNL     1      -1.634   3.537  -5.708  0.00  0.00    +0.061 S 
ATOM      2  O   UNL     1      -1.577   4.955  -5.623  0.00  0.00    -0.153 OA
ATOM      3  O   UNL     1      -0.958   2.807  -6.723  0.00  0.00    -0.153 OA
ENDROOT
BRANCH   1   4
ATOM      4  C   UNL     1      -3.339   3.109  -5.831  0.00  0.00    +0.140 A 
ATOM      5  C   UNL     1      -4.301   4.101  -5.859  0.00  0.00    +0.033 A 
ATOM      6  C   UNL     1      -5.638   3.765  -5.955  0.00  0.00    +0.030 A 
ATOM      7  C   UNL     1      -6.015   2.436  -6.024  0.00  0.00    +0.108 A 
ATOM      8  C   UNL     1      -5.055   1.443  -5.997  0.00  0.00    +0.068 A 
ATOM      9  C   UNL     1      -3.714   1.778  -5.906  0.00  0.00    +0.151 A 
ATOM     10  F   UNL     1      -2.775   0.808  -5.884  0.00  0.00    -0.203 F 
BRANCH   7  11
ATOM     11  S   UNL     1      -7.720   2.010  -6.146  0.00  0.00    +0.056 S 
ATOM     12  O   UNL     1      -7.844   0.685  -5.646  0.00  0.00    -0.153 OA
ATOM     13  O   UNL     1      -8.451   3.100  -5.602  0.00  0.00    -0.153 OA
BRANCH  11  14
ATOM     14  N   UNL     1      -8.095   1.945  -7.758  0.00  0.00    -0.204 NA
ATOM     15  H   UNL     1      -7.412   2.128  -8.422  0.00  0.00    +0.144 HD
ATOM     16  H   UNL     1      -8.997   1.723  -8.037  0.00  0.00    +0.144 HD
ENDBRANCH  11  14
ENDBRANCH   7  11
ENDBRANCH   1   4
BRANCH   1  17
ATOM     17  N   UNL     1      -1.085   2.954  -4.259  0.00  0.00    -0.192 NA
ATOM     18  H   UNL     1      -0.791   3.568  -3.569  0.00  0.00    +0.148 HD
BRANCH  17  19
ATOM     19  C   UNL     1      -1.045   1.509  -4.019  0.00  0.00    +0.087 C 
BRANCH  19  20
ATOM     20  C   UNL     1      -0.173   1.219  -2.796  0.00  0.00    -0.062 C 
BRANCH  20  21
ATOM     21  N   UNL     1      -0.132  -0.230  -2.556  0.00  0.00    +0.380 N 
ATOM     22  C   UNL     1       0.528  -0.895  -3.687  0.00  0.00    -0.096 C 
ATOM     23  H   UNL     1      -1.073  -0.582  -2.461  0.00  0.00    -0.082 HD
BRANCH  21  24
ATOM     24  C   UNL     1       0.618  -0.501  -1.323  0.00  0.00    -0.072 C 
ATOM     25  C   UNL     1       2.081  -0.095  -1.516  0.00  0.00    -0.013 C 
BRANCH  24  27
ATOM     26  C   UNL     1      -0.913  -2.382  -0.725  0.00  0.00    +0.002 C 
ATOM     27  C   UNL     1       0.541  -1.994  -0.997  0.00  0.00    -0.019 C 
ENDBRANCH  24  27
ENDBRANCH  21  24
ENDBRANCH  20  21
ENDBRANCH  19  20
ENDBRANCH  17  19
ENDBRANCH   1  17
TORSDOF 9
