REMARK  Name = ZINC04337817
REMARK  9 active torsions:
REMARK  status: ('A' for Active; 'I' for Inactive)
REMARK    1  A    between atoms: C_1  and  C_2
REMARK    2  A    between atoms: C_2  and  N_52
REMARK    3  A    between atoms: C_3  and  C_4
REMARK    4  A    between atoms: C_3  and  N_52
REMARK    5  A    between atoms: C_5  and  C_6
REMARK    6  A    between atoms: C_5  and  N_52
REMARK    7  A    between atoms: C_6  and  N_7
REMARK    8  A    between atoms: C_8  and  C_24
REMARK    9  A    between atoms: C_15  and  C_23
REMARK                            x       y       z     vdW  Elec       q    Type
REMARK                         _______ _______ _______ _____ _____    ______ ____
ROOT
ATOM      1  N   UNL     1      -1.010   1.468  -2.574  0.00  0.00    -0.285 N 
ATOM      2  C   UNL     1      -1.478   0.293  -3.319  0.00  0.00    +0.151 C 
ATOM      3  C   UNL     1      -0.817   0.367  -4.670  0.00  0.00    +0.073 A 
ATOM      4  C   UNL     1      -0.875  -0.496  -5.853  0.00  0.00    +0.199 A 
ATOM      5  O   UNL     1      -1.556  -1.506  -5.875  0.00  0.00    -0.287 OA
ATOM      6  C   UNL     1      -0.066  -0.082  -7.016  0.00  0.00    +0.065 A 
ATOM      7  C   UNL     1      -0.046  -0.829  -8.193  0.00  0.00    +0.018 A 
ATOM      8  C   UNL     1       0.717  -0.409  -9.248  0.00  0.00    -0.050 A 
ATOM      9  C   UNL     1       1.469   0.753  -9.150  0.00  0.00    +0.007 A 
ATOM     10  C   UNL     1       1.461   1.504  -7.995  0.00  0.00    +0.047 A 
ATOM     11  C   UNL     1       0.692   1.097  -6.909  0.00  0.00    +0.139 A 
ATOM     12  O   UNL     1       0.674   1.819  -5.774  0.00  0.00    -0.450 OA
ATOM     13  C   UNL     1      -0.047   1.483  -4.686  0.00  0.00    +0.199 A 
ATOM     14  C   UNL     1      -0.182   2.162  -3.373  0.00  0.00    +0.283 C 
ATOM     15  O   UNL     1       0.377   3.196  -3.065  0.00  0.00    -0.267 OA
ATOM     16  C   UNL     1       0.742  -1.214 -10.521  0.00  0.00    +0.044 C 
ENDROOT
BRANCH   2  17
ATOM     17  C   UNL     1      -1.065  -0.971  -2.608  0.00  0.00    +0.015 A 
ATOM     18  C   UNL     1      -1.765  -2.118  -2.430  0.00  0.00    +0.013 A 
ATOM     19  C   UNL     1      -1.178  -3.160  -1.738  0.00  0.00    +0.008 A 
ATOM     20  C   UNL     1       0.080  -3.005  -1.257  0.00  0.00    +0.045 A 
ATOM     21  S   UNL     1       0.476  -1.347  -1.789  0.00  0.00    -0.099 S 
ENDBRANCH   2  17
BRANCH   1  22
ATOM     22  C   UNL     1      -1.384   1.825  -1.203  0.00  0.00    +0.090 C 
BRANCH  22  23
ATOM     23  C   UNL     1      -0.399   1.185  -0.223  0.00  0.00    -0.060 C 
BRANCH  23  24
ATOM     24  N   UNL     1      -0.802   1.536   1.155  0.00  0.00    +0.380 N 
ATOM     25  H   UNL     1      -1.794   1.306   1.281  0.00  0.00    -0.082 HD
BRANCH  24  27
ATOM     26  C   UNL     1      -0.552  -0.663   2.191  0.00  0.00    -0.017 C 
ATOM     27  C   UNL     1      -0.002   0.763   2.128  0.00  0.00    -0.082 C 
ENDBRANCH  24  27
BRANCH  24  28
ATOM     28  C   UNL     1      -0.612   2.985   1.383  0.00  0.00    -0.082 C 
ATOM     29  C   UNL     1      -1.368   3.385   2.652  0.00  0.00    -0.017 C 
ENDBRANCH  24  28
ENDBRANCH  23  24
ENDBRANCH  22  23
ENDBRANCH   1  22
TORSDOF 6
