REMARK  Name = ZINC04359494
REMARK  10 active torsions:
REMARK  status: ('A' for Active; 'I' for Inactive)
REMARK    1  A    between atoms: C_1  and  C_2
REMARK    2  A    between atoms: C_2  and  N_3
REMARK    3  A    between atoms: N_3  and  C_4
REMARK    4  A    between atoms: N_3  and  C_6
REMARK    5  A    between atoms: C_4  and  C_5
REMARK    6  A    between atoms: C_6  and  C_7
REMARK    7  A    between atoms: C_7  and  N_8
REMARK    8  A    between atoms: C_12  and  C_19
REMARK    9  A    between atoms: C_13  and  C_18
REMARK   10  A    between atoms: C_20  and  C_22
REMARK                            x       y       z     vdW  Elec       q    Type
REMARK                         _______ _______ _______ _____ _____    ______ ____
ROOT
ATOM      1  N   UNL     1      -2.745  -3.632   0.680  0.00  0.00    -0.246 N 
ATOM      2  C   UNL     1      -2.753  -4.111   1.978  0.00  0.00    +0.168 A 
ATOM      3  N   UNL     1      -2.641  -5.349   2.400  0.00  0.00    -0.224 NA
ATOM      4  C   UNL     1      -2.665  -5.675   3.710  0.00  0.00    +0.083 A 
ATOM      5  C   UNL     1      -2.556  -6.959   4.293  0.00  0.00    -0.021 A 
ATOM      6  C   UNL     1      -2.601  -7.117   5.654  0.00  0.00    -0.045 A 
ATOM      7  C   UNL     1      -2.754  -6.031   6.505  0.00  0.00    +0.005 A 
ATOM      8  C   UNL     1      -2.864  -4.761   5.969  0.00  0.00    +0.017 A 
ATOM      9  C   UNL     1      -2.820  -4.594   4.607  0.00  0.00    +0.041 A 
ATOM     10  S   UNL     1      -2.910  -3.201   3.508  0.00  0.00    -0.052 S 
ATOM     11  C   UNL     1      -2.483  -8.500   6.239  0.00  0.00    +0.044 C 
ATOM     12  C   UNL     1      -2.389  -8.167   3.408  0.00  0.00    +0.046 C 
ATOM     13  C   UNL     1      -2.614  -4.487  -0.353  0.00  0.00    +0.287 C 
ATOM     14  O   UNL     1      -2.592  -5.687  -0.151  0.00  0.00    -0.266 OA
ENDROOT
BRANCH  13  15
ATOM     15  C   UNL     1      -2.497  -3.973  -1.720  0.00  0.00    +0.190 A 
ATOM     16  C   UNL     1      -2.471  -4.723  -2.861  0.00  0.00    +0.054 A 
ATOM     17  C   UNL     1      -2.350  -3.825  -3.933  0.00  0.00    +0.042 A 
ATOM     18  C   UNL     1      -2.309  -2.581  -3.406  0.00  0.00    +0.196 A 
ATOM     19  O   UNL     1      -2.403  -2.674  -2.073  0.00  0.00    -0.458 OA
ENDBRANCH  13  15
BRANCH   1  20
ATOM     20  C   UNL     1      -2.878  -2.195   0.429  0.00  0.00    +0.097 C 
BRANCH  20  21
ATOM     21  C   UNL     1      -1.489  -1.567   0.307  0.00  0.00    -0.059 C 
BRANCH  21  22
ATOM     22  N   UNL     1      -1.621  -0.155  -0.079  0.00  0.00    +0.380 N 
ATOM     23  H   UNL     1      -2.164  -0.088  -0.926  0.00  0.00    -0.082 HD
BRANCH  22  25
ATOM     24  C   UNL     1      -2.547   2.025   0.544  0.00  0.00    -0.017 C 
ATOM     25  C   UNL     1      -2.297   0.585   0.996  0.00  0.00    -0.082 C 
ENDBRANCH  22  25
BRANCH  22  26
ATOM     26  C   UNL     1      -0.288   0.418  -0.304  0.00  0.00    -0.082 C 
ATOM     27  C   UNL     1       0.358  -0.254  -1.518  0.00  0.00    -0.017 C 
ENDBRANCH  22  26
ENDBRANCH  21  22
ENDBRANCH  20  21
ENDBRANCH   1  20
TORSDOF 6
