REMARK  Name = ZINC21135180
REMARK  11 active torsions:
REMARK  status: ('A' for Active; 'I' for Inactive)
REMARK    1  A    between atoms: C_1  and  C_2
REMARK    2  A    between atoms: C_2  and  N_3
REMARK    3  A    between atoms: C_7  and  C_9
REMARK    4  A    between atoms: C_9  and  C_11
REMARK    5  A    between atoms: C_9  and  S_12
REMARK    6  A    between atoms: S_12  and  C_13
REMARK    7  A    between atoms: C_21  and  C_25
REMARK    8  A    between atoms: N_28  and  C_29
REMARK    9  A    between atoms: C_29  and  C_30
REMARK   10  A    between atoms: C_30  and  C_31
REMARK   11  A    between atoms: C_30  and  C_32
REMARK                            x       y       z     vdW  Elec       q    Type
REMARK                         _______ _______ _______ _____ _____    ______ ____
ROOT
ATOM      1  C   UNL     1      -3.961   2.013   0.768  0.00  0.00    +0.173 A 
ATOM      2  N   UNL     1      -3.791   3.242   0.323  0.00  0.00    -0.216 NA
ATOM      3  C   UNL     1      -4.795   4.111   0.327  0.00  0.00    +0.117 A 
ATOM      4  C   UNL     1      -6.072   3.777   0.811  0.00  0.00    +0.076 A 
ATOM      5  C   UNL     1      -7.075   4.842   0.756  0.00  0.00    -0.023 A 
ATOM      6  C   UNL     1      -6.681   6.029   0.252  0.00  0.00    -0.004 A 
ATOM      7  S   UNL     1      -4.975   5.804  -0.174  0.00  0.00    -0.073 S 
ATOM      8  C   UNL     1      -7.510   7.266   0.088  0.00  0.00    +0.046 C 
ATOM      9  C   UNL     1      -8.989   6.881   0.235  0.00  0.00    -0.009 C 
ATOM     10  C   UNL     1      -9.146   6.006   1.482  0.00  0.00    +0.008 C 
ATOM     11  C   UNL     1      -8.507   4.638   1.242  0.00  0.00    +0.037 C 
ATOM     12  C   UNL     1      -9.836   8.146   0.381  0.00  0.00    +0.008 C 
ATOM     13  C   UNL     1      -6.224   2.438   1.294  0.00  0.00    +0.263 A 
ATOM     14  O   UNL     1      -7.296   2.058   1.733  0.00  0.00    -0.267 OA
ATOM     15  N   UNL     1      -5.168   1.605   1.256  0.00  0.00    -0.287 N 
ENDROOT
BRANCH   1  16
ATOM     16  S   UNL     1      -2.608   0.885   0.740  0.00  0.00    -0.075 S 
BRANCH  16  17
ATOM     17  C   UNL     1      -1.330   1.944   0.019  0.00  0.00    +0.137 C 
ATOM     18  C   UNL     1      -1.720   2.310  -1.414  0.00  0.00    +0.029 C 
BRANCH  17  23
ATOM     19  N   UNL     1       3.478   1.930  -0.021  0.00  0.00    -0.299 N 
ATOM     20  C   UNL     1       2.320   1.240  -0.013  0.00  0.00    +0.306 C 
ATOM     21  O   UNL     1       2.336   0.025  -0.020  0.00  0.00    -0.252 OA
ATOM     22  N   UNL     1       1.143   1.898   0.001  0.00  0.00    -0.239 N 
ATOM     23  C   UNL     1      -0.014   1.208   0.009  0.00  0.00    +0.233 C 
ATOM     24  O   UNL     1       0.002  -0.004   0.002  0.00  0.00    -0.274 OA
ATOM     25  H   UNL     1       3.463   3.030  -0.015  0.00  0.00    +0.150 HD
ATOM     26  H   UNL     1       1.129   2.998   0.007  0.00  0.00    +0.159 HD
BRANCH  19  28
ATOM     27  C   UNL     1       5.905   2.224  -0.042  0.00  0.00    +0.024 C 
ATOM     28  C   UNL     1       4.756   1.214  -0.037  0.00  0.00    +0.102 C 
ENDBRANCH  19  28
ENDBRANCH  17  23
ENDBRANCH  16  17
ENDBRANCH   1  16
BRANCH  15  29
ATOM     29  C   UNL     1      -5.317   0.234   1.750  0.00  0.00    +0.130 C 
BRANCH  29  30
ATOM     30  C   UNL     1      -4.982   0.189   3.242  0.00  0.00    +0.003 C 
ATOM     31  C   UNL     1      -6.009   1.013   4.020  0.00  0.00    +0.009 C 
ATOM     32  C   UNL     1      -5.016  -1.261   3.729  0.00  0.00    +0.009 C 
ENDBRANCH  29  30
ENDBRANCH  15  29
TORSDOF 6
