REMARK  Name = ZINC64032407
REMARK  9 active torsions:
REMARK  status: ('A' for Active; 'I' for Inactive)
REMARK    1  A    between atoms: C_1  and  C_2
REMARK    2  A    between atoms: C_2  and  C_3
REMARK    3  A    between atoms: C_2  and  C_4
REMARK    4  A    between atoms: N_18  and  C_19
REMARK    5  A    between atoms: C_19  and  N_21
REMARK    6  A    between atoms: N_21  and  C_22
REMARK    7  A    between atoms: C_27  and  C_28
REMARK    8  A    between atoms: C_28  and  O_30
REMARK    9  A    between atoms: O_30  and  C_31
REMARK                            x       y       z     vdW  Elec       q    Type
REMARK                         _______ _______ _______ _____ _____    ______ ____
ROOT
ATOM      1  C   UNL     1      -0.959   0.281  -0.230  0.00  0.00    +0.104 C 
ATOM      2  C   UNL     1      -1.056  -1.085   0.458  0.00  0.00    +0.127 C 
ATOM      3  C   UNL     1      -0.884  -2.134  -0.632  0.00  0.00    -0.035 C 
ATOM      4  C   UNL     1       0.131  -2.903  -0.256  0.00  0.00    -0.001 A 
ATOM      5  C   UNL     1       0.719  -4.112  -0.856  0.00  0.00    +0.010 A 
ATOM      6  C   UNL     1       1.780  -4.651  -0.200  0.00  0.00    +0.001 A 
ATOM      7  C   UNL     1       2.310  -4.115   0.978  0.00  0.00    +0.002 A 
ATOM      8  C   UNL     1       1.829  -3.010   1.602  0.00  0.00    +0.026 A 
ATOM      9  C   UNL     1       0.710  -2.356   1.009  0.00  0.00    +0.043 A 
ATOM     10  N   UNL     1       0.037  -1.293   1.411  0.00  0.00    -0.376 N 
ATOM     11  C   UNL     1      -1.719  -2.141  -1.889  0.00  0.00    +0.052 C 
ATOM     12  C   UNL     1      -1.648  -0.719  -2.475  0.00  0.00    +0.111 C 
ATOM     13  N   UNL     1      -1.849   0.261  -1.401  0.00  0.00    -0.307 N 
ATOM     14  H   UNL     1       0.225  -0.742   2.187  0.00  0.00    +0.160 HD
ENDROOT
BRANCH   1  16
ATOM     15  C   UNL     1       0.537   1.810  -1.521  0.00  0.00    +0.009 C 
ATOM     16  C   UNL     1       0.482   0.534  -0.679  0.00  0.00    +0.006 C 
ATOM     17  C   UNL     1       1.378   0.695   0.551  0.00  0.00    +0.009 C 
ENDBRANCH   1  16
BRANCH  13  18
ATOM     18  C   UNL     1      -2.858   1.150  -1.488  0.00  0.00    +0.137 C 
ATOM     19  S   UNL     1      -3.026   2.373  -0.301  0.00  0.00    -0.018 S 
BRANCH  18  20
ATOM     20  N   UNL     1      -3.736   1.077  -2.508  0.00  0.00    -0.296 N 
ATOM     21  H   UNL     1      -3.602   0.428  -3.217  0.00  0.00    +0.154 HD
BRANCH  20  22
ATOM     22  C   UNL     1      -4.833   1.932  -2.546  0.00  0.00    +0.047 A 
ATOM     23  C   UNL     1      -5.547   2.202  -1.386  0.00  0.00    +0.024 A 
ATOM     24  C   UNL     1      -6.635   3.050  -1.425  0.00  0.00    +0.002 A 
ATOM     25  C   UNL     1      -7.023   3.640  -2.618  0.00  0.00    +0.001 A 
ATOM     26  C   UNL     1      -6.326   3.385  -3.779  0.00  0.00    +0.017 A 
ATOM     27  C   UNL     1      -5.219   2.531  -3.755  0.00  0.00    +0.080 A 
BRANCH  27  28
ATOM     28  C   UNL     1      -4.466   2.258  -4.991  0.00  0.00    +0.341 C 
ATOM     29  O   UNL     1      -3.559   1.450  -4.984  0.00  0.00    -0.245 OA
BRANCH  28  30
ATOM     30  O   UNL     1      -4.784   2.905  -6.130  0.00  0.00    -0.464 OA
ATOM     31  C   UNL     1      -4.013   2.590  -7.291  0.00  0.00    +0.280 C 
ENDBRANCH  28  30
ENDBRANCH  27  28
ENDBRANCH  20  22
ENDBRANCH  18  20
ENDBRANCH  13  18
TORSDOF 6
