REMARK  Name = ZINC04211860
REMARK  9 active torsions:
REMARK  status: ('A' for Active; 'I' for Inactive)
REMARK    1  A    between atoms: C_1  and  C_2
REMARK    2  A    between atoms: N_5  and  C_8
REMARK    3  A    between atoms: C_11  and  N_21
REMARK    4  A    between atoms: C_13  and  C_14
REMARK    5  A    between atoms: N_16  and  C_17
REMARK    6  A    between atoms: C_17  and  C_18
REMARK    7  A    between atoms: C_18  and  C_19
REMARK    8  A    between atoms: C_18  and  C_20
REMARK    9  A    between atoms: N_24  and  C_25
REMARK                            x       y       z     vdW  Elec       q    Type
REMARK                         _______ _______ _______ _____ _____    ______ ____
ROOT
ATOM      1  C   UNL     1      -3.361  -6.447  -0.281  0.00  0.00    +0.042 A 
ATOM      2  C   UNL     1      -2.099  -5.865  -0.292  0.00  0.00    +0.026 A 
ATOM      3  C   UNL     1      -1.968  -4.496  -0.196  0.00  0.00    +0.025 A 
ATOM      4  C   UNL     1      -3.094  -3.688  -0.077  0.00  0.00    +0.036 A 
ATOM      5  C   UNL     1      -4.357  -4.252  -0.066  0.00  0.00    +0.038 A 
ATOM      6  C   UNL     1      -4.501  -5.638  -0.168  0.00  0.00    +0.059 A 
ENDROOT
BRANCH   1  11
ATOM      7  C   UNL     1      -2.942 -12.056  -0.690  0.00  0.00    +0.007 C 
ATOM      8  C   UNL     1      -2.602 -10.568  -0.580  0.00  0.00    -0.011 C 
ATOM      9  C   UNL     1      -3.202 -10.001   0.710  0.00  0.00    +0.022 C 
ATOM     10  C   UNL     1      -2.911  -8.500   0.785  0.00  0.00    +0.105 C 
ATOM     11  N   UNL     1      -3.493  -7.828  -0.383  0.00  0.00    -0.329 N 
ATOM     12  C   UNL     1      -2.898  -8.323  -1.631  0.00  0.00    +0.105 C 
ATOM     13  C   UNL     1      -3.189  -9.818  -1.779  0.00  0.00    +0.022 C 
ENDBRANCH   1  11
BRANCH   4  14
ATOM     14  N   UNL     1      -2.949  -2.297   0.025  0.00  0.00    -0.269 N 
ATOM     15  C   UNL     1      -1.881  -1.776   0.662  0.00  0.00    +0.304 C 
ATOM     16  O   UNL     1      -1.095  -2.509   1.230  0.00  0.00    -0.252 OA
ATOM     17  N   UNL     1      -1.686  -0.442   0.669  0.00  0.00    -0.294 N 
ATOM     18  H   UNL     1      -3.616  -1.710  -0.363  0.00  0.00    +0.156 HD
ATOM     19  H   UNL     1      -2.313   0.142   0.216  0.00  0.00    +0.151 HD
BRANCH  17  20
ATOM     20  C   UNL     1      -0.525   0.124   1.362  0.00  0.00    +0.037 C 
ATOM     21  C   UNL     1      -0.540   1.647   1.218  0.00  0.00    +0.029 C 
ATOM     22  C   UNL     1       0.672   2.239   1.941  0.00  0.00    -0.008 C 
ATOM     23  C   UNL     1       1.956   1.680   1.325  0.00  0.00    +0.007 C 
ATOM     24  C   UNL     1       1.970   0.157   1.468  0.00  0.00    -0.008 C 
ATOM     25  C   UNL     1       0.759  -0.434   0.745  0.00  0.00    +0.029 C 
ATOM     26  C   UNL     1       1.912  -0.216   2.951  0.00  0.00    +0.007 C 
ATOM     27  C   UNL     1       0.628   0.342   3.567  0.00  0.00    -0.008 C 
ATOM     28  C   UNL     1       0.614   1.865   3.424  0.00  0.00    +0.007 C 
ATOM     29  C   UNL     1      -0.584  -0.249   2.844  0.00  0.00    +0.029 C 
ENDBRANCH  17  20
ENDBRANCH   4  14
BRANCH   6  30
ATOM     30  C   UNL     1      -5.844  -6.246  -0.157  0.00  0.00    +0.246 C 
ATOM     31  O   UNL     1      -5.963  -7.456  -0.149  0.00  0.00    -0.270 OA
ATOM     32  N   UNL     1      -6.939  -5.461  -0.155  0.00  0.00    -0.311 N 
ATOM     33  H   UNL     1      -6.844  -4.496  -0.161  0.00  0.00    +0.149 HD
BRANCH  32  34
ATOM     34  C   UNL     1      -8.274  -6.066  -0.144  0.00  0.00    +0.107 C 
BRANCH  34  35
ATOM     35  C   UNL     1      -9.334  -4.962  -0.144  0.00  0.00    -0.000 C 
ATOM     36  C   UNL     1     -10.724  -5.591  -0.258  0.00  0.00    +0.009 C 
ATOM     37  C   UNL     1      -9.240  -4.165   1.158  0.00  0.00    +0.009 C 
ENDBRANCH  34  35
ENDBRANCH  32  34
ENDBRANCH   6  30
TORSDOF 6
