REMARK  Name = ZINC08665107
REMARK  6 active torsions:
REMARK  status: ('A' for Active; 'I' for Inactive)
REMARK    1  A    between atoms: C_2  and  C_22
REMARK    2  A    between atoms: C_5  and  C_7
REMARK    3  A    between atoms: N_12  and  C_15
REMARK    4  A    between atoms: C_15  and  N_16
REMARK    5  A    between atoms: N_27  and  C_30
REMARK    6  A    between atoms: C_30  and  N_31
REMARK                            x       y       z     vdW  Elec       q    Type
REMARK                         _______ _______ _______ _____ _____    ______ ____
ROOT
ATOM      1  C   UNL     1       0.102   1.392  -0.141  0.00  0.00    +0.008 A 
ATOM      2  C   UNL     1       1.262   2.141   0.102  0.00  0.00    -0.023 A 
ATOM      3  C   UNL     1       2.394   1.522   0.648  0.00  0.00    +0.008 A 
ATOM      4  C   UNL     1       2.368   0.191   0.945  0.00  0.00    +0.008 A 
ATOM      5  C   UNL     1       1.208  -0.558   0.704  0.00  0.00    -0.023 A 
ATOM      6  C   UNL     1       0.076   0.061   0.155  0.00  0.00    +0.008 A 
ENDROOT
BRANCH   5   7
ATOM      7  C   UNL     1       1.179  -1.991   1.022  0.00  0.00    +0.036 C 
ATOM      8  C   UNL     1       2.023  -2.495   1.957  0.00  0.00    +0.098 C 
ATOM      9  N   UNL     1       2.864  -1.780   2.817  0.00  0.00    -0.265 N 
ATOM     10  C   UNL     1       3.526  -2.668   3.579  0.00  0.00    +0.311 C 
ATOM     11  O   UNL     1       4.338  -2.372   4.434  0.00  0.00    -0.252 OA
ATOM     12  N   UNL     1       3.170  -3.926   3.272  0.00  0.00    -0.238 N 
ATOM     13  C   UNL     1       2.247  -3.913   2.290  0.00  0.00    +0.267 C 
ATOM     14  O   UNL     1       1.709  -4.877   1.779  0.00  0.00    -0.268 OA
ATOM     15  H   UNL     1       2.954  -0.815   2.856  0.00  0.00    +0.157 HD
BRANCH  12  16
ATOM     16  C   UNL     1       3.702  -5.131   3.913  0.00  0.00    +0.043 C 
BRANCH  16  17
ATOM     17  N   UNL     1       2.867  -5.479   5.071  0.00  0.00    +0.390 N 
ATOM     18  C   UNL     1       2.966  -4.417   6.080  0.00  0.00    -0.077 C 
ATOM     19  C   UNL     1       2.036  -4.734   7.253  0.00  0.00    -0.019 C 
ATOM     20  C   UNL     1       2.447  -6.072   7.875  0.00  0.00    -0.004 C 
ATOM     21  C   UNL     1       2.412  -7.158   6.796  0.00  0.00    -0.019 C 
ATOM     22  C   UNL     1       3.328  -6.751   5.640  0.00  0.00    -0.077 C 
ATOM     23  H   UNL     1       1.907  -5.572   4.776  0.00  0.00    -0.079 HD
ENDBRANCH  16  17
ENDBRANCH  12  16
ENDBRANCH   5   7
BRANCH   2  24
ATOM     24  C   UNL     1       1.291   3.573  -0.218  0.00  0.00    +0.036 C 
ATOM     25  C   UNL     1       2.463   4.171  -0.549  0.00  0.00    +0.098 C 
ATOM     26  N   UNL     1       3.697   3.553  -0.780  0.00  0.00    -0.265 N 
ATOM     27  C   UNL     1       4.588   4.514  -1.081  0.00  0.00    +0.314 C 
ATOM     28  O   UNL     1       5.759   4.310  -1.337  0.00  0.00    -0.252 OA
ATOM     29  N   UNL     1       4.016   5.727  -1.060  0.00  0.00    -0.207 N 
ATOM     30  C   UNL     1       2.709   5.610  -0.748  0.00  0.00    +0.269 C 
ATOM     31  O   UNL     1       1.898   6.511  -0.649  0.00  0.00    -0.268 OA
ATOM     32  H   UNL     1       3.877   2.601  -0.733  0.00  0.00    +0.157 HD
BRANCH  29  33
ATOM     33  C   UNL     1       4.705   6.989  -1.341  0.00  0.00    +0.205 C 
BRANCH  33  34
ATOM     34  N   UNL     1       4.620   7.284  -2.778  0.00  0.00    -0.286 NA
ATOM     35  C   UNL     1       5.628   6.529  -3.531  0.00  0.00    +0.086 C 
ATOM     36  C   UNL     1       5.417   6.748  -5.031  0.00  0.00    +0.015 C 
ATOM     37  C   UNL     1       5.531   8.242  -5.345  0.00  0.00    +0.002 C 
ATOM     38  C   UNL     1       4.503   9.011  -4.511  0.00  0.00    +0.015 C 
ATOM     39  C   UNL     1       4.741   8.726  -3.027  0.00  0.00    +0.086 C 
ENDBRANCH  33  34
ENDBRANCH  29  33
ENDBRANCH   2  24
TORSDOF 6
