REMARK  Name = ZINC03340021
REMARK  7 active torsions:
REMARK  status: ('A' for Active; 'I' for Inactive)
REMARK    1  A    between atoms: C_1  and  N_53
REMARK    2  A    between atoms: C_6  and  C_8
REMARK    3  A    between atoms: C_8  and  C_9
REMARK    4  A    between atoms: C_9  and  S_10
REMARK    5  A    between atoms: S_10  and  C_11
REMARK    6  A    between atoms: C_14  and  C_23
REMARK    7  A    between atoms: N_15  and  C_16
REMARK                            x       y       z     vdW  Elec       q    Type
REMARK                         _______ _______ _______ _____ _____    ______ ____
ROOT
ATOM      1  C   UNL     1      -0.291   1.776   0.087  0.00  0.00    +0.196 A 
ATOM      2  N   UNL     1       0.904   2.299   0.255  0.00  0.00    -0.122 NA
ATOM      3  N   UNL     1       1.800   1.381   0.202  0.00  0.00    -0.128 NA
ATOM      4  C   UNL     1       1.236   0.213  -0.003  0.00  0.00    +0.169 A 
ATOM      5  N   UNL     1      -0.122   0.429  -0.083  0.00  0.00    -0.270 N 
ENDROOT
BRANCH   5   6
ATOM      6  C   UNL     1      -1.122  -0.530  -0.294  0.00  0.00    +0.051 A 
ATOM      7  C   UNL     1      -1.394  -1.478   0.684  0.00  0.00    +0.028 A 
ATOM      8  C   UNL     1      -2.383  -2.419   0.476  0.00  0.00    +0.022 A 
ATOM      9  C   UNL     1      -3.096  -2.424  -0.710  0.00  0.00    +0.041 A 
ATOM     10  C   UNL     1      -2.824  -1.484  -1.688  0.00  0.00    +0.022 A 
ATOM     11  C   UNL     1      -1.839  -0.538  -1.483  0.00  0.00    +0.028 A 
ATOM     12 CL   UNL     1      -4.335  -3.612  -0.971  0.00  0.00    -0.084 Cl
ENDBRANCH   5   6
BRANCH   4  13
ATOM     13  C   UNL     1       1.928  -1.088  -0.124  0.00  0.00    +0.020 A 
ATOM     14  C   UNL     1       3.241  -1.228   0.328  0.00  0.00    +0.011 A 
ATOM     15  C   UNL     1       3.879  -2.447   0.216  0.00  0.00    +0.001 A 
ATOM     16  C   UNL     1       3.224  -3.524  -0.353  0.00  0.00    +0.000 A 
ATOM     17  C   UNL     1       1.924  -3.390  -0.808  0.00  0.00    +0.001 A 
ATOM     18  C   UNL     1       1.273  -2.179  -0.698  0.00  0.00    +0.011 A 
ENDBRANCH   4  13
BRANCH   1  19
ATOM     19  S   UNL     1      -1.822   2.648   0.076  0.00  0.00    -0.086 S 
BRANCH  19  20
ATOM     20  C   UNL     1      -1.226   4.333   0.358  0.00  0.00    +0.076 C 
BRANCH  20  21
ATOM     21  C   UNL     1      -2.415   5.296   0.389  0.00  0.00    -0.004 C 
BRANCH  21  27
ATOM     22  C   UNL     1      -3.864   7.424  -0.746  0.00  0.00    -0.096 C 
ATOM     23  C   UNL     1      -2.590   9.058   0.505  0.00  0.00    -0.079 C 
ATOM     24  C   UNL     1      -1.861   9.306   1.828  0.00  0.00    -0.019 C 
ATOM     25  C   UNL     1      -0.663   8.358   1.930  0.00  0.00    -0.003 C 
ATOM     26  C   UNL     1      -1.155   6.912   1.818  0.00  0.00    -0.015 C 
ATOM     27  C   UNL     1      -1.904   6.734   0.495  0.00  0.00    -0.068 C 
ATOM     28  N   UNL     1      -3.059   7.657   0.470  0.00  0.00    +0.380 N 
ATOM     29  H   UNL     1      -3.644   7.481   1.296  0.00  0.00    -0.082 HD
ENDBRANCH  21  27
ENDBRANCH  20  21
ENDBRANCH  19  20
ENDBRANCH   1  19
TORSDOF 6
