REMARK  Name = ZINC62318339
REMARK  6 active torsions:
REMARK  status: ('A' for Active; 'I' for Inactive)
REMARK    1  A    between atoms: N_11  and  C_12
REMARK    2  A    between atoms: C_12  and  C_13
REMARK    3  A    between atoms: C_13  and  C_14
REMARK    4  A    between atoms: C_14  and  N_15
REMARK    5  A    between atoms: C_16  and  C_18
REMARK    6  A    between atoms: C_20  and  C_23
REMARK                            x       y       z     vdW  Elec       q    Type
REMARK                         _______ _______ _______ _____ _____    ______ ____
ROOT
ATOM      1  C   UNL     1       6.884  -0.168   1.380  0.00  0.00    +0.106 C 
ENDROOT
BRANCH   1   2
ATOM      2  N   UNL     1       7.374  -0.072   2.757  0.00  0.00    -0.310 N 
ATOM      3  C   UNL     1       8.672   0.203   2.993  0.00  0.00    +0.266 C 
ATOM      4  O   UNL     1       9.436   0.372   2.063  0.00  0.00    -0.268 OA
ATOM      5  H   UNL     1       6.764  -0.207   3.499  0.00  0.00    +0.149 HD
BRANCH   3   6
ATOM      6  C   UNL     1       9.169   0.299   4.387  0.00  0.00    +0.168 A 
ATOM      7  C   UNL     1      10.493   0.585   4.777  0.00  0.00    +0.089 A 
ATOM      8  C   UNL     1      10.538   0.584   6.140  0.00  0.00    +0.203 A 
ATOM      9  O   UNL     1       9.300   0.310   6.594  0.00  0.00    -0.351 OA
ATOM     10  N   UNL     1       8.450   0.139   5.474  0.00  0.00    -0.073 NA
BRANCH   8  11
ATOM     11  C   UNL     1      11.727   0.836   6.967  0.00  0.00    +0.172 A 
ATOM     12  C   UNL     1      11.771   0.830   8.329  0.00  0.00    +0.053 A 
ATOM     13  C   UNL     1      13.099   1.118   8.693  0.00  0.00    +0.042 A 
ATOM     14  C   UNL     1      13.796   1.285   7.550  0.00  0.00    +0.196 A 
ATOM     15  O   UNL     1      12.966   1.110   6.510  0.00  0.00    -0.460 OA
ENDBRANCH   8  11
ENDBRANCH   3   6
ENDBRANCH   1   2
BRANCH   1  16
ATOM     16  C   UNL     1       5.388  -0.487   1.392  0.00  0.00    +0.040 C 
BRANCH  16  17
ATOM     17  C   UNL     1       4.875  -0.586  -0.046  0.00  0.00    +0.128 C 
BRANCH  17  28
ATOM     18  C   UNL     1      -0.017   1.377   0.010  0.00  0.00    +0.002 A 
ATOM     19  C   UNL     1       1.169   2.091   0.002  0.00  0.00    +0.002 A 
ATOM     20  C   UNL     1       2.381   1.429  -0.013  0.00  0.00    +0.028 A 
ATOM     21  C   UNL     1       2.410   0.043  -0.021  0.00  0.00    +0.070 A 
ATOM     22  C   UNL     1       1.214  -0.678  -0.013  0.00  0.00    +0.067 A 
ATOM     23  C   UNL     1       0.002  -0.004   0.002  0.00  0.00    +0.028 A 
ATOM     24  N   UNL     1       1.557  -2.028  -0.023  0.00  0.00    -0.306 N 
ATOM     25  H   UNL     1       0.934  -2.772  -0.021  0.00  0.00    +0.170 HD
ATOM     26  C   UNL     1       2.900  -2.124  -0.036  0.00  0.00    +0.328 A 
ATOM     27  O   UNL     1       3.528  -3.166  -0.047  0.00  0.00    -0.247 OA
ATOM     28  N   UNL     1       3.443  -0.892  -0.035  0.00  0.00    -0.292 N 
ENDBRANCH  17  28
ENDBRANCH  16  17
ENDBRANCH   1  16
TORSDOF 6
