REMARK  Name = ZINC00888223
REMARK  8 active torsions:
REMARK  status: ('A' for Active; 'I' for Inactive)
REMARK    1  A    between atoms: C_4  and  C_7
REMARK    2  A    between atoms: C_7  and  N_8
REMARK    3  A    between atoms: N_8  and  C_9
REMARK    4  A    between atoms: C_9  and  C_11
REMARK    5  A    between atoms: C_9  and  C_18
REMARK    6  A    between atoms: C_14  and  O_17
REMARK    7  A    between atoms: N_20  and  C_21
REMARK    8  A    between atoms: C_26  and  C_28
REMARK                            x       y       z     vdW  Elec       q    Type
REMARK                         _______ _______ _______ _____ _____    ______ ____
ROOT
ATOM      1  N   UNL     1       1.844  -2.025   1.627  0.00  0.00    -0.278 N 
ATOM      2  C   UNL     1       2.154  -3.074   2.413  0.00  0.00    +0.261 C 
ATOM      3  O   UNL     1       1.513  -4.101   2.336  0.00  0.00    -0.271 OA
ENDROOT
BRANCH   2   4
ATOM      4  C   UNL     1       3.297  -2.972   3.390  0.00  0.00    +0.296 C 
ATOM      5  C   UNL     1       4.620  -3.271   2.671  0.00  0.00    +0.283 C 
ATOM      6  O   UNL     1       5.681  -3.179   3.628  0.00  0.00    -0.484 OA
ATOM      7  C   UNL     1       5.484  -3.803   4.821  0.00  0.00    +0.162 A 
ATOM      8  C   UNL     1       6.572  -4.065   5.640  0.00  0.00    +0.049 A 
ATOM      9  C   UNL     1       6.388  -4.696   6.856  0.00  0.00    +0.004 A 
ATOM     10  C   UNL     1       5.119  -5.066   7.260  0.00  0.00    +0.004 A 
ATOM     11  C   UNL     1       4.030  -4.808   6.449  0.00  0.00    +0.049 A 
ATOM     12  C   UNL     1       4.208  -4.177   5.226  0.00  0.00    +0.163 A 
ATOM     13  O   UNL     1       3.127  -3.936   4.435  0.00  0.00    -0.473 OA
ENDBRANCH   2   4
BRANCH   1  14
ATOM     14  C   UNL     1       2.753  -0.879   1.542  0.00  0.00    +0.144 C 
BRANCH  14  18
ATOM     15  C   UNL     1       1.046   2.448   3.607  0.00  0.00    +0.000 A 
ATOM     16  C   UNL     1       1.841   1.546   4.288  0.00  0.00    +0.000 A 
ATOM     17  C   UNL     1       2.393   0.469   3.620  0.00  0.00    +0.005 A 
ATOM     18  C   UNL     1       2.150   0.295   2.270  0.00  0.00    -0.030 A 
ATOM     19  C   UNL     1       1.360   1.200   1.588  0.00  0.00    +0.005 A 
ATOM     20  C   UNL     1       0.804   2.274   2.257  0.00  0.00    +0.000 A 
ENDBRANCH  14  18
ENDBRANCH   1  14
BRANCH   1  21
ATOM     21  C   UNL     1       0.598  -2.030   0.856  0.00  0.00    +0.193 C 
BRANCH  21  22
ATOM     22  C   UNL     1      -0.573  -1.887   1.794  0.00  0.00    -0.018 A 
ATOM     23  C   UNL     1      -1.807  -2.402   1.440  0.00  0.00    +0.009 A 
ATOM     24  C   UNL     1      -2.882  -2.273   2.298  0.00  0.00    +0.046 A 
ATOM     25  C   UNL     1      -2.723  -1.626   3.515  0.00  0.00    +0.117 A 
ATOM     26  C   UNL     1      -1.484  -1.111   3.867  0.00  0.00    +0.046 A 
ATOM     27  C   UNL     1      -0.412  -1.242   3.006  0.00  0.00    +0.009 A 
BRANCH  25  28
ATOM     28  O   UNL     1      -3.779  -1.498   4.361  0.00  0.00    -0.507 OA
ATOM     29  H   UNL     1      -3.873  -2.230   4.986  0.00  0.00    +0.292 HD
ENDBRANCH  25  28
ENDBRANCH  21  22
BRANCH  21  30
ATOM     30  C   UNL     1       0.605  -0.880  -0.118  0.00  0.00    +0.238 C 
ATOM     31  O   UNL     1       1.656  -0.459  -0.552  0.00  0.00    -0.273 OA
ATOM     32  N   UNL     1      -0.557  -0.319  -0.507  0.00  0.00    -0.311 N 
ATOM     33  H   UNL     1      -1.398  -0.656  -0.160  0.00  0.00    +0.149 HD
BRANCH  32  34
ATOM     34  C   UNL     1      -0.551   0.799  -1.453  0.00  0.00    +0.073 C 
ATOM     35  C   UNL     1      -0.393   2.133  -0.695  0.00  0.00    +0.022 C 
ATOM     36  C   UNL     1      -1.295   3.122  -1.476  0.00  0.00    +0.002 C 
ATOM     37  C   UNL     1      -2.512   2.244  -1.861  0.00  0.00    +0.002 C 
ATOM     38  C   UNL     1      -1.897   0.870  -2.195  0.00  0.00    +0.022 C 
ENDBRANCH  32  34
ENDBRANCH  21  30
ENDBRANCH   1  21
TORSDOF 8
