REMARK  Name = ZINC64000083
REMARK  10 active torsions:
REMARK  status: ('A' for Active; 'I' for Inactive)
REMARK    1  A    between atoms: C_1  and  C_2
REMARK    2  A    between atoms: C_2  and  C_3
REMARK    3  A    between atoms: C_2  and  C_4
REMARK    4  A    between atoms: C_4  and  C_6
REMARK    5  A    between atoms: C_4  and  N_17
REMARK    6  A    between atoms: N_17  and  C_18
REMARK    7  A    between atoms: C_18  and  C_19
REMARK    8  A    between atoms: N_21  and  C_22
REMARK    9  A    between atoms: C_22  and  C_23
REMARK   10  A    between atoms: C_23  and  C_24
REMARK                            x       y       z     vdW  Elec       q    Type
REMARK                         _______ _______ _______ _____ _____    ______ ____
ROOT
ATOM      1  N   UNL     1      -1.383  -2.003   0.119  0.00  0.00    -0.301 NA
ATOM      2  H   UNL     1      -2.227  -2.278  -0.361  0.00  0.00    +0.123 HD
ENDROOT
BRANCH   1   3
ATOM      3  C   UNL     1      -1.159  -0.556   0.003  0.00  0.00    +0.087 C 
BRANCH   3   4
ATOM      4  C   UNL     1      -1.715  -0.065  -1.310  0.00  0.00    -0.027 A 
ATOM      5  C   UNL     1      -1.562  -0.829  -2.451  0.00  0.00    +0.009 A 
ATOM      6  C   UNL     1      -2.069  -0.385  -3.659  0.00  0.00    +0.050 A 
ATOM      7  C   UNL     1      -2.732   0.829  -3.721  0.00  0.00    +0.162 A 
ATOM      8  C   UNL     1      -2.886   1.595  -2.575  0.00  0.00    +0.162 A 
ATOM      9  C   UNL     1      -2.381   1.146  -1.366  0.00  0.00    +0.054 A 
ATOM     10  O   UNL     1      -3.543   2.790  -2.646  0.00  0.00    -0.488 OA
ATOM     11  C   UNL     1      -2.880   3.824  -3.376  0.00  0.00    +0.232 C 
ATOM     12  C   UNL     1      -3.169   3.704  -4.864  0.00  0.00    +0.082 C 
ATOM     13  C   UNL     1      -2.600   2.428  -5.463  0.00  0.00    +0.232 C 
ATOM     14  O   UNL     1      -3.239   1.277  -4.906  0.00  0.00    -0.488 OA
ENDBRANCH   3   4
BRANCH   3  16
ATOM     15  C   UNL     1       1.047  -0.994  -1.084  0.00  0.00    +0.009 C 
ATOM     16  C   UNL     1       0.342  -0.265   0.062  0.00  0.00    +0.004 C 
ATOM     17  C   UNL     1       0.576   1.241  -0.071  0.00  0.00    +0.009 C 
ENDBRANCH   3  16
ENDBRANCH   1   3
BRANCH   1  18
ATOM     18  C   UNL     1      -1.418  -2.419   1.527  0.00  0.00    +0.178 C 
BRANCH  18  19
ATOM     19  C   UNL     1      -1.520  -3.921   1.605  0.00  0.00    +0.227 C 
ATOM     20  O   UNL     1      -1.560  -4.579   0.587  0.00  0.00    -0.274 OA
ATOM     21  N   UNL     1      -1.567  -4.532   2.805  0.00  0.00    -0.314 N 
ATOM     22  H   UNL     1      -1.535  -4.005   3.619  0.00  0.00    +0.149 HD
BRANCH  21  23
ATOM     23  C   UNL     1      -1.666  -5.991   2.881  0.00  0.00    +0.108 C 
BRANCH  23  24
ATOM     24  C   UNL     1      -1.702  -6.425   4.347  0.00  0.00    +0.052 C 
BRANCH  24  25
ATOM     25  C   UNL     1      -1.804  -7.926   4.425  0.00  0.00    -0.040 C 
ATOM     26  C   UNL     1      -0.785  -8.804   4.571  0.00  0.00    -0.001 A 
ATOM     27  C   UNL     1       0.667  -8.630   4.696  0.00  0.00    +0.010 A 
ATOM     28  C   UNL     1       1.449  -9.725   4.832  0.00  0.00    +0.001 A 
ATOM     29  C   UNL     1       0.909 -11.018   4.857  0.00  0.00    +0.002 A 
ATOM     30  C   UNL     1      -0.415 -11.258   4.748  0.00  0.00    +0.026 A 
ATOM     31  C   UNL     1      -1.331 -10.180   4.601  0.00  0.00    +0.043 A 
ATOM     32  N   UNL     1      -2.636 -10.154   4.478  0.00  0.00    -0.380 N 
ATOM     33  C   UNL     1      -3.067  -8.756   4.362  0.00  0.00    +0.144 C 
ATOM     34  H   UNL     1      -3.219 -10.929   4.468  0.00  0.00    +0.160 HD
ENDBRANCH  24  25
ENDBRANCH  23  24
ENDBRANCH  21  23
ENDBRANCH  18  19
ENDBRANCH   1  18
TORSDOF 8
