REMARK  Name = ZINC05446259
REMARK  10 active torsions:
REMARK  status: ('A' for Active; 'I' for Inactive)
REMARK    1  A    between atoms: C_1  and  C_2
REMARK    2  A    between atoms: C_5  and  C_8
REMARK    3  A    between atoms: C_8  and  O_9
REMARK    4  A    between atoms: O_9  and  C_10
REMARK    5  A    between atoms: C_13  and  C_18
REMARK    6  A    between atoms: C_15  and  O_16
REMARK    7  A    between atoms: O_16  and  C_17
REMARK    8  A    between atoms: C_21  and  C_32
REMARK    9  A    between atoms: C_27  and  N_31
REMARK   10  A    between atoms: C_28  and  C_29
REMARK                            x       y       z     vdW  Elec       q    Type
REMARK                         _______ _______ _______ _____ _____    ______ ____
ROOT
ATOM      1  C   UNL     1       1.159   3.167   0.008  0.00  0.00    +0.162 A 
ATOM      2  C   UNL     1       1.176   1.782   0.000  0.00  0.00    +0.050 A 
ATOM      3  C   UNL     1      -0.013   1.076   0.008  0.00  0.00    +0.008 A 
ATOM      4  C   UNL     1      -1.220   1.749   0.017  0.00  0.00    -0.031 A 
ATOM      5  C   UNL     1      -1.244   3.131   0.031  0.00  0.00    +0.054 A 
ATOM      6  C   UNL     1      -0.056   3.845   0.023  0.00  0.00    +0.162 A 
ENDROOT
BRANCH   4   7
ATOM      7  C   UNL     1      -2.513   0.975   0.019  0.00  0.00    +0.101 C 
ATOM      8  C   UNL     1      -2.572   0.087   1.236  0.00  0.00    +0.049 A 
ATOM      9  C   UNL     1      -2.766   0.431   2.567  0.00  0.00    +0.068 A 
ATOM     10  N   UNL     1      -2.743  -0.670   3.280  0.00  0.00    -0.176 NA
ATOM     11  N   UNL     1      -2.531  -1.754   2.414  0.00  0.00    -0.246 N 
ATOM     12  H   UNL     1      -2.478  -2.777   2.816  0.00  0.00    +0.192 HD
ATOM     13  C   UNL     1      -2.430  -1.271   1.166  0.00  0.00    +0.222 A 
ATOM     14  O   UNL     1      -2.228  -1.927  -0.004  0.00  0.00    -0.423 OA
ATOM     15  C   UNL     1      -2.440  -1.244  -1.147  0.00  0.00    +0.200 C 
ATOM     16  C   UNL     1      -2.584   0.100  -1.207  0.00  0.00    +0.098 C 
ATOM     17  C   UNL     1      -2.967   1.827   3.099  0.00  0.00    +0.068 C 
BRANCH  15  18
ATOM     18  N   UNL     1      -2.516  -1.954  -2.320  0.00  0.00    -0.328 N 
ATOM     19  H   UNL     1      -2.688  -1.429  -3.271  0.00  0.00    +0.145 HD
ATOM     20  H   UNL     1      -2.404  -3.048  -2.308  0.00  0.00    +0.145 HD
ENDBRANCH  15  18
BRANCH  16  21
ATOM     21  C   UNL     1      -2.811   0.714  -2.481  0.00  0.00    +0.101 C 
ATOM     22  N   UNL     1      -2.991   1.202  -3.491  0.00  0.00    -0.191 NA
ENDBRANCH  16  21
ENDBRANCH   4   7
BRANCH   6  23
ATOM     23  O   UNL     1      -0.078   5.205   0.031  0.00  0.00    -0.491 OA
ATOM     24  C   UNL     1      -1.362   5.833   0.047  0.00  0.00    +0.277 C 
ENDBRANCH   6  23
BRANCH   1  25
ATOM     25  O   UNL     1       2.327   3.863   0.001  0.00  0.00    -0.484 OA
BRANCH  25  26
ATOM     26  C   UNL     1       3.536   3.101  -0.014  0.00  0.00    +0.264 C 
BRANCH  26  31
ATOM     27  C   UNL     1       8.071   6.683  -0.036  0.00  0.00    +0.044 C 
ATOM     28  C   UNL     1       6.889   5.749  -0.031  0.00  0.00    -0.050 A 
ATOM     29  C   UNL     1       6.357   5.314   1.169  0.00  0.00    +0.004 A 
ATOM     30  C   UNL     1       5.272   4.457   1.175  0.00  0.00    +0.007 A 
ATOM     31  C   UNL     1       4.719   4.035  -0.020  0.00  0.00    -0.010 A 
ATOM     32  C   UNL     1       5.254   4.466  -1.220  0.00  0.00    +0.007 A 
ATOM     33  C   UNL     1       6.336   5.326  -1.225  0.00  0.00    +0.004 A 
ENDBRANCH  26  31
ENDBRANCH  25  26
ENDBRANCH   1  25
TORSDOF 7
