REMARK  Name = ZINC58168483
REMARK  9 active torsions:
REMARK  status: ('A' for Active; 'I' for Inactive)
REMARK    1  A    between atoms: C_1  and  C_2
REMARK    2  A    between atoms: C_2  and  C_3
REMARK    3  A    between atoms: C_3  and  C_19
REMARK    4  A    between atoms: N_4  and  N_5
REMARK    5  A    between atoms: N_5  and  C_6
REMARK    6  A    between atoms: C_9  and  S_15
REMARK    7  A    between atoms: C_11  and  N_12
REMARK    8  A    between atoms: S_15  and  N_18
REMARK    9  A    between atoms: C_22  and  O_25
REMARK                            x       y       z     vdW  Elec       q    Type
REMARK                         _______ _______ _______ _____ _____    ______ ____
ROOT
ATOM      1  C   UNL     1       4.083  -0.895   0.079  0.00  0.00    +0.079 A 
ATOM      2  C   UNL     1       4.720  -1.435  -1.033  0.00  0.00    +0.029 A 
ATOM      3  C   UNL     1       6.098  -1.417  -1.113  0.00  0.00    +0.030 A 
ATOM      4  C   UNL     1       6.845  -0.863  -0.090  0.00  0.00    +0.107 A 
ATOM      5  C   UNL     1       6.216  -0.325   1.017  0.00  0.00    +0.063 A 
ATOM      6  C   UNL     1       4.837  -0.334   1.103  0.00  0.00    +0.150 A 
ENDROOT
BRANCH   6   7
ATOM      7  N   UNL     1       4.164   0.248   2.286  0.00  0.00    +0.058 N 
ATOM      8  O   UNL     1       3.123   0.850   2.154  0.00  0.00    -0.126 OA
ATOM      9  O   UNL     1       4.654   0.122   3.384  0.00  0.00    -0.126 OA
ENDBRANCH   6   7
BRANCH   4  10
ATOM     10  S   UNL     1       8.604  -0.843  -0.197  0.00  0.00    +0.056 S 
ATOM     11  O   UNL     1       9.091  -0.761   1.135  0.00  0.00    -0.153 OA
ATOM     12  O   UNL     1       8.969  -1.896  -1.078  0.00  0.00    -0.153 OA
BRANCH  10  13
ATOM     13  N   UNL     1       9.033   0.570  -0.946  0.00  0.00    -0.204 NA
ATOM     14  H   UNL     1       8.348   1.196  -1.229  0.00  0.00    +0.144 HD
ATOM     15  H   UNL     1       9.969   0.772  -1.101  0.00  0.00    +0.144 HD
ENDBRANCH  10  13
ENDBRANCH   4  10
BRANCH   1  16
ATOM     16  N   UNL     1       2.691  -0.911   0.164  0.00  0.00    -0.235 N 
ATOM     17  H   UNL     1       2.251  -0.607   0.973  0.00  0.00    +0.174 HD
BRANCH  16  19
ATOM     18  C   UNL     1       0.632  -1.381  -0.841  0.00  0.00    +0.066 C 
ATOM     19  N   UNL     1       1.928  -1.366  -0.920  0.00  0.00    -0.186 NA
BRANCH  18  20
ATOM     20  C   UNL     1      -0.170  -1.860  -1.981  0.00  0.00    -0.002 A 
ATOM     21  C   UNL     1      -1.565  -1.871  -1.900  0.00  0.00    +0.013 A 
ATOM     22  C   UNL     1      -2.311  -2.320  -2.969  0.00  0.00    +0.046 A 
ATOM     23  C   UNL     1      -1.679  -2.760  -4.124  0.00  0.00    +0.117 A 
ATOM     24  C   UNL     1      -0.293  -2.751  -4.209  0.00  0.00    +0.046 A 
ATOM     25  C   UNL     1       0.462  -2.299  -3.147  0.00  0.00    +0.013 A 
BRANCH  23  26
ATOM     26  O   UNL     1      -2.419  -3.201  -5.175  0.00  0.00    -0.507 OA
ATOM     27  H   UNL     1      -2.658  -2.508  -5.806  0.00  0.00    +0.292 HD
ENDBRANCH  23  26
ENDBRANCH  18  20
BRANCH  18  29
ATOM     28  C   UNL     1      -0.330   0.592   0.312  0.00  0.00    +0.010 C 
ATOM     29  C   UNL     1      -0.051  -0.909   0.416  0.00  0.00    +0.054 C 
ENDBRANCH  18  29
ENDBRANCH  16  19
ENDBRANCH   1  16
TORSDOF 8
