REMARK  Name = ZINC61020403
REMARK  10 active torsions:
REMARK  status: ('A' for Active; 'I' for Inactive)
REMARK    1  A    between atoms: C_1  and  N_2
REMARK    2  A    between atoms: N_2  and  S_3
REMARK    3  A    between atoms: S_3  and  C_6
REMARK    4  A    between atoms: C_9  and  C_11
REMARK    5  A    between atoms: C_11  and  N_12
REMARK    6  A    between atoms: N_15  and  C_16
REMARK    7  A    between atoms: C_16  and  C_17
REMARK    8  A    between atoms: C_17  and  N_23
REMARK    9  A    between atoms: N_23  and  C_24
REMARK   10  A    between atoms: N_23  and  C_25
REMARK                            x       y       z     vdW  Elec       q    Type
REMARK                         _______ _______ _______ _____ _____    ______ ____
ROOT
ATOM      1  N   UNL     1       6.603   0.558  -3.103  0.00  0.00    -0.295 N 
ATOM      2  C   UNL     1       7.790   1.070  -3.483  0.00  0.00    +0.300 C 
ATOM      3  O   UNL     1       8.284   1.988  -2.857  0.00  0.00    -0.253 OA
ATOM      4  N   UNL     1       8.429   0.565  -4.557  0.00  0.00    -0.301 N 
ATOM      5  H   UNL     1       6.208  -0.174  -3.603  0.00  0.00    +0.151 HD
ATOM      6  H   UNL     1       8.035  -0.167  -5.056  0.00  0.00    +0.150 HD
ENDROOT
BRANCH   1   7
ATOM      7  C   UNL     1       5.908   1.107  -1.936  0.00  0.00    +0.148 C 
BRANCH   7  11
ATOM      8  C   UNL     1       2.111  -0.637  -1.635  0.00  0.00    +0.143 A 
ATOM      9  C   UNL     1       3.094  -1.261  -0.941  0.00  0.00    +0.037 A 
ATOM     10  C   UNL     1       4.377  -0.748  -0.988  0.00  0.00    +0.015 A 
ATOM     11  C   UNL     1       4.614   0.364  -1.727  0.00  0.00    +0.009 A 
ATOM     12  S   UNL     1       2.995   0.716  -2.393  0.00  0.00    -0.072 S 
BRANCH   8  13
ATOM     13  S   UNL     1       0.404  -1.058  -1.761  0.00  0.00    +0.064 S 
ATOM     14  O   UNL     1       0.306  -2.446  -1.474  0.00  0.00    -0.153 OA
ATOM     15  O   UNL     1      -0.062  -0.497  -2.981  0.00  0.00    -0.153 OA
BRANCH  13  17
ATOM     16  C   UNL     1      -0.443   1.200  -0.536  0.00  0.00    +0.127 C 
ATOM     17  N   UNL     1      -0.387  -0.264  -0.542  0.00  0.00    -0.193 NA
ATOM     18  H   UNL     1      -0.814  -0.769   0.168  0.00  0.00    +0.148 HD
ENDBRANCH  13  17
ENDBRANCH   8  13
ENDBRANCH   7  11
ENDBRANCH   1   7
BRANCH   4  19
ATOM     19  C   UNL     1       9.720   1.122  -4.970  0.00  0.00    +0.094 C 
BRANCH  19  20
ATOM     20  C   UNL     1      10.293   0.286  -6.116  0.00  0.00    -0.050 C 
ATOM     21  C   UNL     1      11.697   0.787  -6.461  0.00  0.00    -0.010 C 
ATOM     22  C   UNL     1      11.623   2.255  -6.887  0.00  0.00    -0.001 C 
ATOM     23  C   UNL     1      10.720   2.384  -8.115  0.00  0.00    -0.000 C 
ATOM     24  C   UNL     1       9.316   1.883  -7.770  0.00  0.00    -0.001 C 
ATOM     25  C   UNL     1       9.389   0.415  -7.344  0.00  0.00    -0.010 C 
BRANCH  20  26
ATOM     26  N   UNL     1      10.363  -1.123  -5.706  0.00  0.00    +0.381 N 
ATOM     27  C   UNL     1      10.946  -1.921  -6.793  0.00  0.00    -0.096 C 
ATOM     28  C   UNL     1      11.202  -1.243  -4.506  0.00  0.00    -0.096 C 
ATOM     29  H   UNL     1       9.434  -1.461  -5.502  0.00  0.00    -0.082 HD
ENDBRANCH  20  26
ENDBRANCH  19  20
ENDBRANCH   4  19
TORSDOF 7
