REMARK  Name = ZINC00847170
REMARK  7 active torsions:
REMARK  status: ('A' for Active; 'I' for Inactive)
REMARK    1  A    between atoms: C_1  and  C_2
REMARK    2  A    between atoms: N_5  and  C_7
REMARK    3  A    between atoms: C_7  and  C_8
REMARK    4  A    between atoms: C_15  and  N_32
REMARK    5  A    between atoms: C_16  and  C_30
REMARK    6  A    between atoms: C_17  and  C_19
REMARK    7  A    between atoms: C_28  and  O_29
REMARK                            x       y       z     vdW  Elec       q    Type
REMARK                         _______ _______ _______ _____ _____    ______ ____
ROOT
ATOM      1  C   UNL     1       1.119   5.363   2.998  0.00  0.00    +0.068 C 
ATOM      2  C   UNL     1       2.451   5.930   2.578  0.00  0.00    +0.068 A 
ATOM      3  C   UNL     1       2.954   5.956   1.285  0.00  0.00    +0.050 A 
ATOM      4  C   UNL     1       4.185   6.551   1.321  0.00  0.00    +0.225 A 
ATOM      5  N   UNL     1       4.438   6.883   2.597  0.00  0.00    -0.228 N 
ATOM      6  N   UNL     1       3.337   6.485   3.371  0.00  0.00    -0.173 NA
ATOM      7  O   UNL     1       4.944   6.731   0.211  0.00  0.00    -0.423 OA
ATOM      8  C   UNL     1       4.350   6.558  -0.987  0.00  0.00    +0.200 C 
ATOM      9  C   UNL     1       3.143   5.973  -1.151  0.00  0.00    +0.098 C 
ATOM     10  C   UNL     1       2.335   5.446   0.009  0.00  0.00    +0.105 C 
ENDROOT
BRANCH  10  11
ATOM     11  C   UNL     1       2.357   3.939   0.000  0.00  0.00    +0.015 A 
ATOM     12  C   UNL     1       1.159   3.216  -0.121  0.00  0.00    -0.010 A 
ATOM     13  C   UNL     1      -0.080   3.872  -0.236  0.00  0.00    +0.009 A 
ATOM     14  C   UNL     1      -1.221   3.139  -0.352  0.00  0.00    +0.001 A 
ATOM     15  C   UNL     1      -1.181   1.746  -0.364  0.00  0.00    +0.001 A 
ATOM     16  C   UNL     1      -0.002   1.077  -0.248  0.00  0.00    +0.008 A 
ATOM     17  C   UNL     1       1.198   1.799  -0.127  0.00  0.00    -0.017 A 
ATOM     18  C   UNL     1       2.436   1.142  -0.011  0.00  0.00    +0.012 A 
ATOM     19  C   UNL     1       3.578   1.871   0.105  0.00  0.00    +0.046 A 
ATOM     20  C   UNL     1       3.541   3.269   0.110  0.00  0.00    +0.122 A 
BRANCH  20  21
ATOM     21  O   UNL     1       4.700   3.969   0.227  0.00  0.00    -0.506 OA
ATOM     22  H   UNL     1       4.950   4.166   1.140  0.00  0.00    +0.292 HD
ENDBRANCH  20  21
ENDBRANCH  10  11
BRANCH   8  23
ATOM     23  N   UNL     1       5.010   7.002  -2.106  0.00  0.00    -0.328 N 
ATOM     24  H   UNL     1       4.608   6.892  -2.982  0.00  0.00    +0.145 HD
ATOM     25  H   UNL     1       5.878   7.426  -2.020  0.00  0.00    +0.145 HD
ENDBRANCH   8  23
BRANCH   9  26
ATOM     26  C   UNL     1       2.610   5.850  -2.474  0.00  0.00    +0.101 C 
ATOM     27  N   UNL     1       2.187   5.753  -3.524  0.00  0.00    -0.191 NA
ENDBRANCH   9  26
BRANCH   5  28
ATOM     28  C   UNL     1       5.648   7.543   3.093  0.00  0.00    +0.182 C 
BRANCH  28  29
ATOM     29  C   UNL     1       5.458   9.037   3.053  0.00  0.00    -0.026 A 
ATOM     30  C   UNL     1       5.817   9.750   1.924  0.00  0.00    +0.005 A 
ATOM     31  C   UNL     1       5.638  11.120   1.885  0.00  0.00    +0.000 A 
ATOM     32  C   UNL     1       5.109  11.779   2.979  0.00  0.00    +0.000 A 
ATOM     33  C   UNL     1       4.754  11.067   4.110  0.00  0.00    +0.000 A 
ATOM     34  C   UNL     1       4.929   9.696   4.146  0.00  0.00    +0.005 A 
ENDBRANCH  28  29
ENDBRANCH   5  28
TORSDOF 6
