REMARK  Name = ZINC13128020
REMARK  8 active torsions:
REMARK  status: ('A' for Active; 'I' for Inactive)
REMARK    1  A    between atoms: C_5  and  O_7
REMARK    2  A    between atoms: O_7  and  C_8
REMARK    3  A    between atoms: C_8  and  C_9
REMARK    4  A    between atoms: C_12  and  S_17
REMARK    5  A    between atoms: N_13  and  C_14
REMARK    6  A    between atoms: S_17  and  C_18
REMARK    7  A    between atoms: C_18  and  C_19
REMARK    8  A    between atoms: C_26  and  C_28
REMARK                            x       y       z     vdW  Elec       q    Type
REMARK                         _______ _______ _______ _____ _____    ______ ____
ROOT
ATOM      1  C   UNL     1       5.339  -4.445   4.108  0.00  0.00    +0.172 A 
ATOM      2  N   UNL     1       5.957  -3.362   3.729  0.00  0.00    -0.130 NA
ATOM      3  N   UNL     1       5.125  -2.548   3.183  0.00  0.00    -0.122 NA
ATOM      4  C   UNL     1       3.920  -3.069   3.192  0.00  0.00    +0.192 A 
ATOM      5  N   UNL     1       4.020  -4.297   3.780  0.00  0.00    -0.300 N 
ENDROOT
BRANCH   5   6
ATOM      6  C   UNL     1       2.938  -5.258   4.011  0.00  0.00    +0.091 C 
ATOM      7  C   UNL     1       1.640  -5.063   3.224  0.00  0.00    +0.027 C 
ATOM      8  C   UNL     1       1.682  -4.750   4.722  0.00  0.00    +0.027 C 
ENDBRANCH   5   6
BRANCH   1   9
ATOM      9  C   UNL     1       5.963  -5.639   4.784  0.00  0.00    +0.305 C 
BRANCH   9  10
ATOM     10  O   UNL     1       6.398  -6.573   3.793  0.00  0.00    -0.483 OA
BRANCH  10  15
ATOM     11  C   UNL     1       7.743  -9.091   6.049  0.00  0.00    +0.004 A 
ATOM     12  C   UNL     1       8.187 -10.037   5.144  0.00  0.00    +0.002 A 
ATOM     13  C   UNL     1       8.033  -9.825   3.787  0.00  0.00    +0.023 A 
ATOM     14  C   UNL     1       7.434  -8.665   3.331  0.00  0.00    +0.083 A 
ATOM     15  C   UNL     1       6.987  -7.714   4.238  0.00  0.00    +0.139 A 
ATOM     16  C   UNL     1       7.149  -7.927   5.599  0.00  0.00    +0.047 A 
ATOM     17 CL   UNL     1       7.240  -8.399   1.627  0.00  0.00    -0.080 Cl
ENDBRANCH  10  15
ENDBRANCH   9  10
ENDBRANCH   1   9
BRANCH   4  18
ATOM     18  S   UNL     1       2.453  -2.327   2.558  0.00  0.00    -0.077 S 
BRANCH  18  19
ATOM     19  C   UNL     1       3.127  -0.755   1.964  0.00  0.00    +0.173 C 
BRANCH  19  20
ATOM     20  C   UNL     1       2.020   0.071   1.363  0.00  0.00    +0.226 C 
ATOM     21  O   UNL     1       0.886  -0.360   1.338  0.00  0.00    -0.275 OA
ATOM     22  N   UNL     1       2.289   1.289   0.852  0.00  0.00    -0.289 N 
ATOM     23  C   UNL     1       3.671   1.783   0.784  0.00  0.00    +0.108 C 
ATOM     24  C   UNL     1       3.970   2.212  -0.656  0.00  0.00    +0.019 C 
ATOM     25  C   UNL     1       2.917   3.224  -1.113  0.00  0.00    +0.004 C 
ATOM     26  C   UNL     1       1.531   2.576  -1.080  0.00  0.00    +0.032 C 
ATOM     27  C   UNL     1       1.206   2.148   0.355  0.00  0.00    +0.162 C 
BRANCH  27  28
ATOM     28  C   UNL     1      -0.093   1.385   0.372  0.00  0.00    +0.231 C 
ATOM     29  O   UNL     1      -0.188   0.335  -0.228  0.00  0.00    -0.274 OA
ATOM     30  N   UNL     1      -1.151   1.871   1.051  0.00  0.00    -0.328 N 
ATOM     31  H   UNL     1      -1.989   1.381   1.059  0.00  0.00    +0.145 HD
ATOM     32  H   UNL     1      -1.076   2.710   1.531  0.00  0.00    +0.145 HD
ENDBRANCH  27  28
ENDBRANCH  19  20
ENDBRANCH  18  19
ENDBRANCH   4  18
TORSDOF 8
