REMARK  Name = ZINC45569381
REMARK  10 active torsions:
REMARK  status: ('A' for Active; 'I' for Inactive)
REMARK    1  A    between atoms: C_1  and  C_2
REMARK    2  A    between atoms: C_2  and  C_29
REMARK    3  A    between atoms: N_5  and  N_9
REMARK    4  A    between atoms: C_10  and  C_12
REMARK    5  A    between atoms: C_12  and  N_13
REMARK    6  A    between atoms: C_19  and  C_21
REMARK    7  A    between atoms: C_24  and  O_27
REMARK    8  A    between atoms: O_27  and  C_28
REMARK    9  A    between atoms: C_29  and  C_30
REMARK   10  A    between atoms: C_30  and  C_31
REMARK                            x       y       z     vdW  Elec       q    Type
REMARK                         _______ _______ _______ _____ _____    ______ ____
ROOT
ATOM      1  N   UNL     1       2.788  -1.811  -1.497  0.00  0.00    -0.225 N 
ATOM      2  C   UNL     1       4.029  -1.287  -1.558  0.00  0.00    +0.213 C 
ATOM      3  O   UNL     1       4.255  -0.204  -1.062  0.00  0.00    -0.276 OA
ATOM      4  H   UNL     1       2.607  -2.677  -1.893  0.00  0.00    +0.173 HD
ENDROOT
BRANCH   1   9
ATOM      5  C   UNL     1      -0.114   1.680  -0.549  0.00  0.00    +0.041 C 
ATOM      6  C   UNL     1      -0.097   0.155  -0.428  0.00  0.00    +0.112 C 
ATOM      7  C   UNL     1       0.772  -0.456  -1.509  0.00  0.00    +0.263 C 
ATOM      8  O   UNL     1       0.612  -0.378  -2.708  0.00  0.00    -0.271 OA
ATOM      9  N   UNL     1       1.760  -1.103  -0.860  0.00  0.00    -0.137 N 
ATOM     10  C   UNL     1       1.638  -0.987   0.467  0.00  0.00    +0.326 C 
ATOM     11  O   UNL     1       2.409  -1.486   1.263  0.00  0.00    -0.251 OA
ATOM     12  N   UNL     1       0.565  -0.258   0.822  0.00  0.00    -0.284 N 
ATOM     13  H   UNL     1       0.282  -0.044   1.725  0.00  0.00    +0.151 HD
BRANCH   6  14
ATOM     14  C   UNL     1      -1.519  -0.405  -0.495  0.00  0.00    +0.040 C 
BRANCH  14  15
ATOM     15  C   UNL     1      -2.354   0.188   0.641  0.00  0.00    +0.038 C 
BRANCH  15  16
ATOM     16  C   UNL     1      -3.755  -0.364   0.575  0.00  0.00    -0.047 A 
ATOM     17  C   UNL     1      -4.720   0.287  -0.171  0.00  0.00    +0.003 A 
ATOM     18  C   UNL     1      -6.005  -0.219  -0.232  0.00  0.00    +0.000 A 
ATOM     19  C   UNL     1      -6.325  -1.376   0.454  0.00  0.00    +0.000 A 
ATOM     20  C   UNL     1      -5.360  -2.027   1.199  0.00  0.00    +0.000 A 
ATOM     21  C   UNL     1      -4.074  -1.524   1.256  0.00  0.00    +0.003 A 
ENDBRANCH  15  16
ENDBRANCH  14  15
ENDBRANCH   6  14
ENDBRANCH   1   9
BRANCH   2  22
ATOM     22  C   UNL     1       5.135  -2.048  -2.243  0.00  0.00    +0.021 C 
BRANCH  22  23
ATOM     23  N   UNL     1       6.379  -1.271  -2.175  0.00  0.00    +0.390 N 
ATOM     24  C   UNL     1       6.776  -1.121  -0.758  0.00  0.00    -0.077 C 
ATOM     25  C   UNL     1       8.249  -0.714  -0.572  0.00  0.00    -0.019 C 
ATOM     26  C   UNL     1       8.704   0.351  -1.533  0.00  0.00    -0.002 C 
ATOM     27  C   UNL     1       9.300  -0.330  -2.790  0.00  0.00    -0.001 C 
ATOM     28  C   UNL     1       8.246  -0.865  -3.644  0.00  0.00    -0.011 C 
ATOM     29  C   UNL     1       7.395  -1.941  -2.951  0.00  0.00    -0.037 C 
ATOM     30  H   UNL     1       6.216  -0.356  -2.568  0.00  0.00    -0.080 HD
BRANCH  29  31
ATOM     31  C   UNL     1       6.746  -2.823  -3.986  0.00  0.00    -0.061 A 
ATOM     32  C   UNL     1       6.008  -2.258  -5.010  0.00  0.00    +0.005 A 
ATOM     33  C   UNL     1       5.412  -3.065  -5.960  0.00  0.00    +0.046 A 
ATOM     34  C   UNL     1       5.555  -4.443  -5.886  0.00  0.00    +0.120 A 
ATOM     35  C   UNL     1       6.296  -5.008  -4.858  0.00  0.00    +0.046 A 
ATOM     36  C   UNL     1       6.894  -4.196  -3.913  0.00  0.00    +0.005 A 
BRANCH  34  37
ATOM     37  O   UNL     1       4.969  -5.239  -6.819  0.00  0.00    -0.495 OA
ATOM     38  C   UNL     1       5.158  -6.648  -6.681  0.00  0.00    +0.277 C 
ENDBRANCH  34  37
ENDBRANCH  29  31
ENDBRANCH  22  23
ENDBRANCH   2  22
TORSDOF 8
