REMARK  Name = ZINC63671482
REMARK  6 active torsions:
REMARK  status: ('A' for Active; 'I' for Inactive)
REMARK    1  A    between atoms: C_1  and  C_2
REMARK    2  A    between atoms: C_8  and  C_11
REMARK    3  A    between atoms: C_11  and  C_12
REMARK    4  A    between atoms: C_12  and  N_13
REMARK    5  A    between atoms: C_14  and  C_16
REMARK    6  A    between atoms: C_16  and  N_17
REMARK                            x       y       z     vdW  Elec       q    Type
REMARK                         _______ _______ _______ _____ _____    ______ ____
ROOT
ATOM      1  N   UNL     1      -1.377  -2.588   5.612  0.00  0.00    -0.314 N 
ATOM      2  C   UNL     1      -2.537  -2.594   6.298  0.00  0.00    +0.231 C 
ATOM      3  O   UNL     1      -3.583  -2.805   5.721  0.00  0.00    -0.274 OA
ATOM      4  H   UNL     1      -0.541  -2.419   6.073  0.00  0.00    +0.149 HD
ENDROOT
BRANCH   1   5
ATOM      5  C   UNL     1      -1.380  -2.837   4.168  0.00  0.00    +0.108 C 
BRANCH   5   6
ATOM      6  C   UNL     1       0.054  -2.775   3.637  0.00  0.00    +0.052 C 
BRANCH   6  14
ATOM      7  C   UNL     1      -0.041   1.539   0.021  0.00  0.00    +0.044 C 
ATOM      8  C   UNL     1      -0.014   0.032   0.008  0.00  0.00    -0.050 A 
ATOM      9  C   UNL     1      -0.009  -0.639  -1.222  0.00  0.00    +0.005 A 
ATOM     10  C   UNL     1       0.015  -1.986  -1.318  0.00  0.00    +0.026 A 
ATOM     11  C   UNL     1       0.035  -2.789  -0.145  0.00  0.00    +0.043 A 
ATOM     12  N   UNL     1       0.058  -4.090   0.022  0.00  0.00    -0.380 N 
ATOM     13  C   UNL     1       0.071  -4.376   1.461  0.00  0.00    +0.144 C 
ATOM     14  C   UNL     1       0.051  -3.031   2.152  0.00  0.00    -0.040 C 
ATOM     15  C   UNL     1       0.030  -2.104   1.167  0.00  0.00    -0.001 A 
ATOM     16  C   UNL     1       0.010  -0.636   1.183  0.00  0.00    +0.013 A 
ATOM     17  H   UNL     1       0.066  -4.751  -0.687  0.00  0.00    +0.160 HD
ENDBRANCH   6  14
ENDBRANCH   5   6
ENDBRANCH   1   5
BRANCH   2  18
ATOM     18  C   UNL     1      -2.534  -2.338   7.783  0.00  0.00    +0.209 C 
BRANCH  18  19
ATOM     19  N   UNL     1      -3.915  -2.272   8.270  0.00  0.00    -0.260 N 
ATOM     20  C   UNL     1      -4.412  -3.449   8.785  0.00  0.00    +0.061 A 
ATOM     21  C   UNL     1      -3.694  -3.853   9.934  0.00  0.00    +0.025 A 
ATOM     22  C   UNL     1      -4.026  -4.979  10.641  0.00  0.00    +0.002 A 
ATOM     23  C   UNL     1      -5.098  -5.747  10.223  0.00  0.00    +0.002 A 
ATOM     24  C   UNL     1      -5.793  -5.372   9.102  0.00  0.00    +0.028 A 
ATOM     25  C   UNL     1      -5.447  -4.224   8.356  0.00  0.00    +0.068 A 
ATOM     26  N   UNL     1      -6.269  -4.116   7.221  0.00  0.00    -0.309 N 
ATOM     27  C   UNL     1      -6.743  -5.343   6.728  0.00  0.00    +0.092 A 
ATOM     28  C   UNL     1      -7.539  -5.123   5.679  0.00  0.00    +0.021 A 
ATOM     29  C   UNL     1      -7.576  -3.737   5.476  0.00  0.00    +0.034 A 
ATOM     30  C   UNL     1      -6.774  -3.155   6.430  0.00  0.00    +0.081 A 
ATOM     31  S   UNL     1      -6.544  -1.411   6.454  0.00  0.00    -0.098 S 
ATOM     32  C   UNL     1      -6.006  -1.023   8.136  0.00  0.00    +0.172 C 
ATOM     33  C   UNL     1      -4.496  -1.089   8.153  0.00  0.00    +0.230 C 
ATOM     34  O   UNL     1      -3.831  -0.079   8.059  0.00  0.00    -0.274 OA
ENDBRANCH  18  19
ENDBRANCH   2  18
TORSDOF 5
