REMARK  Name = ZINC67446697
REMARK  10 active torsions:
REMARK  status: ('A' for Active; 'I' for Inactive)
REMARK    1  A    between atoms: C_1  and  C_2
REMARK    2  A    between atoms: C_2  and  N_3
REMARK    3  A    between atoms: N_3  and  C_4
REMARK    4  A    between atoms: C_4  and  C_5
REMARK    5  A    between atoms: C_6  and  C_8
REMARK    6  A    between atoms: C_11  and  N_29
REMARK    7  A    between atoms: C_15  and  C_17
REMARK    8  A    between atoms: C_18  and  C_28
REMARK    9  A    between atoms: N_19  and  C_27
REMARK   10  A    between atoms: C_23  and  O_26
REMARK                            x       y       z     vdW  Elec       q    Type
REMARK                         _______ _______ _______ _____ _____    ______ ____
ROOT
ATOM      1  C   UNL     1       2.771  -1.195   2.363  0.00  0.00    +0.161 C 
ATOM      2  C   UNL     1       3.038  -0.023   3.330  0.00  0.00    +0.017 C 
ATOM      3  C   UNL     1       4.456  -0.339   3.876  0.00  0.00    -0.055 C 
ATOM      4  C   UNL     1       5.137  -0.961   2.631  0.00  0.00    +0.093 C 
ATOM      5  N   UNL     1       4.075  -1.751   1.974  0.00  0.00    -0.288 N 
ATOM      6  C   UNL     1       4.268  -2.804   1.155  0.00  0.00    +0.249 C 
ATOM      7  O   UNL     1       3.312  -3.380   0.669  0.00  0.00    -0.270 OA
ENDROOT
BRANCH   6   8
ATOM      8  C   UNL     1       5.631  -3.257   0.849  0.00  0.00    +0.065 A 
ATOM      9  C   UNL     1       6.355  -4.187   1.535  0.00  0.00    +0.029 A 
ATOM     10  N   UNL     1       7.570  -4.340   0.956  0.00  0.00    -0.346 N 
ATOM     11  C   UNL     1       7.689  -3.510  -0.142  0.00  0.00    +0.050 A 
ATOM     12  C   UNL     1       6.484  -2.800  -0.264  0.00  0.00    +0.016 A 
ATOM     13  C   UNL     1       6.314  -1.883  -1.298  0.00  0.00    +0.056 A 
ATOM     14  C   UNL     1       7.337  -1.679  -2.205  0.00  0.00    +0.118 A 
ATOM     15  C   UNL     1       8.529  -2.386  -2.085  0.00  0.00    +0.047 A 
ATOM     16  C   UNL     1       8.709  -3.289  -1.060  0.00  0.00    +0.030 A 
ATOM     17  C   UNL     1       8.611  -5.258   1.427  0.00  0.00    +0.149 C 
ATOM     18  C   UNL     1       5.877  -4.930   2.755  0.00  0.00    +0.064 C 
BRANCH  14  19
ATOM     19  O   UNL     1       7.177  -0.785  -3.217  0.00  0.00    -0.507 OA
ATOM     20  H   UNL     1       7.458   0.113  -2.997  0.00  0.00    +0.292 HD
ENDBRANCH  14  19
ENDBRANCH   6   8
BRANCH   3  21
ATOM     21  N   UNL     1       5.144   0.888   4.296  0.00  0.00    +0.381 N 
ATOM     22  H   UNL     1       4.611   1.341   5.023  0.00  0.00    -0.090 HD
ATOM     23  H   UNL     1       6.062   0.656   4.646  0.00  0.00    -0.090 HD
ATOM     24  H   UNL     1       5.233   1.511   3.507  0.00  0.00    -0.090 HD
ENDBRANCH   3  21
BRANCH   1  26
ATOM     25  N   UNL     1       0.711  -0.489   1.189  0.00  0.00    -0.300 N 
ATOM     26  C   UNL     1       2.042  -0.696   1.142  0.00  0.00    +0.236 C 
ATOM     27  O   UNL     1       2.653  -0.480   0.117  0.00  0.00    -0.274 OA
BRANCH  25  29
ATOM     28  C   UNL     1      -0.019   1.526   0.010  0.00  0.00    +0.024 C 
ATOM     29  C   UNL     1       0.002  -0.004   0.002  0.00  0.00    +0.104 C 
ENDBRANCH  25  29
BRANCH  25  30
ATOM     30  C   UNL     1      -0.028  -0.750   2.427  0.00  0.00    +0.104 C 
ATOM     31  C   UNL     1      -0.511  -2.202   2.437  0.00  0.00    +0.024 C 
ENDBRANCH  25  30
ENDBRANCH   1  26
TORSDOF 6
