REMARK  Name = ZINC21084684
REMARK  4 active torsions:
REMARK  status: ('A' for Active; 'I' for Inactive)
REMARK    1  A    between atoms: C_12  and  C_14
REMARK    2  A    between atoms: C_14  and  S_15
REMARK    3  A    between atoms: S_15  and  C_16
REMARK    4  A    between atoms: N_21  and  N_22
REMARK                            x       y       z     vdW  Elec       q    Type
REMARK                         _______ _______ _______ _____ _____    ______ ____
ROOT
ATOM      1  C   UNL     1       5.690   3.717  -0.033  0.00  0.00    +0.173 C 
ENDROOT
BRANCH   1  13
ATOM      2  C   UNL     1      13.732   6.477  -0.095  0.00  0.00    +0.017 A 
ATOM      3  C   UNL     1      12.399   6.796  -0.082  0.00  0.00    +0.030 A 
ATOM      4  C   UNL     1      11.413   5.782  -0.077  0.00  0.00    +0.080 A 
ATOM      5  C   UNL     1      11.887   4.450  -0.088  0.00  0.00    +0.042 A 
ATOM      6  C   UNL     1      13.223   4.139  -0.102  0.00  0.00    +0.032 A 
ATOM      7  C   UNL     1      14.161   5.157  -0.105  0.00  0.00    +0.019 A 
ATOM      8 BR   UNL     1      16.009   4.754  -0.123  0.00  0.00    -0.050 Br
ATOM      9  S   UNL     1      10.378   3.512  -0.071  0.00  0.00    -0.052 S 
ATOM     10  C   UNL     1       9.251   4.900  -0.061  0.00  0.00    +0.165 A 
ATOM     11  N   UNL     1      10.070   5.925  -0.064  0.00  0.00    -0.225 NA
ATOM     12  N   UNL     1       7.866   4.894  -0.048  0.00  0.00    -0.264 N 
ATOM     13  C   UNL     1       7.197   3.724  -0.048  0.00  0.00    +0.229 C 
ATOM     14  O   UNL     1       7.808   2.676  -0.058  0.00  0.00    -0.275 OA
ATOM     15  H   UNL     1       7.312   5.844  -0.038  0.00  0.00    +0.157 HD
ENDBRANCH   1  13
BRANCH   1  16
ATOM     16  S   UNL     1       5.093   2.004  -0.036  0.00  0.00    -0.075 S 
BRANCH  16  17
ATOM     17  C   UNL     1       3.338   2.165  -0.019  0.00  0.00    +0.211 A 
ATOM     18  N   UNL     1       2.438   1.137  -0.015  0.00  0.00    -0.186 NA
ATOM     19  C   UNL     1       1.182   1.676  -0.000  0.00  0.00    +0.232 A 
ATOM     20  N   UNL     1       1.301   2.982  -0.000  0.00  0.00    -0.245 N 
ATOM     21  N   UNL     1       2.667   3.292  -0.006  0.00  0.00    -0.144 NA
ATOM     22  N   UNL     1      -0.011   0.966   0.007  0.00  0.00    -0.205 N 
ATOM     23  H   UNL     1       0.004  -0.134   0.006  0.00  0.00    +0.177 HD
ATOM     24  H   UNL     1       0.402   3.616   0.004  0.00  0.00    +0.192 HD
BRANCH  22  25
ATOM     25  N   UNL     1      -1.234   1.650   0.017  0.00  0.00    -0.189 NA
ATOM     26  C   UNL     1      -2.334   0.995   0.018  0.00  0.00    +0.037 C 
ATOM     27  C   UNL     1      -2.481  -0.513   0.004  0.00  0.00    +0.052 C 
ATOM     28  C   UNL     1      -3.994  -0.815   0.006  0.00  0.00    +0.006 C 
ATOM     29  C   UNL     1      -4.625   0.474  -0.579  0.00  0.00    +0.006 C 
ATOM     30  C   UNL     1      -3.733   1.585   0.028  0.00  0.00    +0.052 C 
ENDBRANCH  22  25
ENDBRANCH  16  17
ENDBRANCH   1  16
TORSDOF 4
