REMARK  Name = ZINC25523051
REMARK  7 active torsions:
REMARK  status: ('A' for Active; 'I' for Inactive)
REMARK    1  A    between atoms: C_1  and  C_2
REMARK    2  A    between atoms: C_4  and  N_23
REMARK    3  A    between atoms: C_7  and  N_8
REMARK    4  A    between atoms: C_9  and  C_11
REMARK    5  A    between atoms: C_11  and  C_13
REMARK    6  A    between atoms: C_11  and  N_14
REMARK    7  A    between atoms: C_17  and  C_20
REMARK                            x       y       z     vdW  Elec       q    Type
REMARK                         _______ _______ _______ _____ _____    ______ ____
ROOT
ATOM      1  N   UNL     1      -4.942   3.970   0.050  0.00  0.00    -0.287 N 
ATOM      2  C   UNL     1      -4.962   5.313   0.159  0.00  0.00    +0.203 C 
ATOM      3  O   UNL     1      -3.922   5.937   0.157  0.00  0.00    -0.277 OA
ATOM      4  H   UNL     1      -5.886   3.412  -0.040  0.00  0.00    +0.155 HD
ENDROOT
BRANCH   1  11
ATOM      5  C   UNL     1      -4.829   1.423  -1.213  0.00  0.00    +0.046 C 
ATOM      6  C   UNL     1      -3.622   2.040  -0.555  0.00  0.00    -0.027 A 
ATOM      7  C   UNL     1      -2.416   1.367  -0.552  0.00  0.00    +0.038 A 
ATOM      8  C   UNL     1      -1.308   1.933   0.051  0.00  0.00    +0.127 A 
ATOM      9  C   UNL     1      -1.405   3.172   0.659  0.00  0.00    +0.034 A 
ATOM     10  C   UNL     1      -2.607   3.852   0.655  0.00  0.00    +0.026 A 
ATOM     11  C   UNL     1      -3.721   3.286   0.050  0.00  0.00    +0.036 A 
BRANCH   8  12
ATOM     12  N   UNL     1      -0.017   1.209   0.053  0.00  0.00    +0.056 N 
ATOM     13  O   UNL     1       0.069   0.116  -0.477  0.00  0.00    -0.126 OA
ATOM     14  O   UNL     1       0.961   1.708   0.580  0.00  0.00    -0.126 OA
ENDBRANCH   8  12
ENDBRANCH   1  11
BRANCH   2  15
ATOM     15  C   UNL     1      -6.276   6.040   0.285  0.00  0.00    +0.016 C 
ATOM     16  C   UNL     1      -7.009   5.556   1.538  0.00  0.00    -0.004 C 
BRANCH  15  17
ATOM     17  N   UNL     1      -6.030   7.484   0.389  0.00  0.00    +0.387 N 
ATOM     18  C   UNL     1      -5.222   7.796   1.575  0.00  0.00    -0.077 C 
ATOM     19  C   UNL     1      -4.863   9.284   1.573  0.00  0.00    -0.006 C 
ATOM     20  C   UNL     1      -6.150  10.114   1.576  0.00  0.00    +0.071 C 
ATOM     21  C   UNL     1      -6.995   9.735   0.356  0.00  0.00    -0.006 C 
ATOM     22  C   UNL     1      -7.292   8.235   0.393  0.00  0.00    -0.077 C 
ATOM     23  H   UNL     1      -5.457   7.796  -0.497  0.00  0.00    -0.081 HD
BRANCH  20  24
ATOM     24  C   UNL     1      -5.804  11.580   1.514  0.00  0.00    +0.213 C 
ATOM     25  O   UNL     1      -6.195  12.256   0.586  0.00  0.00    -0.276 OA
ATOM     26  N   UNL     1      -5.062  12.139   2.490  0.00  0.00    -0.329 N 
ATOM     27  H   UNL     1      -4.810  13.209   2.445  0.00  0.00    +0.145 HD
ATOM     28  H   UNL     1      -4.707  11.525   3.331  0.00  0.00    +0.145 HD
ENDBRANCH  20  24
ENDBRANCH  15  17
ENDBRANCH   2  15
TORSDOF 5
