REMARK  Name = ZINC12411691
REMARK  11 active torsions:
REMARK  status: ('A' for Active; 'I' for Inactive)
REMARK    1  A    between atoms: C_1  and  C_2
REMARK    2  A    between atoms: C_2  and  O_3
REMARK    3  A    between atoms: O_3  and  C_4
REMARK    4  A    between atoms: C_7  and  C_10
REMARK    5  A    between atoms: C_16  and  C_33
REMARK    6  A    between atoms: C_17  and  C_24
REMARK    7  A    between atoms: C_19  and  C_22
REMARK    8  A    between atoms: C_20  and  N_21
REMARK    9  A    between atoms: C_27  and  O_30
REMARK   10  A    between atoms: O_30  and  C_31
REMARK   11  A    between atoms: C_31  and  C_32
REMARK                            x       y       z     vdW  Elec       q    Type
REMARK                         _______ _______ _______ _____ _____    ______ ____
ROOT
ATOM      1  C   UNL     1      -3.964  -2.464  -0.422  0.00  0.00    +0.028 C 
ATOM      2  C   UNL     1      -3.761  -1.190   0.003  0.00  0.00    +0.079 A 
ATOM      3  C   UNL     1      -2.614  -0.618   0.716  0.00  0.00    +0.271 A 
ATOM      4  O   UNL     1      -1.657  -1.309   1.012  0.00  0.00    -0.266 OA
ATOM      5  N   UNL     1      -2.644   0.692   1.034  0.00  0.00    -0.257 N 
ATOM      6  C   UNL     1      -3.761   1.415   0.667  0.00  0.00    +0.099 A 
ATOM      7  C   UNL     1      -3.934   2.739   0.919  0.00  0.00    +0.057 C 
ATOM      8  C   UNL     1      -2.833   3.481   1.652  0.00  0.00    +0.100 C 
ATOM      9  C   UNL     1      -1.628   2.650   2.043  0.00  0.00    +0.079 C 
ATOM     10  C   UNL     1      -1.606   1.340   1.713  0.00  0.00    +0.118 C 
ATOM     11  S   UNL     1      -4.818   0.240  -0.155  0.00  0.00    -0.065 S 
ENDROOT
BRANCH   1  15
ATOM     12  C   UNL     1      -0.815  -5.296  -0.213  0.00  0.00    +0.121 A 
ATOM     13  C   UNL     1      -2.111  -5.676   0.117  0.00  0.00    +0.046 A 
ATOM     14  C   UNL     1      -3.137  -4.761   0.051  0.00  0.00    +0.011 A 
ATOM     15  C   UNL     1      -2.874  -3.445  -0.349  0.00  0.00    -0.024 A 
ATOM     16  C   UNL     1      -1.567  -3.069  -0.686  0.00  0.00    +0.011 A 
ATOM     17  C   UNL     1      -0.548  -3.991  -0.611  0.00  0.00    +0.046 A 
BRANCH  12  18
ATOM     18  O   UNL     1       0.193  -6.203  -0.145  0.00  0.00    -0.492 OA
BRANCH  18  20
ATOM     19  C   UNL     1       2.497  -6.899  -0.361  0.00  0.00    +0.048 C 
ATOM     20  C   UNL     1       1.501  -5.746  -0.497  0.00  0.00    +0.225 C 
ENDBRANCH  18  20
ENDBRANCH  12  18
ENDBRANCH   1  15
BRANCH   8  21
ATOM     21  C   UNL     1      -2.367   4.616   0.777  0.00  0.00    -0.034 A 
ATOM     22  C   UNL     1      -1.836   4.351  -0.472  0.00  0.00    +0.008 A 
ATOM     23  C   UNL     1      -1.413   5.390  -1.278  0.00  0.00    +0.046 A 
ATOM     24  C   UNL     1      -1.510   6.699  -0.829  0.00  0.00    +0.121 A 
ATOM     25  C   UNL     1      -2.037   6.961   0.427  0.00  0.00    +0.046 A 
ATOM     26  C   UNL     1      -2.464   5.919   1.227  0.00  0.00    +0.008 A 
BRANCH  24  27
ATOM     27  O   UNL     1      -1.089   7.723  -1.618  0.00  0.00    -0.492 OA
BRANCH  27  28
ATOM     28  C   UNL     1      -0.557   7.378  -2.898  0.00  0.00    +0.225 C 
ATOM     29  C   UNL     1      -0.140   8.652  -3.637  0.00  0.00    +0.048 C 
ENDBRANCH  27  28
ENDBRANCH  24  27
ENDBRANCH   8  21
BRANCH   7  30
ATOM     30  C   UNL     1      -5.101   3.403   0.511  0.00  0.00    +0.241 C 
ATOM     31  O   UNL     1      -5.976   2.791  -0.078  0.00  0.00    -0.271 OA
ATOM     32  N   UNL     1      -5.255   4.717   0.770  0.00  0.00    -0.326 N 
ATOM     33  H   UNL     1      -4.559   5.203   1.238  0.00  0.00    +0.145 HD
ATOM     34  H   UNL     1      -6.062   5.175   0.488  0.00  0.00    +0.145 HD
ENDBRANCH   7  30
BRANCH  10  35
ATOM     35  N   UNL     1      -0.504   0.601   2.069  0.00  0.00    -0.343 N 
ATOM     36  H   UNL     1       0.375   1.011   2.072  0.00  0.00    +0.144 HD
ATOM     37  H   UNL     1      -0.605  -0.330   2.322  0.00  0.00    +0.144 HD
ENDBRANCH  10  35
BRANCH   9  38
ATOM     38  C   UNL     1      -0.530   3.244   2.744  0.00  0.00    +0.099 C 
ATOM     39  N   UNL     1       0.341   3.715   3.300  0.00  0.00    -0.191 NA
ENDBRANCH   9  38
TORSDOF 9
