REMARK  Name = ZINC22607465
REMARK  7 active torsions:
REMARK  status: ('A' for Active; 'I' for Inactive)
REMARK    1  A    between atoms: C_1  and  C_2
REMARK    2  A    between atoms: C_2  and  C_3
REMARK    3  A    between atoms: C_8  and  N_9
REMARK    4  A    between atoms: C_10  and  C_12
REMARK    5  A    between atoms: C_12  and  C_13
REMARK    6  A    between atoms: N_23  and  C_24
REMARK    7  A    between atoms: C_27  and  C_30
REMARK                            x       y       z     vdW  Elec       q    Type
REMARK                         _______ _______ _______ _____ _____    ______ ____
ROOT
ATOM      1  C   UNL     1       5.764   2.592   2.952  0.00  0.00    +0.208 C 
ATOM      2  C   UNL     1       6.979   2.435   3.847  0.00  0.00    +0.274 C 
ATOM      3  O   UNL     1       6.990   2.148   5.161  0.00  0.00    -0.268 OA
ATOM      4  N   UNL     1       8.009   2.638   3.074  0.00  0.00    -0.176 NA
ATOM      5  C   UNL     1       7.644   2.905   1.802  0.00  0.00    +0.230 C 
ATOM      6  N   UNL     1       6.348   2.897   1.634  0.00  0.00    -0.236 NA
ATOM      7  N   UNL     1       8.546   3.157   0.784  0.00  0.00    -0.295 N 
ATOM      8  C   UNL     1       9.897   3.033   1.014  0.00  0.00    +0.202 C 
ATOM      9  N   UNL     1      10.345   2.521   2.206  0.00  0.00    -0.369 N 
ATOM     10  N   UNL     1      10.756   3.404   0.095  0.00  0.00    -0.215 NA
ATOM     11  H   UNL     1       8.226   3.421  -0.093  0.00  0.00    +0.172 HD
ATOM     12  H   UNL     1       9.732   2.055   2.795  0.00  0.00    +0.159 HD
ATOM     13  H   UNL     1      11.276   2.625   2.459  0.00  0.00    +0.159 HD
ENDROOT
BRANCH  10  14
ATOM     14  C   UNL     1      10.313   3.771  -1.149  0.00  0.00    +0.068 A 
ATOM     15  C   UNL     1       9.620   2.856  -1.944  0.00  0.00    +0.028 A 
ATOM     16  C   UNL     1       9.177   3.231  -3.195  0.00  0.00    +0.005 A 
ATOM     17  C   UNL     1       9.418   4.511  -3.662  0.00  0.00    -0.050 A 
ATOM     18  C   UNL     1      10.104   5.423  -2.880  0.00  0.00    +0.005 A 
ATOM     19  C   UNL     1      10.548   5.062  -1.624  0.00  0.00    +0.028 A 
ATOM     20  C   UNL     1       8.931   4.914  -5.030  0.00  0.00    +0.044 C 
ENDBRANCH  10  14
BRANCH   1  21
ATOM     21  C   UNL     1       4.885   3.747   3.434  0.00  0.00    +0.132 C 
BRANCH  21  23
ATOM     22  N   UNL     1       2.729   4.787   2.808  0.00  0.00    -0.285 N 
ATOM     23  C   UNL     1       3.654   3.836   2.568  0.00  0.00    +0.220 C 
ATOM     24  O   UNL     1       3.497   3.053   1.656  0.00  0.00    -0.275 OA
ATOM     25  H   UNL     1       2.881   5.447   3.502  0.00  0.00    +0.155 HD
BRANCH  22  31
ATOM     26  C   UNL     1       0.374   5.291   2.626  0.00  0.00    -0.026 A 
ATOM     27  C   UNL     1      -0.787   5.328   1.879  0.00  0.00    +0.005 A 
ATOM     28  C   UNL     1      -0.782   4.891   0.568  0.00  0.00    +0.000 A 
ATOM     29  C   UNL     1       0.386   4.417  -0.001  0.00  0.00    +0.002 A 
ATOM     30  C   UNL     1       1.550   4.377   0.740  0.00  0.00    +0.023 A 
ATOM     31  C   UNL     1       1.549   4.820   2.056  0.00  0.00    +0.037 A 
BRANCH  26  33
ATOM     32  C   UNL     1       0.807   7.232   4.107  0.00  0.00    +0.009 C 
ATOM     33  C   UNL     1       0.367   5.767   4.056  0.00  0.00    +0.033 C 
ENDBRANCH  26  33
ENDBRANCH  22  31
ENDBRANCH  21  23
ENDBRANCH   1  21
TORSDOF 5
