REMARK  Name = ZINC16038905
REMARK  8 active torsions:
REMARK  status: ('A' for Active; 'I' for Inactive)
REMARK    1  A    between atoms: C_1  and  C_2
REMARK    2  A    between atoms: C_2  and  C_3
REMARK    3  A    between atoms: C_2  and  C_4
REMARK    4  A    between atoms: C_2  and  C_5
REMARK    5  A    between atoms: C_5  and  C_7
REMARK    6  A    between atoms: C_9  and  C_32
REMARK    7  A    between atoms: C_32  and  C_34
REMARK    8  A    between atoms: C_38  and  N_40
REMARK                            x       y       z     vdW  Elec       q    Type
REMARK                         _______ _______ _______ _____ _____    ______ ____
ROOT
ATOM      1  C   UNL     1       3.382  -0.724  -0.730  0.00  0.00    +0.153 C 
ATOM      2  C   UNL     1       3.030   0.776  -0.938  0.00  0.00    +0.109 C 
ATOM      3  C   UNL     1       2.761   1.313   0.483  0.00  0.00    +0.108 C 
ATOM      4  C   UNL     1       1.417   1.949   0.585  0.00  0.00    -0.008 A 
ATOM      5  C   UNL     1       0.146   1.455   0.381  0.00  0.00    +0.006 A 
ATOM      6  C   UNL     1      -0.912   2.340   0.558  0.00  0.00    +0.000 A 
ATOM      7  C   UNL     1      -0.698   3.651   0.934  0.00  0.00    +0.002 A 
ATOM      8  C   UNL     1       0.577   4.156   1.140  0.00  0.00    +0.023 A 
ATOM      9  C   UNL     1       1.648   3.280   0.959  0.00  0.00    +0.038 A 
ATOM     10  N   UNL     1       3.006   3.513   1.095  0.00  0.00    -0.284 N 
ATOM     11  C   UNL     1       3.738   2.408   0.833  0.00  0.00    +0.231 C 
ATOM     12  O   UNL     1       4.946   2.315   0.871  0.00  0.00    -0.274 OA
ATOM     13  C   UNL     1       2.914   0.105   1.396  0.00  0.00    +0.117 C 
ATOM     14  N   UNL     1       3.861  -0.774   0.657  0.00  0.00    -0.311 N 
ATOM     15  C   UNL     1       3.936  -1.993   1.288  0.00  0.00    +0.038 A 
ATOM     16  C   UNL     1       3.920  -3.203   0.623  0.00  0.00    +0.024 A 
ATOM     17  C   UNL     1       3.992  -4.384   1.339  0.00  0.00    +0.002 A 
ATOM     18  C   UNL     1       4.080  -4.365   2.720  0.00  0.00    +0.001 A 
ATOM     19  C   UNL     1       4.100  -3.164   3.403  0.00  0.00    +0.010 A 
ATOM     20  C   UNL     1       4.030  -1.970   2.697  0.00  0.00    -0.004 A 
ATOM     21  C   UNL     1       4.052  -0.658   3.386  0.00  0.00    +0.007 C 
ATOM     22  C   UNL     1       3.496   0.388   2.747  0.00  0.00    -0.003 C 
ATOM     23  H   UNL     1       3.387   4.369   1.348  0.00  0.00    +0.155 HD
ENDROOT
BRANCH   1  24
ATOM     24  C   UNL     1       4.469  -1.151  -1.682  0.00  0.00    +0.160 C 
ATOM     25  O   UNL     1       5.617  -1.197  -1.308  0.00  0.00    -0.295 OA
BRANCH  24  27
ATOM     26  C   UNL     1       5.375  -2.047  -3.810  0.00  0.00    +0.018 C 
ATOM     27  C   UNL     1       4.125  -1.521  -3.102  0.00  0.00    +0.022 C 
ATOM     28  C   UNL     1       3.046  -2.607  -3.098  0.00  0.00    +0.018 C 
ATOM     29  C   UNL     1       3.602  -0.286  -3.838  0.00  0.00    +0.018 C 
ENDBRANCH  24  27
ENDBRANCH   1  24
BRANCH   2  30
ATOM     30  C   UNL     1       4.191   1.507  -1.564  0.00  0.00    +0.170 C 
ATOM     31  O   UNL     1       5.327   1.164  -1.317  0.00  0.00    -0.292 OA
BRANCH  30  32
ATOM     32  C   UNL     1       3.944   2.636  -2.475  0.00  0.00    +0.020 A 
ATOM     33  C   UNL     1       2.642   3.104  -2.678  0.00  0.00    +0.011 A 
ATOM     34  C   UNL     1       2.419   4.165  -3.529  0.00  0.00    +0.003 A 
ATOM     35  C   UNL     1       3.480   4.761  -4.190  0.00  0.00    +0.033 A 
ATOM     36  C   UNL     1       4.770   4.300  -3.999  0.00  0.00    +0.127 A 
ATOM     37  C   UNL     1       5.010   3.242  -3.147  0.00  0.00    +0.044 A 
BRANCH  36  38
ATOM     38  N   UNL     1       5.897   4.943  -4.711  0.00  0.00    +0.056 N 
ATOM     39  O   UNL     1       7.034   4.539  -4.544  0.00  0.00    -0.126 OA
ATOM     40  O   UNL     1       5.688   5.877  -5.465  0.00  0.00    -0.126 OA
ENDBRANCH  36  38
ENDBRANCH  30  32
ENDBRANCH   2  30
TORSDOF 5
