REMARK  Name = ZINC35915370
REMARK  5 active torsions:
REMARK  status: ('A' for Active; 'I' for Inactive)
REMARK    1  A    between atoms: C_2  and  C_3
REMARK    2  A    between atoms: C_3  and  N_4
REMARK    3  A    between atoms: C_6  and  C_27
REMARK    4  A    between atoms: C_9  and  C_12
REMARK    5  A    between atoms: N_17  and  C_20
REMARK                            x       y       z     vdW  Elec       q    Type
REMARK                         _______ _______ _______ _____ _____    ______ ____
ROOT
ATOM      1  N   UNL     1      -1.321  -1.685  -1.138  0.00  0.00    +0.383 N 
ATOM      2  C   UNL     1      -2.519  -2.528  -1.049  0.00  0.00    -0.070 C 
ATOM      3  C   UNL     1      -2.506  -3.560  -2.179  0.00  0.00    +0.003 C 
ATOM      4  C   UNL     1      -2.490  -2.833  -3.527  0.00  0.00    +0.017 C 
ATOM      5  C   UNL     1      -1.276  -1.901  -3.579  0.00  0.00    +0.059 C 
ATOM      6  C   UNL     1      -1.335  -0.930  -2.397  0.00  0.00    -0.066 C 
ATOM      7  H   UNL     1      -0.498  -2.269  -1.106  0.00  0.00    -0.081 HD
ENDROOT
BRANCH   5   8
ATOM      8  C   UNL     1      -0.011  -2.716  -3.499  0.00  0.00    +0.217 C 
ATOM      9  O   UNL     1       0.020  -3.723  -2.823  0.00  0.00    -0.275 OA
ATOM     10  N   UNL     1       1.085  -2.327  -4.179  0.00  0.00    -0.298 N 
ATOM     11  C   UNL     1       1.102  -1.048  -4.902  0.00  0.00    +0.126 C 
ATOM     12  C   UNL     1       2.298  -0.223  -4.410  0.00  0.00    +0.124 C 
ATOM     13  N   UNL     1       3.498  -1.070  -4.442  0.00  0.00    -0.325 N 
ATOM     14  C   UNL     1       3.481  -2.350  -3.719  0.00  0.00    +0.124 C 
ATOM     15  C   UNL     1       2.287  -3.172  -4.207  0.00  0.00    +0.126 C 
BRANCH  13  16
ATOM     16  C   UNL     1       4.636  -0.667  -5.148  0.00  0.00    +0.065 A 
ATOM     17  C   UNL     1       5.620   0.080  -4.514  0.00  0.00    +0.026 A 
ATOM     18  C   UNL     1       6.743   0.477  -5.213  0.00  0.00    +0.002 A 
ATOM     19  C   UNL     1       6.888   0.132  -6.545  0.00  0.00    +0.003 A 
ATOM     20  C   UNL     1       5.911  -0.611  -7.181  0.00  0.00    +0.040 A 
ATOM     21  C   UNL     1       4.787  -1.017  -6.485  0.00  0.00    +0.144 A 
ATOM     22  F   UNL     1       3.835  -1.748  -7.105  0.00  0.00    -0.204 F 
ENDBRANCH  13  16
ENDBRANCH   5   8
BRANCH   3  23
ATOM     23  C   UNL     1      -3.737  -4.424  -2.086  0.00  0.00    -0.046 A 
ATOM     24  C   UNL     1      -4.992  -3.850  -2.179  0.00  0.00    +0.004 A 
ATOM     25  C   UNL     1      -6.122  -4.642  -2.094  0.00  0.00    +0.000 A 
ATOM     26  C   UNL     1      -5.997  -6.007  -1.916  0.00  0.00    +0.000 A 
ATOM     27  C   UNL     1      -4.743  -6.581  -1.824  0.00  0.00    +0.000 A 
ATOM     28  C   UNL     1      -3.613  -5.790  -1.914  0.00  0.00    +0.004 A 
ENDBRANCH   3  23
BRANCH   1  29
ATOM     29  C   UNL     1      -1.298  -0.748  -0.007  0.00  0.00    -0.052 C 
BRANCH  29  31
ATOM     30  C   UNL     1      -0.028   1.337  -0.027  0.00  0.00    +0.002 C 
ATOM     31  C   UNL     1      -0.006   0.028  -0.023  0.00  0.00    -0.053 C 
ENDBRANCH  29  31
ENDBRANCH   1  29
TORSDOF 5
