REMARK  Name = ZINC12591014
REMARK  8 active torsions:
REMARK  status: ('A' for Active; 'I' for Inactive)
REMARK    1  A    between atoms: C_1  and  C_2
REMARK    2  A    between atoms: C_5  and  C_8
REMARK    3  A    between atoms: C_8  and  N_9
REMARK    4  A    between atoms: C_15  and  C_17
REMARK    5  A    between atoms: C_17  and  C_18
REMARK    6  A    between atoms: N_20  and  C_21
REMARK    7  A    between atoms: N_20  and  C_22
REMARK    8  A    between atoms: C_22  and  C_23
REMARK                            x       y       z     vdW  Elec       q    Type
REMARK                         _______ _______ _______ _____ _____    ______ ____
ROOT
ATOM      1  N   UNL     1       1.611  -4.735  -0.123  0.00  0.00    +0.391 N 
ATOM      2  C   UNL     1       2.294  -4.260   1.091  0.00  0.00    -0.058 C 
ATOM      3  C   UNL     1       3.753  -4.718   1.046  0.00  0.00    +0.085 C 
ATOM      4  N   UNL     1       3.817  -6.151   0.771  0.00  0.00    -0.318 N 
ATOM      5  C   UNL     1       2.785  -6.834   0.263  0.00  0.00    +0.200 C 
ATOM      6  O   UNL     1       2.923  -8.018   0.042  0.00  0.00    -0.278 OA
ATOM      7  C   UNL     1       1.461  -6.194  -0.044  0.00  0.00    +0.028 C 
ATOM      8  H   UNL     1       4.640  -6.627   0.965  0.00  0.00    +0.149 HD
ATOM      9  H   UNL     1       2.158  -4.495  -0.936  0.00  0.00    -0.080 HD
ENDROOT
BRANCH   1  10
ATOM     10  C   UNL     1       0.286  -4.108  -0.219  0.00  0.00    -0.042 C 
BRANCH  10  15
ATOM     11  C   UNL     1       0.896   1.570  -1.100  0.00  0.00    +0.044 C 
ATOM     12  C   UNL     1       0.737   0.089  -0.870  0.00  0.00    -0.050 A 
ATOM     13  C   UNL     1       0.664  -0.774  -1.948  0.00  0.00    +0.003 A 
ATOM     14  C   UNL     1       0.518  -2.132  -1.737  0.00  0.00    +0.002 A 
ATOM     15  C   UNL     1       0.446  -2.628  -0.449  0.00  0.00    -0.064 A 
ATOM     16  C   UNL     1       0.520  -1.765   0.629  0.00  0.00    +0.002 A 
ATOM     17  C   UNL     1       0.670  -0.407   0.418  0.00  0.00    +0.003 A 
ENDBRANCH  10  15
ENDBRANCH   1  10
BRANCH   7  18
ATOM     18  C   UNL     1       0.939  -6.723  -1.381  0.00  0.00    +0.090 C 
BRANCH  18  19
ATOM     19  C   UNL     1       1.936  -6.410  -2.468  0.00  0.00    +0.215 C 
ATOM     20  O   UNL     1       3.008  -5.920  -2.185  0.00  0.00    -0.276 OA
ATOM     21  N   UNL     1       1.635  -6.675  -3.755  0.00  0.00    -0.299 N 
ATOM     22  C   UNL     1       0.339  -7.267  -4.097  0.00  0.00    +0.132 C 
BRANCH  21  23
ATOM     23  C   UNL     1       2.603  -6.372  -4.811  0.00  0.00    +0.164 C 
BRANCH  23  24
ATOM     24  C   UNL     1       3.493  -7.567  -5.036  0.00  0.00    +0.077 A 
ATOM     25  C   UNL     1       3.192  -8.475  -6.037  0.00  0.00    +0.135 A 
ATOM     26  N   UNL     1       3.972  -9.523  -6.234  0.00  0.00    -0.260 NA
ATOM     27  C   UNL     1       5.040  -9.704  -5.476  0.00  0.00    +0.130 A 
ATOM     28  C   UNL     1       5.340  -8.796  -4.476  0.00  0.00    +0.131 A 
ATOM     29  N   UNL     1       4.562  -7.746  -4.282  0.00  0.00    -0.255 NA
ENDBRANCH  23  24
ENDBRANCH  21  23
ENDBRANCH  18  19
ENDBRANCH   7  18
TORSDOF 6
