REMARK  Name = ZINC06754663
REMARK  0 active torsions:
REMARK  status: ('A' for Active; 'I' for Inactive)
REMARK                            x       y       z     vdW  Elec       q    Type
REMARK                         _______ _______ _______ _____ _____    ______ ____
ROOT
ATOM      1  C   UNL     1      -3.928  -2.024  -1.744  0.00  0.00    +0.007 A 
ATOM      2  C   UNL     1      -3.897  -1.417  -0.484  0.00  0.00    +0.022 A 
ATOM      3  C   UNL     1      -4.202  -0.100  -0.344  0.00  0.00    +0.027 A 
ATOM      4  N   UNL     1      -4.598   0.633  -1.410  0.00  0.00    -0.312 N 
ATOM      5  C   UNL     1      -4.562   0.088  -2.652  0.00  0.00    +0.251 A 
ATOM      6  O   UNL     1      -4.805   0.786  -3.624  0.00  0.00    -0.268 OA
ATOM      7  C   UNL     1      -4.251  -1.266  -2.832  0.00  0.00    +0.070 A 
ATOM      8  C   UNL     1      -5.092   2.006  -1.305  0.00  0.00    +0.130 C 
ATOM      9  C   UNL     1      -4.730   2.654   0.020  0.00  0.00    +0.027 C 
ATOM     10  C   UNL     1      -5.042   1.684   1.164  0.00  0.00    +0.018 C 
ATOM     11  C   UNL     1      -4.078   0.499   1.039  0.00  0.00    +0.053 C 
ATOM     12  C   UNL     1      -2.644   1.035   1.184  0.00  0.00    +0.116 C 
ATOM     13  N   UNL     1      -2.376   1.928   0.046  0.00  0.00    -0.313 N 
ATOM     14  C   UNL     1      -3.272   3.088   0.061  0.00  0.00    +0.112 C 
ATOM     15  C   UNL     1      -1.048   2.327   0.030  0.00  0.00    +0.149 A 
ATOM     16  C   UNL     1      -0.017   1.378   0.010  0.00  0.00    +0.106 A 
ATOM     17  C   UNL     1       1.305   1.842  -0.001  0.00  0.00    +0.101 A 
ATOM     18  C   UNL     1       2.165   0.649  -0.015  0.00  0.00    +0.029 A 
ATOM     19  C   UNL     1       3.547   0.461  -0.030  0.00  0.00    +0.050 A 
ATOM     20  C   UNL     1       4.065  -0.817  -0.043  0.00  0.00    +0.124 A 
ATOM     21  C   UNL     1       3.215  -1.916  -0.041  0.00  0.00    +0.040 A 
ATOM     22  C   UNL     1       1.849  -1.744  -0.025  0.00  0.00    +0.029 A 
ATOM     23  C   UNL     1       1.306  -0.462  -0.013  0.00  0.00    +0.049 A 
ATOM     24  N   UNL     1       0.002  -0.004   0.002  0.00  0.00    -0.350 N 
ATOM     25  H   UNL     1      -0.785  -0.570   0.006  0.00  0.00    +0.166 HD
ATOM     26  F   UNL     1       5.403  -1.001  -0.057  0.00  0.00    -0.205 F 
ATOM     27  N   UNL     1       1.533   3.155   0.005  0.00  0.00    -0.233 NA
ATOM     28  C   UNL     1       0.533   4.009   0.020  0.00  0.00    +0.224 A 
ATOM     29  N   UNL     1      -0.728   3.616   0.030  0.00  0.00    -0.219 NA
ENDROOT
TORSDOF 0
