REMARK  Name = ZINC02807908
REMARK  8 active torsions:
REMARK  status: ('A' for Active; 'I' for Inactive)
REMARK    1  A    between atoms: C_1  and  C_2
REMARK    2  A    between atoms: N_5  and  C_7
REMARK    3  A    between atoms: C_7  and  C_8
REMARK    4  A    between atoms: C_11  and  S_13
REMARK    5  A    between atoms: S_13  and  C_14
REMARK    6  A    between atoms: C_14  and  C_15
REMARK    7  A    between atoms: N_21  and  C_23
REMARK    8  A    between atoms: C_23  and  C_24
REMARK                            x       y       z     vdW  Elec       q    Type
REMARK                         _______ _______ _______ _____ _____    ______ ____
ROOT
ATOM      1  C   UNL     1      -3.728   2.621  -4.431  0.00  0.00    +0.229 C 
ATOM      2  O   UNL     1      -2.770   3.161  -4.944  0.00  0.00    -0.275 OA
ATOM      3  N   UNL     1      -3.591   1.989  -3.248  0.00  0.00    -0.268 N 
ATOM      4  C   UNL     1      -2.344   1.956  -2.611  0.00  0.00    +0.147 A 
ATOM      5  C   UNL     1      -1.158   2.536  -3.089  0.00  0.00    +0.065 A 
ATOM      6  C   UNL     1      -0.180   2.284  -2.189  0.00  0.00    +0.110 A 
ATOM      7  N   UNL     1      -0.721   1.571  -1.179  0.00  0.00    -0.265 N 
ATOM      8  N   UNL     1      -2.078   1.372  -1.466  0.00  0.00    -0.156 NA
ATOM      9  H   UNL     1      -4.357   1.557  -2.838  0.00  0.00    +0.156 HD
ENDROOT
BRANCH   1  10
ATOM     10  C   UNL     1      -5.069   2.656  -5.116  0.00  0.00    +0.175 C 
BRANCH  10  11
ATOM     11  S   UNL     1      -4.928   3.571  -6.671  0.00  0.00    -0.056 S 
BRANCH  11  15
ATOM     12  C   UNL     1      -8.386   3.653  -8.422  0.00  0.00    +0.239 A 
ATOM     13  N   UNL     1      -8.652   2.975  -7.343  0.00  0.00    -0.110 NA
ATOM     14  N   UNL     1      -7.584   2.856  -6.636  0.00  0.00    -0.101 NA
ATOM     15  C   UNL     1      -6.591   3.458  -7.244  0.00  0.00    +0.278 A 
ATOM     16  O   UNL     1      -7.080   3.981  -8.385  0.00  0.00    -0.414 OA
BRANCH  12  17
ATOM     17  C   UNL     1      -9.364   4.011  -9.511  0.00  0.00    +0.241 C 
BRANCH  17  22
ATOM     18  C   UNL     1     -11.854   7.618  -7.065  0.00  0.00    +0.067 C 
ATOM     19  C   UNL     1     -11.080   6.864  -8.114  0.00  0.00    +0.060 A 
ATOM     20  C   UNL     1     -10.681   7.365  -9.358  0.00  0.00    +0.044 A 
ATOM     21  C   UNL     1     -10.011   6.384 -10.006  0.00  0.00    +0.109 A 
ATOM     22  N   UNL     1      -9.988   5.301  -9.202  0.00  0.00    -0.262 N 
ATOM     23  N   UNL     1     -10.670   5.625  -8.022  0.00  0.00    -0.176 NA
ENDBRANCH  17  22
ENDBRANCH  12  17
ENDBRANCH  11  15
ENDBRANCH  10  11
ENDBRANCH   1  10
BRANCH   7  24
ATOM     24  C   UNL     1      -0.013   1.086   0.008  0.00  0.00    +0.183 C 
BRANCH  24  25
ATOM     25  C   UNL     1      -0.718   1.572   1.248  0.00  0.00    +0.027 A 
ATOM     26  C   UNL     1      -0.360   2.781   1.820  0.00  0.00    +0.130 A 
ATOM     27  C   UNL     1      -1.012   3.229   2.956  0.00  0.00    +0.039 A 
ATOM     28  C   UNL     1      -2.014   2.464   3.524  0.00  0.00    +0.004 A 
ATOM     29  C   UNL     1      -2.367   1.255   2.957  0.00  0.00    +0.020 A 
ATOM     30  C   UNL     1      -1.720   0.808   1.818  0.00  0.00    +0.049 A 
ATOM     31 CL   UNL     1      -2.165  -0.712   1.106  0.00  0.00    -0.083 Cl
ATOM     32  F   UNL     1       0.623   3.525   1.267  0.00  0.00    -0.205 F 
ENDBRANCH  24  25
ENDBRANCH   7  24
TORSDOF 7
