REMARK  Name = ZINC02772129
REMARK  11 active torsions:
REMARK  status: ('A' for Active; 'I' for Inactive)
REMARK    1  A    between atoms: C_1  and  C_2
REMARK    2  A    between atoms: C_2  and  C_3
REMARK    3  A    between atoms: C_3  and  O_4
REMARK    4  A    between atoms: O_4  and  C_5
REMARK    5  A    between atoms: C_7  and  C_30
REMARK    6  A    between atoms: C_12  and  C_17
REMARK    7  A    between atoms: C_20  and  O_25
REMARK    8  A    between atoms: C_21  and  O_23
REMARK    9  A    between atoms: O_23  and  C_24
REMARK   10  A    between atoms: O_25  and  C_26
REMARK   11  A    between atoms: C_28  and  C_29
REMARK                            x       y       z     vdW  Elec       q    Type
REMARK                         _______ _______ _______ _____ _____    ______ ____
ROOT
ATOM      1  C   UNL     1       1.308  -2.525  -2.326  0.00  0.00    +0.338 C 
ATOM      2  C   UNL     1       1.376  -3.901  -2.390  0.00  0.00    +0.069 C 
ATOM      3  C   UNL     1       1.949  -4.552  -3.613  0.00  0.00    +0.094 C 
ATOM      4  C   UNL     1       1.938  -6.054  -3.484  0.00  0.00    +0.028 C 
ATOM      5  C   UNL     1       1.441  -6.669  -2.360  0.00  0.00    +0.050 C 
ATOM      6  C   UNL     1       1.429  -8.176  -2.251  0.00  0.00    +0.064 C 
ATOM      7  C   UNL     1       2.606  -8.757  -3.037  0.00  0.00    +0.032 C 
ATOM      8  C   UNL     1       2.486  -8.307  -4.497  0.00  0.00    +0.088 C 
ATOM      9  C   UNL     1       2.452  -6.805  -4.545  0.00  0.00    +0.162 C 
ATOM     10  O   UNL     1       2.880  -6.231  -5.529  0.00  0.00    -0.292 OA
ATOM     11  N   UNL     1       0.957  -5.968  -1.337  0.00  0.00    -0.256 NA
ATOM     12  C   UNL     1       0.919  -4.654  -1.321  0.00  0.00    +0.049 C 
ATOM     13  C   UNL     1       0.358  -3.949  -0.113  0.00  0.00    +0.066 C 
ATOM     14  O   UNL     1       1.860  -1.777  -3.301  0.00  0.00    -0.245 OA
ENDROOT
BRANCH   3  15
ATOM     15  C   UNL     1       3.369  -4.084  -3.803  0.00  0.00    -0.017 A 
ATOM     16  C   UNL     1       4.314  -4.325  -2.823  0.00  0.00    +0.006 A 
ATOM     17  C   UNL     1       5.616  -3.896  -2.997  0.00  0.00    +0.000 A 
ATOM     18  C   UNL     1       5.975  -3.225  -4.152  0.00  0.00    +0.001 A 
ATOM     19  C   UNL     1       5.031  -2.984  -5.133  0.00  0.00    +0.020 A 
ATOM     20  C   UNL     1       3.729  -3.418  -4.961  0.00  0.00    +0.045 A 
ATOM     21 CL   UNL     1       2.545  -3.121  -6.196  0.00  0.00    -0.083 Cl
ENDBRANCH   3  15
BRANCH   7  22
ATOM     22  C   UNL     1       2.573 -10.261  -2.962  0.00  0.00    -0.040 A 
ATOM     23  C   UNL     1       1.480 -10.952  -3.451  0.00  0.00    +0.008 A 
ATOM     24  C   UNL     1       1.444 -12.332  -3.385  0.00  0.00    +0.049 A 
ATOM     25  C   UNL     1       2.506 -13.027  -2.827  0.00  0.00    +0.161 A 
ATOM     26  C   UNL     1       3.606 -12.331  -2.335  0.00  0.00    +0.162 A 
ATOM     27  C   UNL     1       3.637 -10.948  -2.409  0.00  0.00    +0.053 A 
BRANCH  26  28
ATOM     28  O   UNL     1       4.650 -13.008  -1.786  0.00  0.00    -0.491 OA
ATOM     29  C   UNL     1       5.745 -12.229  -1.301  0.00  0.00    +0.277 C 
ENDBRANCH  26  28
BRANCH  25  30
ATOM     30  O   UNL     1       2.472 -14.385  -2.760  0.00  0.00    -0.491 OA
ATOM     31  C   UNL     1       1.310 -15.031  -3.285  0.00  0.00    +0.277 C 
ENDBRANCH  25  30
ENDBRANCH   7  22
BRANCH   1  32
ATOM     32  O   UNL     1       0.691  -1.929  -1.287  0.00  0.00    -0.461 OA
BRANCH  32  33
ATOM     33  C   UNL     1       0.658  -0.500  -1.286  0.00  0.00    +0.232 C 
BRANCH  33  35
ATOM     34  C   UNL     1      -0.114   1.521  -0.036  0.00  0.00    +0.007 C 
ATOM     35  C   UNL     1      -0.079  -0.008  -0.038  0.00  0.00    +0.038 C 
ENDBRANCH  33  35
ENDBRANCH  32  33
ENDBRANCH   1  32
TORSDOF 7
