REMARK  Name = ZINC35576984
REMARK  3 active torsions:
REMARK  status: ('A' for Active; 'I' for Inactive)
REMARK    1  A    between atoms: C_6  and  C_7
REMARK    2  A    between atoms: C_9  and  N_28
REMARK    3  A    between atoms: N_10  and  C_21
REMARK                            x       y       z     vdW  Elec       q    Type
REMARK                         _______ _______ _______ _____ _____    ______ ____
ROOT
ATOM      1  C   UNL     1      -1.354  -0.632  -0.194  0.00  0.00    +0.089 A 
ATOM      2  C   UNL     1      -1.457  -1.874  -0.861  0.00  0.00    +0.086 A 
ATOM      3  C   UNL     1      -0.618  -2.655  -1.645  0.00  0.00    +0.131 A 
ATOM      4  N   UNL     1      -1.304  -3.760  -1.997  0.00  0.00    -0.216 N 
ATOM      5  N   UNL     1      -2.591  -3.715  -1.451  0.00  0.00    -0.144 NA
ATOM      6  C   UNL     1      -2.733  -2.605  -0.760  0.00  0.00    +0.189 A 
ATOM      7  N   UNL     1      -3.725  -2.045  -0.040  0.00  0.00    -0.193 NA
ATOM      8  C   UNL     1      -3.543  -0.881   0.549  0.00  0.00    +0.220 A 
ATOM      9  N   UNL     1      -2.406  -0.195   0.487  0.00  0.00    -0.214 NA
ATOM     10  N   UNL     1      -4.590  -0.347   1.278  0.00  0.00    -0.300 N 
ATOM     11  C   UNL     1      -4.569   0.938   1.993  0.00  0.00    +0.108 C 
ATOM     12  C   UNL     1      -5.942   1.103   2.679  0.00  0.00    +0.020 C 
ATOM     13  C   UNL     1      -6.459  -0.356   2.778  0.00  0.00    +0.020 C 
ATOM     14  C   UNL     1      -5.915  -0.968   1.460  0.00  0.00    +0.108 C 
ENDROOT
BRANCH   1  20
ATOM     15  C   UNL     1       0.549   0.350  -1.468  0.00  0.00    +0.013 A 
ATOM     16  C   UNL     1       1.714   1.087  -1.514  0.00  0.00    +0.039 A 
ATOM     17  C   UNL     1       2.235   1.637  -0.353  0.00  0.00    +0.123 A 
ATOM     18  C   UNL     1       1.590   1.449   0.859  0.00  0.00    +0.039 A 
ATOM     19  C   UNL     1       0.425   0.713   0.916  0.00  0.00    +0.013 A 
ATOM     20  C   UNL     1      -0.104   0.158  -0.250  0.00  0.00    +0.001 A 
ATOM     21  F   UNL     1       3.377   2.358  -0.404  0.00  0.00    -0.205 F 
ENDBRANCH   1  20
BRANCH   4  22
ATOM     22  C   UNL     1      -0.803  -4.798  -2.792  0.00  0.00    +0.068 A 
ATOM     23  C   UNL     1       0.081  -4.518  -3.826  0.00  0.00    +0.029 A 
ATOM     24  C   UNL     1       0.573  -5.544  -4.609  0.00  0.00    +0.022 A 
ATOM     25  C   UNL     1       0.187  -6.850  -4.363  0.00  0.00    +0.041 A 
ATOM     26  C   UNL     1      -0.694  -7.132  -3.333  0.00  0.00    +0.022 A 
ATOM     27  C   UNL     1      -1.185  -6.110  -2.544  0.00  0.00    +0.029 A 
ATOM     28 CL   UNL     1       0.807  -8.137  -5.349  0.00  0.00    -0.084 Cl
ENDBRANCH   4  22
BRANCH   3  29
ATOM     29  N   UNL     1       0.684  -2.353  -2.000  0.00  0.00    -0.342 N 
ATOM     30  H   UNL     1       1.145  -1.614  -1.572  0.00  0.00    +0.144 HD
ATOM     31  H   UNL     1       1.137  -2.880  -2.677  0.00  0.00    +0.144 HD
ENDBRANCH   3  29
TORSDOF 3
