REMARK  Name = ZINC08815708
REMARK  6 active torsions:
REMARK  status: ('A' for Active; 'I' for Inactive)
REMARK    1  A    between atoms: C_1  and  C_2
REMARK    2  A    between atoms: C_5  and  C_8
REMARK    3  A    between atoms: N_10  and  C_20
REMARK    4  A    between atoms: N_13  and  C_14
REMARK    5  A    between atoms: C_20  and  N_57
REMARK    6  A    between atoms: C_23  and  C_26
REMARK                            x       y       z     vdW  Elec       q    Type
REMARK                         _______ _______ _______ _____ _____    ______ ____
ROOT
ATOM      1  C   UNL     1      -2.523   3.870   0.046  0.00  0.00    +0.167 A 
ATOM      2  N   UNL     1      -2.682   5.131   0.334  0.00  0.00    -0.152 NA
ATOM      3  N   UNL     1      -4.048   5.431   0.233  0.00  0.00    -0.257 N 
ATOM      4  C   UNL     1      -4.688   4.296  -0.116  0.00  0.00    +0.181 A 
ATOM      5  S   UNL     1      -6.373   4.122  -0.363  0.00  0.00    -0.011 S 
ATOM      6  N   UNL     1      -3.762   3.324  -0.235  0.00  0.00    -0.271 N 
ENDROOT
BRANCH   1  11
ATOM      7  C   UNL     1       2.489   1.042  -0.017  0.00  0.00    +0.044 C 
ATOM      8  C   UNL     1       1.177   1.782   0.000  0.00  0.00    -0.050 A 
ATOM      9  C   UNL     1      -0.013   1.076   0.008  0.00  0.00    +0.004 A 
ATOM     10  C   UNL     1      -1.218   1.748   0.017  0.00  0.00    +0.012 A 
ATOM     11  C   UNL     1      -1.235   3.143   0.030  0.00  0.00    +0.020 A 
ATOM     12  C   UNL     1      -0.032   3.849   0.023  0.00  0.00    +0.012 A 
ATOM     13  C   UNL     1       1.167   3.166   0.008  0.00  0.00    +0.004 A 
ENDBRANCH   1  11
BRANCH   6  14
ATOM     14  C   UNL     1      -4.012   1.991  -0.584  0.00  0.00    +0.050 A 
ATOM     15  C   UNL     1      -3.516   1.479  -1.776  0.00  0.00    +0.026 A 
ATOM     16  C   UNL     1      -3.759   0.163  -2.115  0.00  0.00    +0.002 A 
ATOM     17  C   UNL     1      -4.505  -0.643  -1.274  0.00  0.00    +0.000 A 
ATOM     18  C   UNL     1      -5.005  -0.135  -0.089  0.00  0.00    +0.002 A 
ATOM     19  C   UNL     1      -4.760   1.179   0.258  0.00  0.00    +0.026 A 
ENDBRANCH   6  14
BRANCH   3  20
ATOM     20  C   UNL     1      -4.667   6.737   0.469  0.00  0.00    +0.072 C 
BRANCH  20  25
ATOM     21  C   UNL     1      -3.840   6.966   2.738  0.00  0.00    -0.076 C 
ATOM     22  C   UNL     1      -3.974   8.273   3.547  0.00  0.00    -0.012 C 
ATOM     23  C   UNL     1      -5.502   8.540   3.528  0.00  0.00    +0.001 C 
ATOM     24  C   UNL     1      -5.890   8.041   2.114  0.00  0.00    -0.068 C 
ATOM     25  N   UNL     1      -5.046   6.848   1.902  0.00  0.00    +0.393 N 
ATOM     26  H   UNL     1      -5.569   6.009   2.176  0.00  0.00    -0.079 HD
BRANCH  23  27
ATOM     27  C   UNL     1      -5.794  10.011   3.681  0.00  0.00    -0.046 A 
ATOM     28  C   UNL     1      -5.279  10.916   2.772  0.00  0.00    +0.004 A 
ATOM     29  C   UNL     1      -5.551  12.264   2.909  0.00  0.00    +0.000 A 
ATOM     30  C   UNL     1      -6.330  12.709   3.961  0.00  0.00    +0.000 A 
ATOM     31  C   UNL     1      -6.841  11.804   4.873  0.00  0.00    +0.000 A 
ATOM     32  C   UNL     1      -6.573  10.455   4.733  0.00  0.00    +0.004 A 
ENDBRANCH  23  27
ENDBRANCH  20  25
ENDBRANCH   3  20
TORSDOF 5
