REMARK  Name = ZINC08721128
REMARK  13 active torsions:
REMARK  status: ('A' for Active; 'I' for Inactive)
REMARK    1  A    between atoms: C_1  and  C_2
REMARK    2  A    between atoms: C_2  and  C_3
REMARK    3  A    between atoms: C_2  and  C_4
REMARK    4  A    between atoms: C_4  and  N_5
REMARK    5  A    between atoms: C_6  and  N_34
REMARK    6  A    between atoms: C_7  and  C_14
REMARK    7  A    between atoms: N_10  and  C_13
REMARK    8  A    between atoms: C_14  and  C_16
REMARK    9  A    between atoms: C_16  and  S_17
REMARK   10  A    between atoms: S_17  and  C_18
REMARK   11  A    between atoms: C_21  and  C_29
REMARK   12  A    between atoms: N_22  and  C_23
REMARK   13  A    between atoms: C_29  and  N_66
REMARK                            x       y       z     vdW  Elec       q    Type
REMARK                         _______ _______ _______ _____ _____    ______ ____
ROOT
ATOM      1  C   UNL     1       2.220  -6.511  -0.267  0.00  0.00    +0.157 C 
ENDROOT
BRANCH   1   2
ATOM      2  C   UNL     1       2.448  -5.021  -0.251  0.00  0.00    +0.182 C 
ATOM      3  O   UNL     1       3.453  -4.566   0.257  0.00  0.00    -0.291 OA
BRANCH   2   6
ATOM      4  N   UNL     1       0.670  -1.963  -1.287  0.00  0.00    -0.281 N 
ATOM      5  C   UNL     1       1.622  -2.760  -0.718  0.00  0.00    +0.116 A 
ATOM      6  C   UNL     1       1.493  -4.156  -0.825  0.00  0.00    +0.120 A 
ATOM      7  C   UNL     1       0.336  -4.684  -1.560  0.00  0.00    +0.269 A 
ATOM      8  O   UNL     1       0.177  -5.883  -1.688  0.00  0.00    -0.267 OA
ATOM      9  N   UNL     1      -0.546  -3.811  -2.089  0.00  0.00    -0.263 N 
ATOM     10  C   UNL     1      -0.373  -2.487  -1.950  0.00  0.00    +0.333 A 
ATOM     11  O   UNL     1      -1.191  -1.735  -2.442  0.00  0.00    -0.246 OA
ATOM     12  C   UNL     1      -1.708  -4.315  -2.825  0.00  0.00    +0.157 C 
BRANCH   5  13
ATOM     13  N   UNL     1       2.676  -2.212  -0.054  0.00  0.00    -0.344 N 
ATOM     14  H   UNL     1       2.716  -1.253   0.083  0.00  0.00    +0.144 HD
ATOM     15  H   UNL     1       3.386  -2.781   0.281  0.00  0.00    +0.144 HD
ENDBRANCH   5  13
BRANCH   4  16
ATOM     16  C   UNL     1       0.792  -0.507  -1.176  0.00  0.00    +0.131 C 
BRANCH  16  18
ATOM     17  C   UNL     1       0.092   1.499   0.137  0.00  0.00    +0.009 C 
ATOM     18  C   UNL     1       0.071  -0.030   0.086  0.00  0.00    +0.003 C 
ATOM     19  C   UNL     1       0.780  -0.591   1.321  0.00  0.00    +0.009 C 
ENDBRANCH  16  18
ENDBRANCH   4  16
ENDBRANCH   2   6
ENDBRANCH   1   2
BRANCH   1  20
ATOM     20  S   UNL     1       3.611  -7.343   0.539  0.00  0.00    -0.078 S 
BRANCH  20  21
ATOM     21  C   UNL     1       3.097  -9.021   0.383  0.00  0.00    +0.196 A 
ATOM     22  N   UNL     1       1.989  -9.449  -0.175  0.00  0.00    -0.122 NA
ATOM     23  N   UNL     1       1.937 -10.732  -0.118  0.00  0.00    -0.135 NA
ATOM     24  C   UNL     1       2.995 -11.197   0.483  0.00  0.00    +0.122 A 
ATOM     25  N   UNL     1       3.774 -10.124   0.825  0.00  0.00    -0.276 N 
BRANCH  25  26
ATOM     26  C   UNL     1       5.009 -10.150   1.491  0.00  0.00    +0.050 A 
ATOM     27  C   UNL     1       6.110 -10.743   0.890  0.00  0.00    +0.026 A 
ATOM     28  C   UNL     1       7.326 -10.764   1.546  0.00  0.00    +0.002 A 
ATOM     29  C   UNL     1       7.443 -10.203   2.804  0.00  0.00    +0.000 A 
ATOM     30  C   UNL     1       6.346  -9.616   3.408  0.00  0.00    +0.002 A 
ATOM     31  C   UNL     1       5.130  -9.588   2.755  0.00  0.00    +0.026 A 
ENDBRANCH  25  26
BRANCH  24  32
ATOM     32  C   UNL     1       3.304 -12.647   0.753  0.00  0.00    -0.001 C 
BRANCH  32  37
ATOM     33  C   UNL     1       1.310 -12.681   2.149  0.00  0.00    -0.078 C 
ATOM     34  C   UNL     1       0.794 -13.591   3.292  0.00  0.00    -0.020 C 
ATOM     35  C   UNL     1       1.581 -14.903   3.070  0.00  0.00    -0.020 C 
ATOM     36  C   UNL     1       2.822 -14.496   2.254  0.00  0.00    -0.078 C 
ATOM     37  N   UNL     1       2.733 -13.046   2.075  0.00  0.00    +0.384 N 
ATOM     38  H   UNL     1       3.252 -12.571   2.823  0.00  0.00    -0.081 HD
ENDBRANCH  32  37
ENDBRANCH  24  32
ENDBRANCH  20  21
ENDBRANCH   1  20
TORSDOF 10
