REMARK  Name = ZINC39226305
REMARK  7 active torsions:
REMARK  status: ('A' for Active; 'I' for Inactive)
REMARK    1  A    between atoms: C_1  and  C_2
REMARK    2  A    between atoms: C_2  and  C_3
REMARK    3  A    between atoms: C_2  and  N_4
REMARK    4  A    between atoms: C_15  and  C_20
REMARK    5  A    between atoms: C_24  and  C_26
REMARK    6  A    between atoms: C_32  and  C_35
REMARK    7  A    between atoms: C_35  and  O_36
REMARK                            x       y       z     vdW  Elec       q    Type
REMARK                         _______ _______ _______ _____ _____    ______ ____
ROOT
ATOM      1  N   UNL     1       0.990  -2.814   1.407  0.00  0.00    +0.381 N 
ATOM      2  C   UNL     1       1.034  -4.225   1.811  0.00  0.00    -0.075 C 
ATOM      3  C   UNL     1       1.807  -4.359   3.125  0.00  0.00    +0.030 C 
ATOM      4  C   UNL     1       1.109  -3.535   4.208  0.00  0.00    +0.114 C 
ATOM      5  C   UNL     1       0.999  -2.080   3.744  0.00  0.00    +0.030 C 
ATOM      6  C   UNL     1       0.255  -2.032   2.408  0.00  0.00    -0.075 C 
ATOM      7  C   UNL     1       1.932  -3.593   5.502  0.00  0.00    +0.127 C 
ATOM      8  C   UNL     1       1.184  -2.781   6.545  0.00  0.00    +0.170 C 
ATOM      9  O   UNL     1       1.764  -2.059   7.329  0.00  0.00    -0.292 OA
ATOM     10  C   UNL     1      -0.284  -2.915   6.554  0.00  0.00    +0.060 A 
ATOM     11  C   UNL     1      -1.036  -2.409   7.614  0.00  0.00    +0.023 A 
ATOM     12  C   UNL     1      -2.420  -2.543   7.597  0.00  0.00    -0.017 A 
ATOM     13  C   UNL     1      -3.045  -3.181   6.522  0.00  0.00    +0.012 A 
ATOM     14  C   UNL     1      -2.302  -3.683   5.476  0.00  0.00    +0.047 A 
ATOM     15  C   UNL     1      -0.918  -3.559   5.478  0.00  0.00    +0.132 A 
ATOM     16  O   UNL     1      -0.194  -4.062   4.450  0.00  0.00    -0.485 OA
ATOM     17  H   UNL     1       1.931  -2.459   1.329  0.00  0.00    -0.081 HD
ENDROOT
BRANCH  12  18
ATOM     18  C   UNL     1      -3.232  -2.010   8.718  0.00  0.00    -0.017 A 
ATOM     19  C   UNL     1      -2.608  -1.367   9.788  0.00  0.00    +0.008 A 
ATOM     20  C   UNL     1      -3.362  -0.870  10.833  0.00  0.00    +0.001 A 
ATOM     21  C   UNL     1      -4.736  -1.004  10.826  0.00  0.00    +0.013 A 
ATOM     22  C   UNL     1      -5.371  -1.644   9.761  0.00  0.00    +0.037 A 
ATOM     23  C   UNL     1      -4.616  -2.144   8.701  0.00  0.00    +0.021 A 
BRANCH  22  24
ATOM     24  C   UNL     1      -6.843  -1.788   9.755  0.00  0.00    +0.247 C 
ATOM     25  O   UNL     1      -7.483  -1.446   8.780  0.00  0.00    -0.270 OA
ATOM     26  N   UNL     1      -7.475  -2.300  10.830  0.00  0.00    -0.297 N 
ATOM     27  C   UNL     1      -6.726  -2.636  12.048  0.00  0.00    +0.108 C 
ATOM     28  C   UNL     1      -7.024  -4.090  12.425  0.00  0.00    +0.019 C 
ATOM     29  C   UNL     1      -8.537  -4.283  12.544  0.00  0.00    +0.009 C 
ATOM     30  C   UNL     1      -9.199  -3.988  11.196  0.00  0.00    +0.032 C 
ATOM     31  C   UNL     1      -8.926  -2.527  10.807  0.00  0.00    +0.113 C 
BRANCH  30  32
ATOM     32  C   UNL     1     -10.708  -4.213  11.307  0.00  0.00    +0.160 C 
BRANCH  32  33
ATOM     33  O   UNL     1     -11.310  -4.051  10.021  0.00  0.00    -0.395 OA
ATOM     34  H   UNL     1     -12.268  -4.179  10.017  0.00  0.00    +0.209 HD
ENDBRANCH  32  33
ENDBRANCH  30  32
ENDBRANCH  22  24
ENDBRANCH  12  18
BRANCH   1  36
ATOM     35  C   UNL     1       0.277  -1.231  -0.320  0.00  0.00    -0.014 C 
ATOM     36  C   UNL     1       0.315  -2.700   0.107  0.00  0.00    -0.075 C 
ATOM     37  C   UNL     1       1.080  -3.515  -0.938  0.00  0.00    -0.014 C 
ENDBRANCH   1  36
TORSDOF 5
