REMARK  Name = ZINC14534363
REMARK  9 active torsions:
REMARK  status: ('A' for Active; 'I' for Inactive)
REMARK    1  A    between atoms: C_1  and  C_2
REMARK    2  A    between atoms: C_2  and  O_3
REMARK    3  A    between atoms: O_3  and  C_4
REMARK    4  A    between atoms: C_4  and  C_6
REMARK    5  A    between atoms: N_9  and  C_11
REMARK    6  A    between atoms: C_11  and  C_12
REMARK    7  A    between atoms: C_22  and  C_24
REMARK    8  A    between atoms: C_24  and  N_25
REMARK    9  A    between atoms: C_27  and  C_32
REMARK                            x       y       z     vdW  Elec       q    Type
REMARK                         _______ _______ _______ _____ _____    ______ ____
ROOT
ATOM      1  C   UNL     1      -1.023   2.630   3.228  0.00  0.00    +0.174 A 
ATOM      2  C   UNL     1      -2.266   2.629   2.575  0.00  0.00    +0.025 A 
ATOM      3  C   UNL     1      -2.023   2.219   1.306  0.00  0.00    +0.047 A 
ATOM      4  N   UNL     1      -0.704   1.975   1.216  0.00  0.00    -0.263 N 
ATOM      5  N   UNL     1      -0.130   2.223   2.342  0.00  0.00    -0.164 NA
ATOM      6  C   UNL     1      -3.082   2.070   0.245  0.00  0.00    +0.074 C 
ATOM      7  C   UNL     1      -4.458   2.020   0.922  0.00  0.00    +0.114 C 
ATOM      8  N   UNL     1      -4.536   3.074   1.943  0.00  0.00    -0.295 N 
ATOM      9  C   UNL     1      -3.628   2.995   3.103  0.00  0.00    +0.147 C 
ATOM     10  C   UNL     1      -5.416   4.089   1.823  0.00  0.00    +0.233 C 
ATOM     11  O   UNL     1      -5.467   4.951   2.675  0.00  0.00    -0.274 OA
ENDROOT
BRANCH   1  12
ATOM     12  C   UNL     1      -0.764   3.011   4.630  0.00  0.00    +0.360 C 
ATOM     13  O   UNL     1      -1.681   3.370   5.342  0.00  0.00    -0.243 OA
BRANCH  12  14
ATOM     14  O   UNL     1       0.489   2.962   5.122  0.00  0.00    -0.460 OA
BRANCH  14  16
ATOM     15  C   UNL     1       2.148   3.232   6.884  0.00  0.00    +0.048 C 
ATOM     16  C   UNL     1       0.670   3.351   6.509  0.00  0.00    +0.229 C 
ENDBRANCH  14  16
ENDBRANCH  12  14
ENDBRANCH   1  12
BRANCH   4  17
ATOM     17  C   UNL     1      -0.018   1.503   0.010  0.00  0.00    +0.179 C 
BRANCH  17  18
ATOM     18  C   UNL     1       0.002  -0.004   0.002  0.00  0.00    -0.026 A 
ATOM     19  C   UNL     1       1.057  -0.684   0.582  0.00  0.00    +0.005 A 
ATOM     20  C   UNL     1       1.073  -2.067   0.579  0.00  0.00    +0.000 A 
ATOM     21  C   UNL     1       0.040  -2.768  -0.014  0.00  0.00    +0.000 A 
ATOM     22  C   UNL     1      -1.012  -2.088  -0.599  0.00  0.00    +0.000 A 
ATOM     23  C   UNL     1      -1.031  -0.706  -0.591  0.00  0.00    +0.005 A 
ENDBRANCH  17  18
ENDBRANCH   4  17
BRANCH  10  24
ATOM     24  C   UNL     1      -6.335   4.151   0.631  0.00  0.00    +0.203 C 
BRANCH  24  25
ATOM     25  N   UNL     1      -7.187   5.339   0.733  0.00  0.00    -0.292 N 
ATOM     26  C   UNL     1      -8.499   5.362   1.390  0.00  0.00    +0.117 C 
ATOM     27  C   UNL     1      -8.807   6.857   1.639  0.00  0.00    +0.045 C 
ATOM     28  C   UNL     1      -7.973   7.537   0.529  0.00  0.00    +0.105 C 
ATOM     29  C   UNL     1      -6.871   6.545   0.232  0.00  0.00    +0.217 C 
ATOM     30  O   UNL     1      -5.850   6.801  -0.370  0.00  0.00    -0.276 OA
BRANCH  27  31
ATOM     31  C   UNL     1     -10.276   7.140   1.460  0.00  0.00    -0.042 A 
ATOM     32  C   UNL     1     -10.912   6.778   0.287  0.00  0.00    +0.004 A 
ATOM     33  C   UNL     1     -12.261   7.033   0.125  0.00  0.00    +0.000 A 
ATOM     34  C   UNL     1     -12.972   7.659   1.132  0.00  0.00    +0.000 A 
ATOM     35  C   UNL     1     -12.335   8.026   2.302  0.00  0.00    +0.000 A 
ATOM     36  C   UNL     1     -10.987   7.766   2.467  0.00  0.00    +0.004 A 
ENDBRANCH  27  31
ENDBRANCH  24  25
ENDBRANCH  10  24
TORSDOF 8
