REMARK  Name = ZINC39606516
REMARK  7 active torsions:
REMARK  status: ('A' for Active; 'I' for Inactive)
REMARK    1  A    between atoms: C_1  and  C_2
REMARK    2  A    between atoms: C_2  and  C_3
REMARK    3  A    between atoms: C_3  and  C_5
REMARK    4  A    between atoms: C_3  and  C_6
REMARK    5  A    between atoms: C_6  and  N_7
REMARK    6  A    between atoms: C_8  and  C_10
REMARK    7  A    between atoms: C_21  and  C_23
REMARK                            x       y       z     vdW  Elec       q    Type
REMARK                         _______ _______ _______ _____ _____    ______ ____
ROOT
ATOM      1  C   UNL     1       2.767  -4.311   3.595  0.00  0.00    +0.100 C 
ATOM      2  C   UNL     1       2.131  -3.880   4.936  0.00  0.00    +0.121 C 
ATOM      3  N   UNL     1       1.317  -5.045   5.356  0.00  0.00    -0.297 N 
ATOM      4  C   UNL     1       2.143  -6.222   4.994  0.00  0.00    +0.115 C 
ATOM      5  C   UNL     1       2.776  -5.849   3.639  0.00  0.00    -0.004 C 
ATOM      6  C   UNL     1       4.207  -6.371   3.563  0.00  0.00    -0.010 C 
ATOM      7  C   UNL     1       4.187  -7.902   3.549  0.00  0.00    -0.082 C 
ATOM      8  N   UNL     1       3.411  -8.373   2.395  0.00  0.00    +0.379 N 
ATOM      9  C   UNL     1       2.013  -7.944   2.523  0.00  0.00    -0.082 C 
ATOM     10  C   UNL     1       1.941  -6.415   2.494  0.00  0.00    -0.010 C 
ATOM     11  C   UNL     1       0.101  -5.036   5.937  0.00  0.00    +0.260 C 
ATOM     12  O   UNL     1      -0.441  -6.082   6.224  0.00  0.00    -0.271 OA
ATOM     13  H   UNL     1       3.803  -7.988   1.548  0.00  0.00    -0.086 HD
ATOM     14  H   UNL     1       3.450  -9.380   2.353  0.00  0.00    -0.086 HD
ENDROOT
BRANCH  11  15
ATOM     15  C   UNL     1      -0.585  -3.726   6.229  0.00  0.00    +0.296 C 
ATOM     16  C   UNL     1       0.211  -2.949   7.285  0.00  0.00    +0.283 C 
ATOM     17  O   UNL     1      -0.474  -1.720   7.549  0.00  0.00    -0.484 OA
ATOM     18  C   UNL     1      -1.819  -1.799   7.739  0.00  0.00    +0.162 A 
ATOM     19  C   UNL     1      -2.484  -0.742   8.345  0.00  0.00    +0.049 A 
ATOM     20  C   UNL     1      -3.850  -0.806   8.542  0.00  0.00    +0.004 A 
ATOM     21  C   UNL     1      -4.558  -1.922   8.137  0.00  0.00    +0.004 A 
ATOM     22  C   UNL     1      -3.902  -2.979   7.535  0.00  0.00    +0.049 A 
ATOM     23  C   UNL     1      -2.530  -2.922   7.335  0.00  0.00    +0.163 A 
ATOM     24  O   UNL     1      -1.897  -3.974   6.747  0.00  0.00    -0.473 OA
ENDBRANCH  11  15
BRANCH   1  26
ATOM     25  N   UNL     1       2.513  -3.567   1.250  0.00  0.00    -0.315 N 
ATOM     26  C   UNL     1       1.933  -3.824   2.438  0.00  0.00    +0.218 C 
ATOM     27  O   UNL     1       0.739  -3.663   2.577  0.00  0.00    -0.275 OA
ATOM     28  H   UNL     1       3.468  -3.696   1.139  0.00  0.00    +0.149 HD
BRANCH  25  29
ATOM     29  C   UNL     1       1.702  -3.094   0.125  0.00  0.00    +0.107 C 
BRANCH  29  30
ATOM     30  C   UNL     1       2.599  -2.881  -1.096  0.00  0.00    +0.003 C 
ATOM     31  C   UNL     1       3.592  -1.753  -0.810  0.00  0.00    +0.009 C 
BRANCH  30  33
ATOM     32  C   UNL     1       2.617  -2.416  -3.551  0.00  0.00    +0.004 C 
ATOM     33  C   UNL     1       1.736  -2.507  -2.303  0.00  0.00    +0.001 C 
ENDBRANCH  30  33
ENDBRANCH  29  30
ENDBRANCH  25  29
ENDBRANCH   1  26
TORSDOF 5
