REMARK  Name = ZINC20356541
REMARK  8 active torsions:
REMARK  status: ('A' for Active; 'I' for Inactive)
REMARK    1  A    between atoms: C_1  and  C_2
REMARK    2  A    between atoms: C_4  and  C_18
REMARK    3  A    between atoms: C_5  and  C_17
REMARK    4  A    between atoms: N_6  and  C_7
REMARK    5  A    between atoms: C_9  and  O_15
REMARK    6  A    between atoms: C_12  and  O_13
REMARK    7  A    between atoms: O_13  and  C_14
REMARK    8  A    between atoms: O_15  and  C_16
REMARK                            x       y       z     vdW  Elec       q    Type
REMARK                         _______ _______ _______ _____ _____    ______ ____
ROOT
ATOM      1  C   UNL     1       0.130  -3.413  -1.426  0.00  0.00    +0.026 C 
ATOM      2  C   UNL     1       0.589  -3.322  -2.725  0.00  0.00    +0.081 C 
ATOM      3  C   UNL     1       1.180  -2.066  -3.261  0.00  0.00    +0.153 C 
ATOM      4  N   UNL     1       1.873  -1.230  -2.532  0.00  0.00    -0.283 NA
ATOM      5  N   UNL     1       0.921  -1.865  -4.633  0.00  0.00    -0.150 N 
ATOM      6  C   UNL     1       0.637  -2.976  -5.395  0.00  0.00    +0.182 C 
ATOM      7  N   UNL     1       0.481  -4.209  -4.982  0.00  0.00    -0.152 NA
ATOM      8  C   UNL     1       0.524  -4.472  -3.658  0.00  0.00    +0.273 C 
ATOM      9  O   UNL     1       0.507  -5.620  -3.242  0.00  0.00    -0.268 OA
ATOM     10  S   UNL     1       0.523  -2.292  -7.027  0.00  0.00    -0.018 S 
ATOM     11  C   UNL     1       0.758  -0.577  -6.580  0.00  0.00    +0.182 C 
ATOM     12  N   UNL     1       0.937  -0.651  -5.285  0.00  0.00    -0.149 NA
ATOM     13  N   UNL     1       0.751   0.543  -7.395  0.00  0.00    -0.308 N 
ATOM     14  C   UNL     1       0.972   1.881  -6.830  0.00  0.00    +0.107 C 
ATOM     15  C   UNL     1       2.114   2.557  -7.596  0.00  0.00    +0.019 C 
ATOM     16  C   UNL     1       1.792   2.552  -9.092  0.00  0.00    +0.003 C 
ATOM     17  C   UNL     1       1.669   1.108  -9.584  0.00  0.00    +0.019 C 
ATOM     18  C   UNL     1       0.529   0.415  -8.842  0.00  0.00    +0.107 C 
ATOM     19  H   UNL     1       2.208  -0.407  -2.923  0.00  0.00    +0.188 HD
ENDROOT
BRANCH   1  23
ATOM     20  C   UNL     1      -0.265   1.421  -0.015  0.00  0.00    +0.064 C 
ATOM     21  C   UNL     1      -0.170  -0.083  -0.016  0.00  0.00    +0.022 A 
ATOM     22  C   UNL     1      -0.052  -0.854  -1.110  0.00  0.00    +0.031 A 
ATOM     23  C   UNL     1       0.006  -2.244  -0.634  0.00  0.00    -0.003 A 
ATOM     24  C   UNL     1      -0.087  -2.176   0.746  0.00  0.00    +0.028 A 
ATOM     25  N   UNL     1      -0.186  -0.878   1.096  0.00  0.00    -0.314 N 
ATOM     26  C   UNL     1      -0.073  -3.349   1.693  0.00  0.00    +0.064 C 
BRANCH  25  27
ATOM     27  C   UNL     1      -0.293  -0.410   2.413  0.00  0.00    +0.092 A 
ATOM     28  C   UNL     1      -1.542  -0.259   2.998  0.00  0.00    +0.075 A 
ATOM     29  C   UNL     1      -1.645   0.204   4.300  0.00  0.00    +0.122 A 
ATOM     30  C   UNL     1      -0.501   0.517   5.019  0.00  0.00    +0.049 A 
ATOM     31  C   UNL     1       0.745   0.368   4.439  0.00  0.00    +0.051 A 
ATOM     32  C   UNL     1       0.854  -0.100   3.139  0.00  0.00    +0.144 A 
BRANCH  32  33
ATOM     33  O   UNL     1       2.081  -0.252   2.572  0.00  0.00    -0.493 OA
ATOM     34  C   UNL     1       3.214   0.084   3.375  0.00  0.00    +0.277 C 
ENDBRANCH  32  33
BRANCH  29  35
ATOM     35  O   UNL     1      -2.869   0.352   4.873  0.00  0.00    -0.495 OA
ATOM     36  C   UNL     1      -2.902   0.834   6.218  0.00  0.00    +0.277 C 
ENDBRANCH  29  35
ENDBRANCH  25  27
ENDBRANCH   1  23
TORSDOF 4
