REMARK  Name = ZINC20833801
REMARK  6 active torsions:
REMARK  status: ('A' for Active; 'I' for Inactive)
REMARK    1  A    between atoms: C_11  and  C_13
REMARK    2  A    between atoms: C_13  and  C_14
REMARK    3  A    between atoms: C_14  and  S_15
REMARK    4  A    between atoms: S_15  and  C_16
REMARK    5  A    between atoms: N_21  and  N_22
REMARK    6  A    between atoms: C_23  and  C_24
REMARK                            x       y       z     vdW  Elec       q    Type
REMARK                         _______ _______ _______ _____ _____    ______ ____
ROOT
ATOM      1  C   UNL     1      -4.474   9.337   0.091  0.00  0.00    +0.210 A 
ATOM      2  N   UNL     1      -4.883   8.034   0.088  0.00  0.00    -0.186 NA
ATOM      3  C   UNL     1      -3.768   7.242   0.073  0.00  0.00    +0.232 A 
ATOM      4  N   UNL     1      -2.716   8.023   0.073  0.00  0.00    -0.245 N 
ATOM      5  N   UNL     1      -3.162   9.351   0.079  0.00  0.00    -0.144 NA
ATOM      6  N   UNL     1      -3.754   5.854   0.066  0.00  0.00    -0.205 N 
ATOM      7  H   UNL     1      -4.700   5.294   0.072  0.00  0.00    +0.177 HD
ATOM      8  H   UNL     1      -1.706   7.586   0.069  0.00  0.00    +0.192 HD
ENDROOT
BRANCH   6   9
ATOM      9  N   UNL     1      -2.533   5.166   0.052  0.00  0.00    -0.188 NA
ATOM     10  C   UNL     1      -2.520   3.868   0.045  0.00  0.00    +0.139 C 
BRANCH  10  11
ATOM     11  C   UNL     1      -1.236   3.144   0.029  0.00  0.00    +0.014 A 
ATOM     12  C   UNL     1      -1.217   1.747   0.017  0.00  0.00    +0.011 A 
ATOM     13  C   UNL     1      -0.013   1.076   0.008  0.00  0.00    +0.002 A 
ATOM     14  C   UNL     1       1.178   1.782   0.000  0.00  0.00    +0.021 A 
ATOM     15  C   UNL     1       1.169   3.166   0.007  0.00  0.00    +0.060 A 
ATOM     16  C   UNL     1      -0.030   3.852   0.022  0.00  0.00    +0.068 A 
ATOM     17 CL   UNL     1      -0.041   5.588   0.030  0.00  0.00    -0.081 Cl
ATOM     18 CL   UNL     1       2.668   4.042  -0.002  0.00  0.00    -0.082 Cl
ENDBRANCH  10  11
ENDBRANCH   6   9
BRANCH   1  19
ATOM     19  S   UNL     1      -5.525  10.752   0.108  0.00  0.00    -0.084 S 
BRANCH  19  20
ATOM     20  C   UNL     1      -4.373  12.153   0.105  0.00  0.00    +0.086 C 
BRANCH  20  21
ATOM     21  C   UNL     1      -5.164  13.463   0.119  0.00  0.00    +0.107 C 
BRANCH  21  32
ATOM     22  C   UNL     1      -2.158  21.416   0.136  0.00  0.00    +0.002 A 
ATOM     23  C   UNL     1      -0.868  20.904   0.121  0.00  0.00    +0.001 A 
ATOM     24  C   UNL     1      -0.683  19.534   0.112  0.00  0.00    +0.017 A 
ATOM     25  C   UNL     1      -1.775  18.703   0.117  0.00  0.00    +0.041 A 
ATOM     26  C   UNL     1      -3.103  19.188   0.131  0.00  0.00    +0.080 A 
ATOM     27  C   UNL     1      -3.254  20.594   0.141  0.00  0.00    +0.029 A 
ATOM     28  N   UNL     1      -4.070  18.245   0.135  0.00  0.00    -0.225 NA
ATOM     29  C   UNL     1      -3.803  16.960   0.125  0.00  0.00    +0.165 A 
ATOM     30  S   UNL     1      -2.015  16.942   0.117  0.00  0.00    -0.052 S 
ATOM     31  N   UNL     1      -4.682  15.889   0.128  0.00  0.00    -0.265 N 
ATOM     32  C   UNL     1      -4.208  14.627   0.117  0.00  0.00    +0.219 C 
ATOM     33  O   UNL     1      -3.011  14.430   0.105  0.00  0.00    -0.275 OA
ATOM     34  H   UNL     1      -5.767  16.069   0.139  0.00  0.00    +0.157 HD
ENDBRANCH  21  32
ENDBRANCH  20  21
ENDBRANCH  19  20
ENDBRANCH   1  19
TORSDOF 6
