REMARK  Name = ZINC02502276
REMARK  7 active torsions:
REMARK  status: ('A' for Active; 'I' for Inactive)
REMARK    1  A    between atoms: C_1  and  N_2
REMARK    2  A    between atoms: C_6  and  C_23
REMARK    3  A    between atoms: C_8  and  C_16
REMARK    4  A    between atoms: C_10  and  C_11
REMARK    5  A    between atoms: C_10  and  O_15
REMARK    6  A    between atoms: C_16  and  C_18
REMARK    7  A    between atoms: C_26  and  N_29
REMARK                            x       y       z     vdW  Elec       q    Type
REMARK                         _______ _______ _______ _____ _____    ______ ____
ROOT
ATOM      1  C   UNL     1       3.539   1.037   1.404  0.00  0.00    +0.137 C 
ATOM      2  N   UNL     1       2.087   1.213   1.322  0.00  0.00    -0.253 N 
ATOM      3  C   UNL     1       1.335   0.984   2.409  0.00  0.00    +0.305 C 
ATOM      4  O   UNL     1       1.885   0.644   3.438  0.00  0.00    -0.253 OA
ATOM      5  N   UNL     1       0.000   1.113   2.404  0.00  0.00    -0.292 N 
ATOM      6  C   UNL     1      -0.720   1.531   1.200  0.00  0.00    +0.120 C 
ATOM      7  C   UNL     1       0.063   1.077  -0.037  0.00  0.00    +0.145 C 
ATOM      8  C   UNL     1       1.487   1.636   0.056  0.00  0.00    +0.245 C 
ATOM      9  H   UNL     1      -0.498   0.927   3.215  0.00  0.00    +0.151 HD
ENDROOT
BRANCH   6  10
ATOM     10  C   UNL     1      -2.089   0.901   1.188  0.00  0.00    -0.026 A 
ATOM     11  C   UNL     1      -2.251  -0.407   1.603  0.00  0.00    +0.008 A 
ATOM     12  C   UNL     1      -3.508  -0.984   1.597  0.00  0.00    +0.033 A 
ATOM     13  C   UNL     1      -4.600  -0.255   1.167  0.00  0.00    +0.126 A 
ATOM     14  C   UNL     1      -4.437   1.052   0.747  0.00  0.00    +0.033 A 
ATOM     15  C   UNL     1      -3.182   1.630   0.758  0.00  0.00    +0.008 A 
BRANCH  13  16
ATOM     16  N   UNL     1      -5.945  -0.874   1.155  0.00  0.00    +0.056 N 
ATOM     17  O   UNL     1      -6.908  -0.232   0.775  0.00  0.00    -0.126 OA
ATOM     18  O   UNL     1      -6.088  -2.026   1.525  0.00  0.00    -0.126 OA
ENDBRANCH  13  16
ENDBRANCH   6  10
BRANCH   8  19
ATOM     19  C   UNL     1       2.322   1.101  -1.110  0.00  0.00    +0.436 C 
ATOM     20  F   UNL     1       1.677   1.389  -2.317  0.00  0.00    -0.166 F 
ATOM     21  F   UNL     1       3.582   1.710  -1.098  0.00  0.00    -0.166 F 
ATOM     22  F   UNL     1       2.472  -0.284  -0.980  0.00  0.00    -0.166 F 
ENDBRANCH   8  19
BRANCH   8  23
ATOM     23  O   UNL     1       1.445   3.063  -0.000  0.00  0.00    -0.364 OA
ATOM     24  H   UNL     1       2.314   3.484   0.053  0.00  0.00    +0.212 HD
ENDBRANCH   8  23
BRANCH   7  25
ATOM     25  C   UNL     1      -0.605   1.598  -1.283  0.00  0.00    +0.180 C 
ATOM     26  O   UNL     1      -0.232   2.641  -1.781  0.00  0.00    -0.291 OA
BRANCH  25  27
ATOM     27  C   UNL     1      -1.665   0.874  -1.871  0.00  0.00    +0.055 A 
ATOM     28  C   UNL     1      -2.408   1.175  -3.009  0.00  0.00    +0.019 A 
ATOM     29  C   UNL     1      -3.391   0.288  -3.363  0.00  0.00    +0.008 A 
ATOM     30  C   UNL     1      -3.590  -0.823  -2.602  0.00  0.00    +0.046 A 
ATOM     31  S   UNL     1      -2.395  -0.670  -1.355  0.00  0.00    -0.094 S 
ENDBRANCH  25  27
ENDBRANCH   7  25
TORSDOF 6
