REMARK  Name = ZINC45974368
REMARK  6 active torsions:
REMARK  status: ('A' for Active; 'I' for Inactive)
REMARK    1  A    between atoms: C_6  and  S_7
REMARK    2  A    between atoms: S_7  and  N_10
REMARK    3  A    between atoms: N_10  and  C_11
REMARK    4  A    between atoms: N_10  and  C_18
REMARK    5  A    between atoms: C_11  and  C_12
REMARK    6  A    between atoms: C_18  and  C_19
REMARK                            x       y       z     vdW  Elec       q    Type
REMARK                         _______ _______ _______ _____ _____    ______ ____
ROOT
ATOM      1  N   UNL     1      -1.948  -1.147  -1.567  0.00  0.00    -0.165 NA
ENDROOT
BRANCH   1   2
ATOM      2  S   UNL     1      -1.512  -0.905   0.012  0.00  0.00    +0.061 S 
ATOM      3  O   UNL     1      -1.218  -2.186   0.553  0.00  0.00    -0.153 OA
ATOM      4  O   UNL     1      -2.493  -0.046   0.577  0.00  0.00    -0.153 OA
BRANCH   2  10
ATOM      5  C   UNL     1      -0.017   1.378   0.010  0.00  0.00    +0.029 A 
ATOM      6  C   UNL     1       1.171   2.086   0.002  0.00  0.00    +0.017 A 
ATOM      7  C   UNL     1       2.378   1.411  -0.013  0.00  0.00    +0.018 A 
ATOM      8  C   UNL     1       2.396   0.027  -0.021  0.00  0.00    +0.017 A 
ATOM      9  C   UNL     1       1.208  -0.679  -0.013  0.00  0.00    +0.029 A 
ATOM     10  C   UNL     1       0.002  -0.004   0.002  0.00  0.00    +0.106 A 
ATOM     11 BR   UNL     1       4.003   2.378  -0.024  0.00  0.00    -0.050 Br
ENDBRANCH   2  10
ENDBRANCH   1   2
BRANCH   1  12
ATOM     12  C   UNL     1      -1.492  -2.345  -2.278  0.00  0.00    +0.141 C 
BRANCH  12  13
ATOM     13  C   UNL     1      -2.569  -3.428  -2.196  0.00  0.00    +0.134 C 
ATOM     14  C   UNL     1      -2.092  -4.716  -2.913  0.00  0.00    +0.035 C 
ATOM     15  C   UNL     1      -2.948  -5.791  -2.188  0.00  0.00    +0.031 C 
ATOM     16  C   UNL     1      -3.043  -5.223  -0.756  0.00  0.00    +0.160 C 
ATOM     17  O   UNL     1      -2.785  -3.814  -0.830  0.00  0.00    -0.375 OA
ENDBRANCH  12  13
ENDBRANCH   1  12
BRANCH   1  18
ATOM     18  C   UNL     1      -2.789  -0.164  -2.254  0.00  0.00    +0.205 C 
BRANCH  18  19
ATOM     19  C   UNL     1      -1.917   0.798  -3.018  0.00  0.00    +0.231 C 
ATOM     20  O   UNL     1      -0.711   0.674  -2.992  0.00  0.00    -0.274 OA
ATOM     21  N   UNL     1      -2.477   1.795  -3.731  0.00  0.00    -0.304 N 
ATOM     22  C   UNL     1      -3.937   1.968  -3.772  0.00  0.00    +0.089 C 
ATOM     23  C   UNL     1      -4.263   3.429  -3.445  0.00  0.00    -0.063 C 
ATOM     24  N   UNL     1      -3.523   4.311  -4.356  0.00  0.00    +0.381 N 
ATOM     25  C   UNL     1      -2.079   4.167  -4.127  0.00  0.00    -0.063 C 
ATOM     26  C   UNL     1      -1.645   2.746  -4.484  0.00  0.00    +0.089 C 
ATOM     27  H   UNL     1      -3.737   4.063  -5.310  0.00  0.00    -0.086 HD
ATOM     28  H   UNL     1      -3.795   5.268  -4.190  0.00  0.00    -0.086 HD
ENDBRANCH  18  19
ENDBRANCH   1  18
TORSDOF 6
