REMARK  Name = ZINC48362081
REMARK  8 active torsions:
REMARK  status: ('A' for Active; 'I' for Inactive)
REMARK    1  A    between atoms: C_1  and  C_2
REMARK    2  A    between atoms: C_10  and  C_12
REMARK    3  A    between atoms: C_12  and  N_13
REMARK    4  A    between atoms: C_18  and  C_20
REMARK    5  A    between atoms: C_20  and  C_21
REMARK    6  A    between atoms: C_21  and  N_22
REMARK    7  A    between atoms: N_22  and  S_23
REMARK    8  A    between atoms: S_23  and  C_26
REMARK                            x       y       z     vdW  Elec       q    Type
REMARK                         _______ _______ _______ _____ _____    ______ ____
ROOT
ATOM      1  N   UNL     1      -1.114  -3.997   4.685  0.00  0.00    +0.385 N 
ATOM      2  C   UNL     1      -2.229  -3.106   5.027  0.00  0.00    -0.078 C 
ATOM      3  C   UNL     1      -3.548  -3.878   4.945  0.00  0.00    -0.019 C 
ATOM      4  C   UNL     1      -3.509  -5.050   5.929  0.00  0.00    -0.003 C 
ATOM      5  C   UNL     1      -2.299  -5.933   5.609  0.00  0.00    -0.015 C 
ATOM      6  C   UNL     1      -1.027  -5.084   5.667  0.00  0.00    -0.067 C 
ATOM      7  H   UNL     1      -1.267  -4.386   3.767  0.00  0.00    -0.081 HD
ENDROOT
BRANCH   1   8
ATOM      8  C   UNL     1       0.140  -3.233   4.689  0.00  0.00    -0.022 C 
BRANCH   8  18
ATOM      9  C   UNL     1      -0.045   2.048   0.712  0.00  0.00    +0.064 C 
ATOM     10  C   UNL     1      -0.050   0.553   0.521  0.00  0.00    +0.033 A 
ATOM     11  C   UNL     1      -0.097   0.050  -0.712  0.00  0.00    +0.070 A 
ATOM     12  S   UNL     1      -0.082  -1.707  -0.390  0.00  0.00    -0.057 S 
ATOM     13  C   UNL     1      -0.012  -1.617   1.386  0.00  0.00    +0.180 A 
ATOM     14  N   UNL     1      -0.001  -0.269   1.622  0.00  0.00    -0.259 N 
ATOM     15  C   UNL     1       0.055   0.120   2.931  0.00  0.00    +0.259 A 
ATOM     16  O   UNL     1       0.064   1.308   3.216  0.00  0.00    -0.267 OA
ATOM     17  C   UNL     1       0.102  -0.840   3.941  0.00  0.00    +0.092 A 
ATOM     18  C   UNL     1       0.091  -2.179   3.613  0.00  0.00    +0.033 A 
ATOM     19  N   UNL     1       0.026  -2.525   2.330  0.00  0.00    -0.229 NA
ENDBRANCH   8  18
ENDBRANCH   1   8
BRANCH   6  20
ATOM     20  C   UNL     1       0.185  -5.962   5.348  0.00  0.00    +0.002 C 
BRANCH  20  21
ATOM     21  C   UNL     1       0.312  -7.060   6.406  0.00  0.00    +0.104 C 
BRANCH  21  22
ATOM     22  N   UNL     1       1.543  -7.821   6.176  0.00  0.00    -0.195 NA
ATOM     23  H   UNL     1       2.011  -7.741   5.330  0.00  0.00    +0.148 HD
BRANCH  22  24
ATOM     24  S   UNL     1       2.135  -8.817   7.359  0.00  0.00    +0.027 S 
ATOM     25  O   UNL     1       3.326  -9.363   6.810  0.00  0.00    -0.158 OA
ATOM     26  O   UNL     1       2.179  -8.007   8.526  0.00  0.00    -0.158 OA
ATOM     27  C   UNL     1       0.881 -10.115   7.545  0.00  0.00    +0.214 C 
ENDBRANCH  22  24
ENDBRANCH  21  22
ENDBRANCH  20  21
ENDBRANCH   6  20
TORSDOF 6
