REMARK  Name = ZINC62116402
REMARK  4 active torsions:
REMARK  status: ('A' for Active; 'I' for Inactive)
REMARK    1  A    between atoms: C_3  and  N_11
REMARK    2  A    between atoms: C_4  and  C_8
REMARK    3  A    between atoms: C_6  and  O_7
REMARK    4  A    between atoms: C_12  and  C_14
REMARK                            x       y       z     vdW  Elec       q    Type
REMARK                         _______ _______ _______ _____ _____    ______ ____
ROOT
ATOM      1  C   UNL     1       0.057   1.176   0.666  0.00  0.00    +0.047 A 
ATOM      2  C   UNL     1       1.233   1.897   0.643  0.00  0.00    +0.028 A 
ATOM      3  C   UNL     1       2.351   1.387  -0.002  0.00  0.00    +0.048 A 
ATOM      4  C   UNL     1       2.282   0.134  -0.631  0.00  0.00    +0.088 A 
ATOM      5  C   UNL     1       1.085  -0.589  -0.601  0.00  0.00    +0.062 A 
ATOM      6  C   UNL     1      -0.019  -0.066   0.046  0.00  0.00    +0.118 A 
ENDROOT
BRANCH   3   7
ATOM      7  N   UNL     1       3.538   2.117  -0.026  0.00  0.00    -0.285 N 
ATOM      8  C   UNL     1       3.501   3.461  -0.110  0.00  0.00    +0.218 C 
ATOM      9  O   UNL     1       2.437   4.042  -0.083  0.00  0.00    -0.275 OA
ATOM     10  H   UNL     1       4.391   1.657   0.018  0.00  0.00    +0.155 HD
BRANCH   8  11
ATOM     11  C   UNL     1       4.783   4.244  -0.236  0.00  0.00    +0.057 C 
ATOM     12  C   UNL     1       5.663   4.040   1.019  0.00  0.00    -0.008 C 
ATOM     13  C   UNL     1       6.258   5.450   1.257  0.00  0.00    -0.082 C 
ATOM     14  N   UNL     1       5.136   6.357   0.906  0.00  0.00    +0.380 N 
ATOM     15  C   UNL     1       4.485   5.754  -0.280  0.00  0.00    -0.070 C 
ATOM     16  H   UNL     1       4.481   6.413   1.672  0.00  0.00    -0.086 HD
ATOM     17  H   UNL     1       5.488   7.275   0.680  0.00  0.00    -0.086 HD
ENDBRANCH   8  11
ENDBRANCH   3   7
BRANCH   4  18
ATOM     18  C   UNL     1       3.461  -0.416  -1.318  0.00  0.00    +0.388 C 
ATOM     19  O   UNL     1       3.373  -1.465  -1.941  0.00  0.00    -0.241 OA
ATOM     20  O   UNL     1       4.530   0.176  -1.266  0.00  0.00    -0.241 OA
ENDBRANCH   4  18
BRANCH   6  21
ATOM     21  O   UNL     1      -1.183  -0.768   0.075  0.00  0.00    -0.507 OA
ATOM     22  H   UNL     1      -1.774  -0.580  -0.667  0.00  0.00    +0.292 HD
ENDBRANCH   6  21
TORSDOF 4
