REMARK  Name = ZINC59422699
REMARK  4 active torsions:
REMARK  status: ('A' for Active; 'I' for Inactive)
REMARK    1  A    between atoms: C_1  and  C_2
REMARK    2  A    between atoms: C_2  and  C_3
REMARK    3  A    between atoms: N_9  and  C_10
REMARK    4  A    between atoms: C_10  and  N_18
REMARK                            x       y       z     vdW  Elec       q    Type
REMARK                         _______ _______ _______ _____ _____    ______ ____
ROOT
ATOM      1  C   UNL     1      -0.147   1.581  -2.321  0.00  0.00    +0.035 C 
ATOM      2  C   UNL     1       1.308   2.022  -2.200  0.00  0.00    +0.011 C 
ATOM      3  C   UNL     1       1.667   3.180  -3.129  0.00  0.00    +0.000 C 
ATOM      4  C   UNL     1       1.655   4.488  -2.315  0.00  0.00    +0.000 C 
ATOM      5  C   UNL     1       0.210   4.878  -2.014  0.00  0.00    +0.000 C 
ATOM      6  C   UNL     1      -0.660   4.716  -3.253  0.00  0.00    +0.000 C 
ATOM      7  C   UNL     1      -1.597   3.525  -3.095  0.00  0.00    +0.000 C 
ATOM      8  C   UNL     1      -0.902   2.223  -3.468  0.00  0.00    +0.011 C 
ENDROOT
BRANCH   1   9
ATOM      9  N   UNL     1      -0.828   1.814  -1.045  0.00  0.00    -0.254 N 
ATOM     10  C   UNL     1      -2.055   1.323  -0.665  0.00  0.00    +0.087 A 
ATOM     11  C   UNL     1      -3.004   0.513  -1.280  0.00  0.00    +0.029 A 
ATOM     12  C   UNL     1      -4.157   0.196  -0.619  0.00  0.00    +0.002 A 
ATOM     13  C   UNL     1      -4.392   0.676   0.663  0.00  0.00    +0.002 A 
ATOM     14  C   UNL     1      -3.477   1.472   1.288  0.00  0.00    +0.032 A 
ATOM     15  C   UNL     1      -2.286   1.811   0.632  0.00  0.00    +0.113 A 
ATOM     16  N   UNL     1      -1.221   2.560   0.983  0.00  0.00    -0.130 NA
ATOM     17  N   UNL     1      -0.354   2.576   0.033  0.00  0.00    -0.066 NA
ENDBRANCH   1   9
BRANCH   1  23
ATOM     18  C   UNL     1       0.758  -0.527  -1.582  0.00  0.00    -0.066 C 
ATOM     19  C   UNL     1       0.700  -2.047  -1.754  0.00  0.00    -0.015 C 
ATOM     20  C   UNL     1       1.129  -2.410  -3.179  0.00  0.00    -0.003 C 
ATOM     21  C   UNL     1       0.226  -1.677  -4.176  0.00  0.00    -0.019 C 
ATOM     22  C   UNL     1       0.302  -0.172  -3.913  0.00  0.00    -0.075 C 
ATOM     23  N   UNL     1      -0.146   0.112  -2.545  0.00  0.00    +0.398 N 
ATOM     24  H   UNL     1      -1.081  -0.246  -2.416  0.00  0.00    -0.078 HD
BRANCH  18  26
ATOM     25  C   UNL     1       1.215  -0.899   0.846  0.00  0.00    +0.002 C 
ATOM     26  C   UNL     1       0.330  -0.160  -0.159  0.00  0.00    -0.019 C 
ENDBRANCH  18  26
ENDBRANCH   1  23
TORSDOF 3
