REMARK  Name = ZINC04702828
REMARK  3 active torsions:
REMARK  status: ('A' for Active; 'I' for Inactive)
REMARK    1  A    between atoms: C_2  and  N_9
REMARK    2  A    between atoms: C_10  and  C_12
REMARK    3  A    between atoms: C_12  and  C_13
REMARK                            x       y       z     vdW  Elec       q    Type
REMARK                         _______ _______ _______ _____ _____    ______ ____
ROOT
ATOM      1  C   UNL     1      -0.011   1.088   0.008  0.00  0.00    +0.025 C 
ATOM      2  C   UNL     1      -0.752   1.590  -1.199  0.00  0.00    +0.200 C 
ATOM      3  O   UNL     1      -1.963   1.537  -1.201  0.00  0.00    -0.278 OA
ATOM      4  N   UNL     1      -0.129   2.092  -2.273  0.00  0.00    -0.315 N 
ATOM      5  C   UNL     1       1.319   2.234  -2.342  0.00  0.00    +0.059 C 
ATOM      6  C   UNL     1       1.820   1.921  -3.749  0.00  0.00    +0.020 C 
ATOM      7  C   UNL     1       1.576   0.450  -4.090  0.00  0.00    +0.002 C 
ATOM      8  C   UNL     1       2.309  -0.429  -3.074  0.00  0.00    -0.001 C 
ATOM      9  C   UNL     1       1.760  -0.146  -1.675  0.00  0.00    -0.014 C 
ATOM     10  C   UNL     1       1.990   1.324  -1.315  0.00  0.00    -0.050 C 
ATOM     11  H   UNL     1      -0.663   2.371  -3.034  0.00  0.00    +0.149 HD
ATOM     12  N   UNL     1       1.373   1.585   0.002  0.00  0.00    +0.390 N 
ATOM     13  H   UNL     1       1.911   1.104   0.732  0.00  0.00    -0.084 HD
ATOM     14  H   UNL     1       1.374   2.595   0.185  0.00  0.00    -0.084 HD
ENDROOT
BRANCH   1  15
ATOM     15  C   UNL     1      -0.718   1.581   1.272  0.00  0.00    +0.089 C 
BRANCH  15  17
ATOM     16  N   UNL     1      -0.518   1.268   3.718  0.00  0.00    -0.285 N 
ATOM     17  C   UNL     1      -0.060   0.974   2.485  0.00  0.00    +0.216 C 
ATOM     18  O   UNL     1       0.881   0.221   2.351  0.00  0.00    -0.276 OA
ATOM     19  H   UNL     1      -1.227   1.921   3.829  0.00  0.00    +0.155 HD
BRANCH  16  21
ATOM     20  C   UNL     1       1.379   0.309   4.864  0.00  0.00    +0.043 A 
ATOM     21  C   UNL     1       0.028   0.630   4.837  0.00  0.00    +0.036 A 
ATOM     22  C   UNL     1      -0.778   0.323   5.925  0.00  0.00    +0.043 A 
ATOM     23  C   UNL     1      -0.237  -0.312   7.027  0.00  0.00    +0.044 A 
ATOM     24  C   UNL     1       1.110  -0.630   7.052  0.00  0.00    +0.040 A 
ATOM     25  C   UNL     1       1.916  -0.320   5.971  0.00  0.00    +0.044 A 
ATOM     26 CL   UNL     1       3.605  -0.721   6.006  0.00  0.00    -0.083 Cl
ATOM     27 CL   UNL     1      -1.246  -0.703   8.385  0.00  0.00    -0.083 Cl
ENDBRANCH  16  21
ENDBRANCH  15  17
ENDBRANCH   1  15
TORSDOF 3
