REMARK  Name = ZINC13154499
REMARK  6 active torsions:
REMARK  status: ('A' for Active; 'I' for Inactive)
REMARK    1  A    between atoms: C_1  and  C_2
REMARK    2  A    between atoms: C_5  and  C_7
REMARK    3  A    between atoms: N_17  and  N_18
REMARK    4  A    between atoms: N_22  and  O_26
REMARK    5  A    between atoms: C_23  and  C_24
REMARK    6  A    between atoms: C_23  and  C_25
REMARK                            x       y       z     vdW  Elec       q    Type
REMARK                         _______ _______ _______ _____ _____    ______ ____
ROOT
ATOM      1  C   UNL     1       0.090   1.035   2.220  0.00  0.00    +0.124 C 
ATOM      2  N   UNL     1       0.118   1.987   3.101  0.00  0.00    -0.135 N 
ATOM      3  O   UNL     1       0.732   1.892   4.374  0.00  0.00    -0.166 OA
ATOM      4  C   UNL     1      -0.574   3.171   2.594  0.00  0.00    +0.197 C 
ATOM      5  C   UNL     1      -1.982   3.260   3.209  0.00  0.00    +0.056 C 
ATOM      6  C   UNL     1      -1.893   3.894   4.577  0.00  0.00    +0.004 C 
ATOM      7  C   UNL     1      -2.124   5.393   4.447  0.00  0.00    +0.000 C 
ATOM      8  C   UNL     1      -0.916   6.186   4.170  0.00  0.00    +0.006 C 
ATOM      9  C   UNL     1      -0.322   5.788   2.795  0.00  0.00    +0.056 C 
ATOM     10  C   UNL     1       0.247   4.414   2.877  0.00  0.00    +0.082 C 
ATOM     11  N   UNL     1       1.479   4.276   3.199  0.00  0.00    -0.184 NA
ATOM     12  N   UNL     1      -0.692   2.990   1.131  0.00  0.00    -0.145 NA
ATOM     13  C   UNL     1      -0.651   1.513   0.991  0.00  0.00    +0.091 C 
ATOM     14  C   UNL     1       0.107   1.118  -0.277  0.00  0.00    +0.037 C 
ATOM     15  C   UNL     1      -2.069   0.937   0.965  0.00  0.00    +0.037 C 
ENDROOT
BRANCH  11  16
ATOM     16  N   UNL     1       2.156   3.091   2.887  0.00  0.00    -0.191 N 
ATOM     17  C   UNL     1       3.413   2.895   3.334  0.00  0.00    +0.317 C 
ATOM     18  O   UNL     1       4.001   1.866   3.063  0.00  0.00    -0.251 OA
ATOM     19  N   UNL     1       4.017   3.840   4.081  0.00  0.00    -0.312 N 
ATOM     20  H   UNL     1       1.722   2.411   2.349  0.00  0.00    +0.179 HD
ATOM     21  H   UNL     1       3.548   4.661   4.297  0.00  0.00    +0.147 HD
ATOM     22  H   UNL     1       4.921   3.699   4.403  0.00  0.00    +0.147 HD
ENDBRANCH  11  16
BRANCH   1  27
ATOM     23  C   UNL     1       1.500  -3.677   1.272  0.00  0.00    +0.086 C 
ATOM     24  C   UNL     1       1.306  -2.361   1.980  0.00  0.00    +0.103 A 
ATOM     25  C   UNL     1       1.749  -2.062   3.219  0.00  0.00    +0.045 A 
ATOM     26  C   UNL     1       1.361  -0.738   3.488  0.00  0.00    +0.051 A 
ATOM     27  C   UNL     1       0.685  -0.295   2.389  0.00  0.00    +0.152 A 
ATOM     28  O   UNL     1       0.665  -1.293   1.482  0.00  0.00    -0.459 OA
ENDBRANCH   1  27
BRANCH  12  29
ATOM     29  O   UNL     1      -1.959   3.529   0.636  0.00  0.00    -0.309 OA
ATOM     30  H   UNL     1      -2.164   3.278  -0.275  0.00  0.00    +0.237 HD
ENDBRANCH  12  29
TORSDOF 3
