REMARK  Name = ZINC52560706
REMARK  10 active torsions:
REMARK  status: ('A' for Active; 'I' for Inactive)
REMARK    1  A    between atoms: C_1  and  C_2
REMARK    2  A    between atoms: C_2  and  C_3
REMARK    3  A    between atoms: C_2  and  C_4
REMARK    4  A    between atoms: C_4  and  O_5
REMARK    5  A    between atoms: O_5  and  C_6
REMARK    6  A    between atoms: C_11  and  C_12
REMARK    7  A    between atoms: C_12  and  N_13
REMARK    8  A    between atoms: C_19  and  C_22
REMARK    9  A    between atoms: N_24  and  C_25
REMARK   10  A    between atoms: N_24  and  C_26
REMARK                            x       y       z     vdW  Elec       q    Type
REMARK                         _______ _______ _______ _____ _____    ______ ____
ROOT
ATOM      1  N   UNL     1      -2.562  -0.363   4.474  0.00  0.00    -0.295 N 
ATOM      2  C   UNL     1      -3.818   0.112   4.357  0.00  0.00    +0.302 C 
ATOM      3  O   UNL     1      -4.054   1.276   4.614  0.00  0.00    -0.253 OA
ATOM      4  N   UNL     1      -4.812  -0.705   3.955  0.00  0.00    -0.286 N 
ATOM      5  C   UNL     1      -4.567  -2.139   3.753  0.00  0.00    +0.110 C 
ATOM      6  C   UNL     1      -5.026  -2.524   2.343  0.00  0.00    +0.032 C 
ATOM      7  C   UNL     1      -6.484  -2.103   2.153  0.00  0.00    +0.078 C 
ATOM      8  C   UNL     1      -6.602  -0.584   2.302  0.00  0.00    +0.032 C 
ATOM      9  C   UNL     1      -6.163  -0.178   3.717  0.00  0.00    +0.110 C 
ATOM     10  H   UNL     1      -2.386  -1.307   4.341  0.00  0.00    +0.151 HD
ENDROOT
BRANCH   7  11
ATOM     11  C   UNL     1      -6.950  -2.510   0.779  0.00  0.00    +0.218 C 
ATOM     12  O   UNL     1      -6.749  -1.782  -0.170  0.00  0.00    -0.275 OA
ATOM     13  N   UNL     1      -7.589  -3.684   0.604  0.00  0.00    -0.307 N 
ATOM     14  C   UNL     1      -8.151  -4.024  -0.705  0.00  0.00    +0.131 C 
ATOM     15  C   UNL     1      -7.721  -4.620   1.724  0.00  0.00    +0.131 C 
ENDBRANCH   7  11
BRANCH   1  16
ATOM     16  C   UNL     1      -1.462   0.548   4.803  0.00  0.00    +0.144 C 
BRANCH  16  22
ATOM     17  C   UNL     1       0.501  -0.563   3.709  0.00  0.00    +0.125 A 
ATOM     18  C   UNL     1       1.692  -1.273   3.778  0.00  0.00    +0.046 A 
ATOM     19  C   UNL     1       2.201  -1.647   5.006  0.00  0.00    +0.004 A 
ATOM     20  C   UNL     1       1.525  -1.315   6.167  0.00  0.00    +0.001 A 
ATOM     21  C   UNL     1       0.339  -0.609   6.100  0.00  0.00    +0.009 A 
ATOM     22  C   UNL     1      -0.172  -0.227   4.874  0.00  0.00    +0.011 A 
BRANCH  17  23
ATOM     23  O   UNL     1      -0.002  -0.194   2.502  0.00  0.00    -0.491 OA
BRANCH  23  24
ATOM     24  C   UNL     1       0.745  -0.574   1.344  0.00  0.00    +0.232 C 
BRANCH  24  26
ATOM     25  C   UNL     1       0.021   1.456   0.081  0.00  0.00    +0.010 C 
ATOM     26  C   UNL     1       0.028  -0.074   0.088  0.00  0.00    +0.020 C 
ATOM     27  C   UNL     1       0.759  -0.587  -1.154  0.00  0.00    +0.010 C 
ENDBRANCH  24  26
ENDBRANCH  23  24
ENDBRANCH  17  23
ENDBRANCH  16  22
ENDBRANCH   1  16
TORSDOF 6
