REMARK  Name = ZINC04788198
REMARK  13 active torsions:
REMARK  status: ('A' for Active; 'I' for Inactive)
REMARK    1  A    between atoms: C_1  and  C_2
REMARK    2  A    between atoms: C_7  and  C_19
REMARK    3  A    between atoms: C_9  and  C_13
REMARK    4  A    between atoms: C_10  and  C_12
REMARK    5  A    between atoms: C_13  and  O_15
REMARK    6  A    between atoms: O_15  and  C_16
REMARK    7  A    between atoms: C_16  and  C_17
REMARK    8  A    between atoms: C_16  and  C_18
REMARK    9  A    between atoms: C_22  and  O_25
REMARK   10  A    between atoms: O_25  and  C_26
REMARK   11  A    between atoms: C_29  and  C_31
REMARK   12  A    between atoms: C_31  and  O_33
REMARK   13  A    between atoms: O_33  and  C_34
REMARK                            x       y       z     vdW  Elec       q    Type
REMARK                         _______ _______ _______ _____ _____    ______ ____
ROOT
ATOM      1  C   UNL     1       4.721   1.592   3.600  0.00  0.00    +0.009 C 
ATOM      2  C   UNL     1       5.840   0.551   3.541  0.00  0.00    +0.013 C 
ATOM      3  C   UNL     1       6.602   0.682   2.223  0.00  0.00    +0.055 C 
ATOM      4  C   UNL     1       5.667   0.424   1.068  0.00  0.00    +0.016 C 
ATOM      5  C   UNL     1       4.622  -0.420   1.194  0.00  0.00    +0.025 C 
ATOM      6  C   UNL     1       3.694  -0.678   0.034  0.00  0.00    +0.092 C 
ATOM      7  C   UNL     1       4.320  -0.250  -1.261  0.00  0.00    +0.065 C 
ATOM      8  C   UNL     1       5.372   0.587  -1.285  0.00  0.00    +0.016 C 
ATOM      9  N   UNL     1       5.904   1.064  -0.119  0.00  0.00    -0.321 N 
ATOM     10  C   UNL     1       5.968   1.003  -2.605  0.00  0.00    +0.061 C 
ATOM     11  C   UNL     1       4.367  -1.079   2.409  0.00  0.00    +0.176 C 
ATOM     12  O   UNL     1       3.426  -1.844   2.487  0.00  0.00    -0.291 OA
ATOM     13  C   UNL     1       5.239  -0.856   3.615  0.00  0.00    +0.171 C 
ATOM     14  H   UNL     1       6.527   1.970  -0.141  0.00  0.00    +0.152 HD
ENDROOT
BRANCH   6  15
ATOM     15  C   UNL     1       2.415   0.090   0.243  0.00  0.00    -0.035 A 
ATOM     16  C   UNL     1       1.212  -0.585   0.342  0.00  0.00    +0.008 A 
ATOM     17  C   UNL     1       0.038   0.117   0.534  0.00  0.00    +0.046 A 
ATOM     18  C   UNL     1       0.066   1.501   0.628  0.00  0.00    +0.120 A 
ATOM     19  C   UNL     1       1.274   2.176   0.528  0.00  0.00    +0.046 A 
ATOM     20  C   UNL     1       2.445   1.470   0.336  0.00  0.00    +0.008 A 
BRANCH  18  21
ATOM     21  O   UNL     1      -1.088   2.194   0.811  0.00  0.00    -0.495 OA
ATOM     22  C   UNL     1      -0.984   3.617   0.899  0.00  0.00    +0.277 C 
ENDBRANCH  18  21
ENDBRANCH   6  15
BRANCH   7  23
ATOM     23  C   UNL     1       3.792  -0.736  -2.480  0.00  0.00    +0.338 C 
ATOM     24  O   UNL     1       4.000  -1.886  -2.817  0.00  0.00    -0.245 OA
BRANCH  23  25
ATOM     25  O   UNL     1       3.059   0.077  -3.270  0.00  0.00    -0.459 OA
BRANCH  25  26
ATOM     26  C   UNL     1       2.558  -0.480  -4.487  0.00  0.00    +0.171 C 
ATOM     27  C   UNL     1       1.241   0.205  -4.856  0.00  0.00    +0.052 C 
ATOM     28  C   UNL     1       3.578  -0.262  -5.606  0.00  0.00    +0.052 C 
ENDBRANCH  25  26
ENDBRANCH  23  25
ENDBRANCH   7  23
BRANCH  13  29
ATOM     29  C   UNL     1       4.410  -0.986   4.867  0.00  0.00    +0.318 C 
ATOM     30  O   UNL     1       4.318  -0.053   5.629  0.00  0.00    -0.250 OA
BRANCH  29  31
ATOM     31  O   UNL     1       3.776  -2.138   5.136  0.00  0.00    -0.467 OA
ATOM     32  C   UNL     1       2.996  -2.191   6.360  0.00  0.00    +0.280 C 
ENDBRANCH  29  31
ENDBRANCH  13  29
TORSDOF 7
