REMARK  Name = ZINC60017294
REMARK  6 active torsions:
REMARK  status: ('A' for Active; 'I' for Inactive)
REMARK    1  A    between atoms: C_1  and  C_2
REMARK    2  A    between atoms: C_2  and  C_3
REMARK    3  A    between atoms: C_3  and  C_11
REMARK    4  A    between atoms: C_14  and  N_17
REMARK    5  A    between atoms: C_18  and  C_20
REMARK    6  A    between atoms: C_21  and  C_22
REMARK                            x       y       z     vdW  Elec       q    Type
REMARK                         _______ _______ _______ _____ _____    ______ ____
ROOT
ATOM      1  C   UNL     1       2.197   0.126  -1.150  0.00  0.00    -0.032 A 
ATOM      2  C   UNL     1       3.253  -0.767  -1.119  0.00  0.00    +0.006 A 
ATOM      3  C   UNL     1       4.550  -0.302  -1.016  0.00  0.00    +0.023 A 
ATOM      4  C   UNL     1       4.792   1.064  -0.944  0.00  0.00    +0.034 A 
ATOM      5  C   UNL     1       3.730   1.958  -0.976  0.00  0.00    +0.023 A 
ATOM      6  C   UNL     1       2.436   1.486  -1.085  0.00  0.00    +0.006 A 
ENDROOT
BRANCH   1   7
ATOM      7  C   UNL     1       0.784  -0.385  -1.263  0.00  0.00    +0.072 C 
ATOM      8  C   UNL     1       0.784  -1.915  -1.185  0.00  0.00    +0.030 C 
ATOM      9  C   UNL     1      -0.647  -2.415  -1.413  0.00  0.00    +0.097 C 
ATOM     10  C   UNL     1      -1.155  -1.877  -2.724  0.00  0.00    +0.219 C 
ATOM     11  O   UNL     1      -1.977  -2.512  -3.349  0.00  0.00    -0.275 OA
ATOM     12  N   UNL     1      -0.717  -0.707  -3.214  0.00  0.00    -0.256 N 
ATOM     13  C   UNL     1       0.198   0.043  -2.582  0.00  0.00    +0.230 C 
ATOM     14  O   UNL     1       0.559   1.086  -3.083  0.00  0.00    -0.274 OA
ATOM     15  H   UNL     1      -1.076  -0.392  -4.058  0.00  0.00    +0.157 HD
BRANCH   7  17
ATOM     16  C   UNL     1       0.579  -0.190   1.220  0.00  0.00    +0.005 C 
ATOM     17  C   UNL     1      -0.058   0.185  -0.120  0.00  0.00    +0.017 C 
ENDBRANCH   7  17
ENDBRANCH   1   7
BRANCH   4  18
ATOM     18  N   UNL     1       6.104   1.538  -0.839  0.00  0.00    -0.282 N 
ATOM     19  C   UNL     1       6.361   2.657  -0.134  0.00  0.00    +0.241 C 
ATOM     20  O   UNL     1       5.469   3.203   0.489  0.00  0.00    -0.270 OA
ATOM     21  H   UNL     1       6.828   1.061  -1.274  0.00  0.00    +0.155 HD
BRANCH  19  22
ATOM     22  C   UNL     1       7.712   3.216  -0.117  0.00  0.00    +0.068 C 
ATOM     23  C   UNL     1       7.970   4.337   0.590  0.00  0.00    +0.013 C 
BRANCH  23  24
ATOM     24  C   UNL     1       9.329   4.898   0.608  0.00  0.00    -0.020 A 
ATOM     25  C   UNL     1       9.600   6.057   1.344  0.00  0.00    +0.057 A 
ATOM     26  C   UNL     1      10.879   6.582   1.358  0.00  0.00    +0.164 A 
ATOM     27  C   UNL     1      11.897   5.956   0.642  0.00  0.00    +0.180 A 
ATOM     28  C   UNL     1      11.627   4.805  -0.092  0.00  0.00    +0.087 A 
ATOM     29  C   UNL     1      10.356   4.273  -0.107  0.00  0.00    +0.031 A 
ATOM     30 CL   UNL     1      12.899   4.032  -0.985  0.00  0.00    -0.080 Cl
ATOM     31  O   UNL     1      13.162   6.455   0.652  0.00  0.00    -0.483 OA
ATOM     32  C   UNL     1      13.316   7.810   1.088  0.00  0.00    +0.270 C 
ATOM     33  C   UNL     1      12.497   7.998   2.373  0.00  0.00    +0.270 C 
ATOM     34  O   UNL     1      11.126   7.712   2.076  0.00  0.00    -0.485 OA
ENDBRANCH  23  24
ENDBRANCH  19  22
ENDBRANCH   4  18
TORSDOF 5
