REMARK  Name = ZINC13033673
REMARK  11 active torsions:
REMARK  status: ('A' for Active; 'I' for Inactive)
REMARK    1  A    between atoms: C_1  and  C_2
REMARK    2  A    between atoms: C_2  and  C_3
REMARK    3  A    between atoms: C_3  and  C_4
REMARK    4  A    between atoms: C_3  and  C_5
REMARK    5  A    between atoms: C_3  and  N_6
REMARK    6  A    between atoms: C_7  and  C_11
REMARK    7  A    between atoms: C_11  and  N_64
REMARK    8  A    between atoms: C_12  and  C_13
REMARK    9  A    between atoms: C_12  and  N_64
REMARK   10  A    between atoms: C_19  and  C_20
REMARK   11  A    between atoms: C_19  and  N_64
REMARK                            x       y       z     vdW  Elec       q    Type
REMARK                         _______ _______ _______ _____ _____    ______ ____
ROOT
ATOM      1  N   UNL     1      -0.225   1.369   2.106  0.00  0.00    +0.390 N 
ATOM      2  H   UNL     1       0.526   1.330   2.804  0.00  0.00    -0.080 HD
ENDROOT
BRANCH   1   3
ATOM      3  C   UNL     1      -0.804   2.729   2.099  0.00  0.00    +0.001 C 
BRANCH   3   5
ATOM      4  N   UNL     1       0.935   4.391   2.947  0.00  0.00    -0.226 N 
ATOM      5  C   UNL     1       0.311   3.732   1.953  0.00  0.00    +0.136 A 
ATOM      6  N   UNL     1       0.859   4.136   0.833  0.00  0.00    -0.115 NA
ATOM      7  N   UNL     1       1.774   4.994   1.124  0.00  0.00    -0.023 NA
ATOM      8  N   UNL     1       1.825   5.148   2.401  0.00  0.00    -0.043 NA
BRANCH   4   9
ATOM      9  C   UNL     1       0.657   4.269   4.381  0.00  0.00    +0.061 C 
ATOM     10  C   UNL     1      -0.742   4.813   4.677  0.00  0.00    +0.036 C 
ATOM     11  C   UNL     1       0.729   2.796   4.790  0.00  0.00    +0.036 C 
BRANCH   9  13
ATOM     12  C   UNL     1       1.404   4.942   6.668  0.00  0.00    +0.006 C 
ATOM     13  C   UNL     1       1.694   5.069   5.171  0.00  0.00    +0.026 C 
ENDBRANCH   9  13
ENDBRANCH   4   9
ENDBRANCH   3   5
ENDBRANCH   1   3
BRANCH   1  14
ATOM     14  C   UNL     1       0.338   1.054   0.776  0.00  0.00    -0.040 C 
BRANCH  14  15
ATOM     15  C   UNL     1       1.237  -0.149   0.904  0.00  0.00    -0.046 A 
ATOM     16  C   UNL     1       2.553  -0.001   1.316  0.00  0.00    +0.005 A 
ATOM     17  C   UNL     1       3.342  -1.136   1.424  0.00  0.00    +0.020 A 
ATOM     18  C   UNL     1       2.797  -2.367   1.111  0.00  0.00    +0.111 A 
ATOM     19  N   UNL     1       1.542  -2.469   0.718  0.00  0.00    -0.263 NA
ATOM     20  C   UNL     1       0.762  -1.412   0.608  0.00  0.00    +0.112 A 
ENDBRANCH  14  15
ENDBRANCH   1  14
BRANCH   1  21
ATOM     21  C   UNL     1      -1.264   0.380   2.461  0.00  0.00    -0.036 C 
BRANCH  21  22
ATOM     22  C   UNL     1      -1.556   0.493   3.936  0.00  0.00    +0.001 A 
ATOM     23  C   UNL     1      -2.613   1.231   4.361  0.00  0.00    +0.017 A 
ATOM     24  C   UNL     1      -2.873   1.317   5.797  0.00  0.00    +0.002 A 
ATOM     25  C   UNL     1      -3.950   2.060   6.294  0.00  0.00    +0.059 A 
ATOM     26  C   UNL     1      -4.168   2.127   7.654  0.00  0.00    +0.163 A 
ATOM     27  C   UNL     1      -3.317   1.455   8.537  0.00  0.00    +0.164 A 
ATOM     28  C   UNL     1      -2.248   0.719   8.055  0.00  0.00    +0.075 A 
ATOM     29  C   UNL     1      -2.015   0.642   6.688  0.00  0.00    +0.053 A 
ATOM     30  N   UNL     1      -0.953  -0.087   6.191  0.00  0.00    -0.322 N 
ATOM     31  H   UNL     1      -0.363  -0.551   6.804  0.00  0.00    +0.169 HD
ATOM     32  C   UNL     1      -0.727  -0.163   4.868  0.00  0.00    +0.251 A 
ATOM     33  O   UNL     1       0.220  -0.816   4.464  0.00  0.00    -0.268 OA
ATOM     34  O   UNL     1      -3.527   1.513   9.880  0.00  0.00    -0.485 OA
ATOM     35  C   UNL     1      -4.379   2.560  10.354  0.00  0.00    +0.270 C 
ATOM     36  C   UNL     1      -5.632   2.600   9.468  0.00  0.00    +0.270 C 
ATOM     37  O   UNL     1      -5.219   2.856   8.121  0.00  0.00    -0.485 OA
ENDBRANCH  21  22
ENDBRANCH   1  21
TORSDOF 8
