REMARK  Name = ZINC09244937
REMARK  7 active torsions:
REMARK  status: ('A' for Active; 'I' for Inactive)
REMARK    1  A    between atoms: C_1  and  C_2
REMARK    2  A    between atoms: C_2  and  N_3
REMARK    3  A    between atoms: C_7  and  C_15
REMARK    4  A    between atoms: C_11  and  C_14
REMARK    5  A    between atoms: C_15  and  O_17
REMARK    6  A    between atoms: O_17  and  C_18
REMARK    7  A    between atoms: C_18  and  C_19
REMARK                            x       y       z     vdW  Elec       q    Type
REMARK                         _______ _______ _______ _____ _____    ______ ____
ROOT
ATOM      1  C   UNL     1      -0.014   1.211   0.009  0.00  0.00    +0.340 C 
ATOM      2  O   UNL     1       0.002  -0.004   0.002  0.00  0.00    -0.245 OA
ENDROOT
BRANCH   1   7
ATOM      3  N   UNL     1      -4.904   4.007   0.046  0.00  0.00    -0.305 N 
ATOM      4  C   UNL     1      -3.711   3.317   0.038  0.00  0.00    +0.070 A 
ATOM      5  C   UNL     1      -2.502   4.011   0.036  0.00  0.00    +0.029 A 
ATOM      6  C   UNL     1      -1.319   3.334   0.032  0.00  0.00    +0.017 A 
ATOM      7  C   UNL     1      -1.302   1.931   0.019  0.00  0.00    +0.061 A 
ATOM      8  C   UNL     1      -2.495   1.218   0.021  0.00  0.00    +0.044 A 
ATOM      9  C   UNL     1      -3.714   1.909   0.030  0.00  0.00    +0.089 A 
ATOM     10  N   UNL     1      -4.875   1.225   0.032  0.00  0.00    -0.245 NA
ATOM     11  C   UNL     1      -6.019   1.846   0.041  0.00  0.00    +0.103 A 
ATOM     12  C   UNL     1      -6.063   3.313   0.049  0.00  0.00    +0.273 A 
ATOM     13  O   UNL     1      -7.131   3.897   0.057  0.00  0.00    -0.266 OA
ATOM     14  C   UNL     1      -7.303   1.056   0.043  0.00  0.00    +0.071 C 
BRANCH   3  16
ATOM     15  C   UNL     1      -4.913   5.974   1.500  0.00  0.00    +0.027 C 
ATOM     16  C   UNL     1      -4.916   5.472   0.055  0.00  0.00    +0.122 C 
ENDBRANCH   3  16
ENDBRANCH   1   7
BRANCH   1  17
ATOM     17  O   UNL     1       1.143   1.900   0.001  0.00  0.00    -0.452 OA
BRANCH  17  18
ATOM     18  C   UNL     1       2.371   1.126  -0.015  0.00  0.00    +0.328 C 
BRANCH  18  19
ATOM     19  C   UNL     1       3.554   2.060  -0.021  0.00  0.00    +0.256 C 
ATOM     20  O   UNL     1       3.379   3.260  -0.013  0.00  0.00    -0.272 OA
ATOM     21  N   UNL     1       4.806   1.562  -0.035  0.00  0.00    -0.266 N 
ATOM     22  C   UNL     1       5.901   2.427  -0.041  0.00  0.00    +0.144 A 
ATOM     23  C   UNL     1       7.191   1.905  -0.051  0.00  0.00    +0.082 A 
ATOM     24  C   UNL     1       8.268   2.775  -0.062  0.00  0.00    +0.045 A 
ATOM     25  C   UNL     1       8.017   4.141  -0.052  0.00  0.00    +0.061 A 
ATOM     26  C   UNL     1       6.709   4.588  -0.037  0.00  0.00    +0.133 A 
ATOM     27  N   UNL     1       5.703   3.735  -0.032  0.00  0.00    -0.237 NA
ATOM     28 CL   UNL     1       9.331   5.275  -0.058  0.00  0.00    -0.082 Cl
ATOM     29 CL   UNL     1       7.446   0.188  -0.055  0.00  0.00    -0.080 Cl
ATOM     30  H   UNL     1       4.946   0.602  -0.042  0.00  0.00    +0.156 HD
ENDBRANCH  18  19
ENDBRANCH  17  18
ENDBRANCH   1  17
TORSDOF 5
