REMARK  Name = ZINC12959381
REMARK  6 active torsions:
REMARK  status: ('A' for Active; 'I' for Inactive)
REMARK    1  A    between atoms: C_4  and  C_7
REMARK    2  A    between atoms: C_8  and  C_9
REMARK    3  A    between atoms: N_23  and  C_26
REMARK    4  A    between atoms: C_26  and  C_27
REMARK    5  A    between atoms: C_27  and  N_28
REMARK    6  A    between atoms: C_32  and  C_35
REMARK                            x       y       z     vdW  Elec       q    Type
REMARK                         _______ _______ _______ _____ _____    ______ ____
ROOT
ATOM      1  C   UNL     1       5.033  -2.743  -0.063  0.00  0.00    +0.093 C 
ATOM      2  C   UNL     1       5.116  -3.699   1.113  0.00  0.00    +0.110 C 
ATOM      3  C   UNL     1       6.676  -3.666   1.331  0.00  0.00    +0.107 C 
ATOM      4  C   UNL     1       6.943  -2.208   1.326  0.00  0.00    +0.080 C 
ATOM      5  N   UNL     1       6.165  -1.775   0.113  0.00  0.00    -0.282 NA
ATOM      6  C   UNL     1       6.979  -1.845  -1.134  0.00  0.00    +0.155 C 
ATOM      7  S   UNL     1       8.602  -1.237  -0.504  0.00  0.00    -0.144 S 
ATOM      8  C   UNL     1       8.462  -1.923   1.217  0.00  0.00    +0.090 C 
ATOM      9  C   UNL     1       6.885  -4.822   2.162  0.00  0.00    +0.227 C 
ATOM     10  O   UNL     1       7.712  -4.960   3.037  0.00  0.00    -0.275 OA
ATOM     11  N   UNL     1       5.946  -5.734   1.749  0.00  0.00    -0.240 N 
ATOM     12  C   UNL     1       4.979  -5.178   0.930  0.00  0.00    +0.228 C 
ATOM     13  O   UNL     1       4.181  -5.754   0.221  0.00  0.00    -0.275 OA
ENDROOT
BRANCH   1  15
ATOM     14  C   UNL     1       3.695  -0.685  -0.038  0.00  0.00    +0.005 C 
ATOM     15  C   UNL     1       3.716  -2.010  -0.046  0.00  0.00    -0.007 C 
BRANCH  14  19
ATOM     16  C   UNL     1      -0.017   1.379   0.010  0.00  0.00    +0.000 A 
ATOM     17  C   UNL     1       1.168   2.093   0.002  0.00  0.00    +0.001 A 
ATOM     18  C   UNL     1       2.377   1.429  -0.013  0.00  0.00    +0.008 A 
ATOM     19  C   UNL     1       2.403   0.034  -0.021  0.00  0.00    -0.025 A 
ATOM     20  C   UNL     1       1.204  -0.681  -0.013  0.00  0.00    +0.008 A 
ATOM     21  C   UNL     1       0.002  -0.004   0.002  0.00  0.00    +0.001 A 
ENDBRANCH  14  19
ENDBRANCH   1  15
BRANCH  11  22
ATOM     22  C   UNL     1       5.964  -7.148   2.133  0.00  0.00    +0.135 C 
BRANCH  22  23
ATOM     23  C   UNL     1       5.167  -7.337   3.425  0.00  0.00    +0.122 C 
BRANCH  23  24
ATOM     24  N   UNL     1       5.185  -8.751   3.808  0.00  0.00    -0.326 N 
ATOM     25  C   UNL     1       4.523  -9.168   4.958  0.00  0.00    +0.137 A 
ATOM     26  C   UNL     1       4.549 -10.512   5.319  0.00  0.00    +0.081 A 
ATOM     27  C   UNL     1       3.886 -10.913   6.466  0.00  0.00    +0.037 A 
ATOM     28  C   UNL     1       3.217  -9.953   7.214  0.00  0.00    +0.074 A 
ATOM     29  C   UNL     1       3.232  -8.638   6.796  0.00  0.00    +0.125 A 
ATOM     30  N   UNL     1       3.878  -8.283   5.701  0.00  0.00    -0.238 NA
ATOM     31 CL   UNL     1       5.401 -11.669   4.346  0.00  0.00    -0.080 Cl
ATOM     32  H   UNL     1       5.659  -9.396   3.260  0.00  0.00    +0.148 HD
BRANCH  28  33
ATOM     33  C   UNL     1       2.481 -10.344   8.470  0.00  0.00    +0.419 C 
ATOM     34  F   UNL     1       3.346 -10.254   9.565  0.00  0.00    -0.166 F 
ATOM     35  F   UNL     1       1.395  -9.482   8.661  0.00  0.00    -0.166 F 
ATOM     36  F   UNL     1       2.017 -11.658   8.349  0.00  0.00    -0.166 F 
ENDBRANCH  28  33
ENDBRANCH  23  24
ENDBRANCH  22  23
ENDBRANCH  11  22
TORSDOF 6
