REMARK  Name = ZINC13007983
REMARK  7 active torsions:
REMARK  status: ('A' for Active; 'I' for Inactive)
REMARK    1  A    between atoms: C_1  and  N_2
REMARK    2  A    between atoms: C_9  and  C_11
REMARK    3  A    between atoms: C_11  and  C_13
REMARK    4  A    between atoms: C_11  and  N_60
REMARK    5  A    between atoms: C_13  and  N_14
REMARK    6  A    between atoms: C_15  and  C_17
REMARK    7  A    between atoms: N_19  and  C_20
REMARK                            x       y       z     vdW  Elec       q    Type
REMARK                         _______ _______ _______ _____ _____    ______ ____
ROOT
ATOM      1  C   UNL     1      -3.374   6.185  -0.983  0.00  0.00    -0.020 C 
ENDROOT
BRANCH   1  10
ATOM      2  C   UNL     1       0.464   1.687   1.641  0.00  0.00    +0.129 C 
ATOM      3  N   UNL     1      -0.660   1.502   0.715  0.00  0.00    -0.332 N 
ATOM      4  C   UNL     1      -0.196   0.958  -0.580  0.00  0.00    +0.109 C 
ATOM      5  C   UNL     1      -1.203   1.562  -1.586  0.00  0.00    +0.056 C 
ATOM      6  C   UNL     1      -1.671   2.819  -0.881  0.00  0.00    -0.025 A 
ATOM      7  C   UNL     1      -1.312   2.717   0.459  0.00  0.00    +0.033 A 
ATOM      8  C   UNL     1      -1.627   3.762   1.326  0.00  0.00    +0.023 A 
ATOM      9  C   UNL     1      -2.291   4.877   0.857  0.00  0.00    +0.004 A 
ATOM     10  C   UNL     1      -2.648   4.966  -0.476  0.00  0.00    -0.059 A 
ATOM     11  C   UNL     1      -2.337   3.934  -1.344  0.00  0.00    +0.007 A 
ENDBRANCH   1  10
BRANCH   1  17
ATOM     12  C   UNL     1      -5.619   7.061  -0.752  0.00  0.00    -0.078 C 
ATOM     13  C   UNL     1      -6.759   7.288   0.244  0.00  0.00    -0.019 C 
ATOM     14  C   UNL     1      -6.305   8.289   1.311  0.00  0.00    -0.004 C 
ATOM     15  C   UNL     1      -5.050   7.752   2.003  0.00  0.00    -0.019 C 
ATOM     16  C   UNL     1      -3.960   7.511   0.956  0.00  0.00    -0.078 C 
ATOM     17  N   UNL     1      -4.449   6.521  -0.027  0.00  0.00    +0.385 N 
ATOM     18  H   UNL     1      -4.730   5.668   0.471  0.00  0.00    -0.081 HD
ENDBRANCH   1  17
BRANCH   1  19
ATOM     19  C   UNL     1      -2.390   7.350  -1.109  0.00  0.00    +0.094 C 
BRANCH  19  20
ATOM     20  N   UNL     1      -3.084   8.520  -1.652  0.00  0.00    -0.309 N 
ATOM     21  C   UNL     1      -2.445   9.703  -1.737  0.00  0.00    +0.299 C 
ATOM     22  O   UNL     1      -1.295   9.800  -1.363  0.00  0.00    -0.265 OA
ATOM     23  H   UNL     1      -4.004   8.442  -1.950  0.00  0.00    +0.149 HD
BRANCH  21  24
ATOM     24  C   UNL     1      -3.153  10.896  -2.290  0.00  0.00    +0.303 C 
ATOM     25  O   UNL     1      -4.304  10.799  -2.664  0.00  0.00    -0.265 OA
ATOM     26  N   UNL     1      -2.514  12.080  -2.375  0.00  0.00    -0.275 N 
ATOM     27  H   UNL     1      -1.575  12.142  -2.142  0.00  0.00    +0.155 HD
BRANCH  26  28
ATOM     28  C   UNL     1      -3.206  13.219  -2.799  0.00  0.00    +0.069 A 
ATOM     29  C   UNL     1      -4.550  13.374  -2.486  0.00  0.00    +0.026 A 
ATOM     30  C   UNL     1      -5.229  14.502  -2.902  0.00  0.00    +0.002 A 
ATOM     31  C   UNL     1      -4.575  15.473  -3.640  0.00  0.00    +0.003 A 
ATOM     32  C   UNL     1      -3.239  15.321  -3.958  0.00  0.00    +0.040 A 
ATOM     33  C   UNL     1      -2.551  14.196  -3.541  0.00  0.00    +0.144 A 
ATOM     34  F   UNL     1      -1.245  14.047  -3.853  0.00  0.00    -0.204 F 
ENDBRANCH  26  28
ENDBRANCH  21  24
ENDBRANCH  19  20
ENDBRANCH   1  19
TORSDOF 6
