REMARK  Name = ZINC34935784
REMARK  9 active torsions:
REMARK  status: ('A' for Active; 'I' for Inactive)
REMARK    1  A    between atoms: C_1  and  C_2
REMARK    2  A    between atoms: C_2  and  N_3
REMARK    3  A    between atoms: N_6  and  C_7
REMARK    4  A    between atoms: N_6  and  C_17
REMARK    5  A    between atoms: C_7  and  C_8
REMARK    6  A    between atoms: C_8  and  C_9
REMARK    7  A    between atoms: C_17  and  C_18
REMARK    8  A    between atoms: C_26  and  C_27
REMARK    9  A    between atoms: C_26  and  C_28
REMARK                            x       y       z     vdW  Elec       q    Type
REMARK                         _______ _______ _______ _____ _____    ______ ____
ROOT
ATOM      1  N   UNL     1       0.688  -0.476  -1.203  0.00  0.00    -0.299 N 
ATOM      2  C   UNL     1       0.827  -1.799  -1.425  0.00  0.00    +0.302 C 
ATOM      3  O   UNL     1       0.383  -2.599  -0.625  0.00  0.00    -0.253 OA
ATOM      4  N   UNL     1       1.458  -2.233  -2.534  0.00  0.00    -0.281 N 
ATOM      5  H   UNL     1       1.042   0.162  -1.842  0.00  0.00    +0.150 HD
ENDROOT
BRANCH   1   7
ATOM      6  C   UNL     1      -0.019   1.526   0.010  0.00  0.00    +0.024 C 
ATOM      7  C   UNL     1       0.002  -0.004   0.002  0.00  0.00    +0.102 C 
ENDBRANCH   1   7
BRANCH   4   8
ATOM      8  C   UNL     1       1.609  -3.670  -2.775  0.00  0.00    +0.114 C 
BRANCH   8   9
ATOM      9  C   UNL     1       0.406  -4.184  -3.568  0.00  0.00    +0.055 C 
BRANCH   9  10
ATOM     10  C   UNL     1       0.561  -5.662  -3.816  0.00  0.00    -0.027 A 
ATOM     11  C   UNL     1       1.120  -6.109  -4.998  0.00  0.00    +0.006 A 
ATOM     12  C   UNL     1       1.263  -7.465  -5.227  0.00  0.00    +0.020 A 
ATOM     13  C   UNL     1       0.847  -8.375  -4.271  0.00  0.00    +0.042 A 
ATOM     14  C   UNL     1       0.288  -7.928  -3.088  0.00  0.00    +0.040 A 
ATOM     15  C   UNL     1       0.149  -6.571  -2.858  0.00  0.00    +0.046 A 
ATOM     16 CL   UNL     1      -0.547  -6.009  -1.370  0.00  0.00    -0.083 Cl
ATOM     17 CL   UNL     1       1.026 -10.078  -4.558  0.00  0.00    -0.083 Cl
ENDBRANCH   9  10
ENDBRANCH   8   9
ENDBRANCH   4   8
BRANCH   4  18
ATOM     18  C   UNL     1       1.992  -1.269  -3.498  0.00  0.00    +0.140 C 
BRANCH  18  19
ATOM     19  C   UNL     1       3.413  -0.925  -3.130  0.00  0.00    -0.053 C 
ATOM     20  C   UNL     1       4.430  -1.546  -3.682  0.00  0.00    -0.025 C 
ATOM     21  C   UNL     1       5.837  -1.166  -3.291  0.00  0.00    +0.031 C 
ATOM     22  C   UNL     1       5.798  -0.098  -2.190  0.00  0.00    -0.000 C 
ATOM     23  C   UNL     1       4.778  -0.418  -1.084  0.00  0.00    +0.012 C 
ATOM     24  C   UNL     1       3.724   0.158  -2.112  0.00  0.00    +0.022 C 
ATOM     25  C   UNL     1       4.867   1.066  -2.588  0.00  0.00    -0.025 C 
ATOM     26  C   UNL     1       5.053   2.325  -1.740  0.00  0.00    +0.012 C 
ATOM     27  C   UNL     1       4.841   1.352  -4.091  0.00  0.00    +0.012 C 
ENDBRANCH  18  19
ENDBRANCH   4  18
TORSDOF 6
