REMARK  Name = ZINC06250971
REMARK  7 active torsions:
REMARK  status: ('A' for Active; 'I' for Inactive)
REMARK    1  A    between atoms: C_1  and  C_2
REMARK    2  A    between atoms: C_16  and  C_18
REMARK    3  A    between atoms: C_23  and  N_24
REMARK    4  A    between atoms: N_24  and  S_25
REMARK    5  A    between atoms: S_25  and  C_28
REMARK    6  A    between atoms: C_33  and  C_34
REMARK    7  A    between atoms: C_36  and  N_63
REMARK                            x       y       z     vdW  Elec       q    Type
REMARK                         _______ _______ _______ _____ _____    ______ ____
ROOT
ATOM      1  C   UNL     1       1.659  -1.613   0.588  0.00  0.00    +0.060 A 
ATOM      2  C   UNL     1       1.089  -1.888  -0.658  0.00  0.00    +0.015 A 
ATOM      3  C   UNL     1       1.232  -0.989  -1.693  0.00  0.00    +0.001 A 
ATOM      4  C   UNL     1       1.934   0.191  -1.504  0.00  0.00    +0.002 A 
ATOM      5  C   UNL     1       2.498   0.479  -0.279  0.00  0.00    +0.025 A 
ATOM      6  C   UNL     1       2.365  -0.414   0.777  0.00  0.00    +0.060 A 
ENDROOT
BRANCH   1  20
ATOM      7  C   UNL     1       0.967  -6.936  -3.344  0.00  0.00    +0.044 C 
ATOM      8  C   UNL     1       1.100  -6.087  -2.106  0.00  0.00    -0.050 A 
ATOM      9  C   UNL     1       1.861  -4.932  -2.138  0.00  0.00    +0.005 A 
ATOM     10  C   UNL     1       1.981  -4.152  -1.007  0.00  0.00    +0.024 A 
ATOM     11  C   UNL     1       1.344  -4.520   0.171  0.00  0.00    +0.040 A 
ATOM     12  C   UNL     1       0.580  -5.694   0.200  0.00  0.00    -0.023 A 
ATOM     13  C   UNL     1       0.463  -6.463  -0.938  0.00  0.00    +0.009 A 
ATOM     14  C   UNL     1       0.047  -5.813   1.586  0.00  0.00    +0.025 C 
ATOM     15  C   UNL     1      -0.004  -7.159   2.267  0.00  0.00    -0.069 C 
ATOM     16  C   UNL     1       0.213  -5.980   4.431  0.00  0.00    -0.077 C 
ATOM     17  C   UNL     1       0.391  -4.628   3.711  0.00  0.00    +0.005 C 
ATOM     18  C   UNL     1       1.058  -4.941   2.389  0.00  0.00    +0.086 C 
ATOM     19  N   UNL     1       1.324  -3.881   1.436  0.00  0.00    -0.264 N 
ATOM     20  C   UNL     1       1.516  -2.572   1.697  0.00  0.00    +0.253 C 
ATOM     21  O   UNL     1       1.571  -2.184   2.848  0.00  0.00    -0.270 OA
ATOM     22  C   UNL     1      -0.723  -8.206   4.341  0.00  0.00    -0.096 C 
ATOM     23  N   UNL     1      -0.601  -6.925   3.626  0.00  0.00    +0.378 N 
ATOM     24  H   UNL     1      -1.538  -6.523   3.504  0.00  0.00    -0.082 HD
ENDBRANCH   1  20
BRANCH   6  25
ATOM     25  N   UNL     1       2.932  -0.126   2.012  0.00  0.00    -0.216 N 
ATOM     26  H   UNL     1       3.302  -0.840   2.554  0.00  0.00    +0.174 HD
BRANCH  25  27
ATOM     27  S   UNL     1       2.975   1.437   2.558  0.00  0.00    +0.073 S 
ATOM     28  O   UNL     1       3.593   2.207   1.536  0.00  0.00    -0.150 OA
ATOM     29  O   UNL     1       3.479   1.389   3.886  0.00  0.00    -0.150 OA
BRANCH  27  30
ATOM     30  C   UNL     1       1.308   1.996   2.672  0.00  0.00    +0.112 A 
ATOM     31  C   UNL     1       0.857   3.000   1.835  0.00  0.00    +0.032 A 
ATOM     32  C   UNL     1      -0.450   3.439   1.924  0.00  0.00    +0.040 A 
ATOM     33  C   UNL     1      -1.308   2.873   2.852  0.00  0.00    +0.124 A 
ATOM     34  C   UNL     1      -0.857   1.864   3.686  0.00  0.00    +0.043 A 
ATOM     35  C   UNL     1       0.452   1.430   3.598  0.00  0.00    -0.021 A 
ATOM     36  C   UNL     1       0.945   0.336   4.510  0.00  0.00    +0.046 C 
ATOM     37  F   UNL     1      -2.586   3.302   2.939  0.00  0.00    -0.205 F 
ENDBRANCH  27  30
ENDBRANCH  25  27
ENDBRANCH   6  25
TORSDOF 4
