REMARK  Name = ZINC62260530
REMARK  8 active torsions:
REMARK  status: ('A' for Active; 'I' for Inactive)
REMARK    1  A    between atoms: C_1  and  C_2
REMARK    2  A    between atoms: C_2  and  C_3
REMARK    3  A    between atoms: C_2  and  C_4
REMARK    4  A    between atoms: C_4  and  C_5
REMARK    5  A    between atoms: C_7  and  C_14
REMARK    6  A    between atoms: N_16  and  C_17
REMARK    7  A    between atoms: C_17  and  C_18
REMARK    8  A    between atoms: C_18  and  N_19
REMARK                            x       y       z     vdW  Elec       q    Type
REMARK                         _______ _______ _______ _____ _____    ______ ____
ROOT
ATOM      1  C   UNL     1      -1.435  -5.081  -2.004  0.00  0.00    +0.265 C 
ATOM      2  O   UNL     1      -1.407  -6.247  -1.652  0.00  0.00    -0.268 OA
ATOM      3  N   UNL     1      -1.483  -4.775  -3.316  0.00  0.00    -0.308 N 
ATOM      4  H   UNL     1      -1.505  -3.846  -3.596  0.00  0.00    +0.149 HD
ENDROOT
BRANCH   1   7
ATOM      5  C   UNL     1      -1.416  -2.035  -0.119  0.00  0.00    +0.115 A 
ATOM      6  N   UNL     1      -1.444  -2.687  -1.245  0.00  0.00    -0.227 NA
ATOM      7  C   UNL     1      -1.417  -4.014  -1.004  0.00  0.00    +0.151 A 
ATOM      8  C   UNL     1      -1.368  -4.176   0.388  0.00  0.00    +0.078 A 
ATOM      9  N   UNL     1      -1.363  -2.912   0.922  0.00  0.00    -0.303 N 
ATOM     10  C   UNL     1      -1.314  -2.743   2.276  0.00  0.00    +0.093 A 
ATOM     11  C   UNL     1      -1.266  -3.810   3.101  0.00  0.00    +0.018 A 
ATOM     12  C   UNL     1      -1.267  -5.114   2.578  0.00  0.00    +0.004 A 
ATOM     13  C   UNL     1      -1.324  -5.297   1.229  0.00  0.00    +0.028 A 
BRANCH   5  14
ATOM     14  C   UNL     1      -1.433  -0.534   0.013  0.00  0.00    +0.077 C 
BRANCH  14  16
ATOM     15  C   UNL     1      -0.019   1.526   0.010  0.00  0.00    +0.007 C 
ATOM     16  C   UNL     1       0.002  -0.004   0.002  0.00  0.00    -0.010 C 
ATOM     17  C   UNL     1       0.742  -0.511   1.242  0.00  0.00    +0.007 C 
ENDBRANCH  14  16
ENDBRANCH   5  14
ENDBRANCH   1   7
BRANCH   3  18
ATOM     18  C   UNL     1      -1.501  -5.843  -4.318  0.00  0.00    +0.126 C 
BRANCH  18  19
ATOM     19  C   UNL     1      -1.556  -5.229  -5.718  0.00  0.00    +0.145 C 
BRANCH  19  20
ATOM     20  N   UNL     1      -1.575  -6.298  -6.720  0.00  0.00    -0.291 N 
ATOM     21  C   UNL     1      -0.456  -6.880  -7.311  0.00  0.00    +0.070 A 
ATOM     22  C   UNL     1       0.908  -6.675  -7.173  0.00  0.00    +0.028 A 
ATOM     23  C   UNL     1       1.795  -7.429  -7.915  0.00  0.00    +0.002 A 
ATOM     24  C   UNL     1       1.328  -8.388  -8.797  0.00  0.00    +0.002 A 
ATOM     25  C   UNL     1      -0.029  -8.600  -8.942  0.00  0.00    +0.028 A 
ATOM     26  C   UNL     1      -0.927  -7.848  -8.200  0.00  0.00    +0.067 A 
ATOM     27  N   UNL     1      -2.318  -7.824  -8.122  0.00  0.00    -0.306 N 
ATOM     28  H   UNL     1      -2.925  -8.387  -8.626  0.00  0.00    +0.170 HD
ATOM     29  C   UNL     1      -2.676  -6.888  -7.222  0.00  0.00    +0.328 A 
ATOM     30  O   UNL     1      -3.820  -6.615  -6.912  0.00  0.00    -0.247 OA
ENDBRANCH  19  20
ENDBRANCH  18  19
ENDBRANCH   3  18
TORSDOF 6
