REMARK  Name = ZINC36502282
REMARK  13 active torsions:
REMARK  status: ('A' for Active; 'I' for Inactive)
REMARK    1  A    between atoms: C_1  and  C_2
REMARK    2  A    between atoms: C_2  and  C_3
REMARK    3  A    between atoms: C_2  and  C_4
REMARK    4  A    between atoms: C_2  and  N_5
REMARK    5  A    between atoms: C_6  and  C_8
REMARK    6  A    between atoms: C_8  and  C_10
REMARK    7  A    between atoms: C_8  and  N_17
REMARK    8  A    between atoms: N_17  and  C_18
REMARK    9  A    between atoms: C_18  and  C_19
REMARK   10  A    between atoms: C_24  and  C_26
REMARK   11  A    between atoms: C_26  and  C_27
REMARK   12  A    between atoms: C_26  and  C_33
REMARK   13  A    between atoms: C_26  and  O_39
REMARK                            x       y       z     vdW  Elec       q    Type
REMARK                         _______ _______ _______ _____ _____    ______ ____
ROOT
ATOM      1  N   UNL     1       3.492  -0.294  -2.643  0.00  0.00    -0.276 N 
ATOM      2  C   UNL     1       3.652  -1.608  -2.897  0.00  0.00    +0.258 C 
ATOM      3  O   UNL     1       3.025  -2.133  -3.792  0.00  0.00    -0.272 OA
ENDROOT
BRANCH   1   4
ATOM      4  C   UNL     1       2.550   0.496  -3.439  0.00  0.00    +0.193 C 
BRANCH   4   5
ATOM      5  C   UNL     1       3.075   0.639  -4.844  0.00  0.00    -0.018 A 
ATOM      6  C   UNL     1       4.430   0.807  -5.062  0.00  0.00    +0.007 A 
ATOM      7  C   UNL     1       4.912   0.937  -6.350  0.00  0.00    +0.020 A 
ATOM      8  C   UNL     1       4.039   0.900  -7.423  0.00  0.00    +0.041 A 
ATOM      9  C   UNL     1       2.683   0.732  -7.205  0.00  0.00    +0.020 A 
ATOM     10  C   UNL     1       2.203   0.596  -5.916  0.00  0.00    +0.007 A 
ATOM     11 CL   UNL     1       4.644   1.064  -9.041  0.00  0.00    -0.084 Cl
ENDBRANCH   4   5
BRANCH   4  13
ATOM     12  N   UNL     1       1.760   2.840  -3.500  0.00  0.00    -0.309 N 
ATOM     13  C   UNL     1       2.392   1.862  -2.821  0.00  0.00    +0.238 C 
ATOM     14  O   UNL     1       2.833   2.081  -1.713  0.00  0.00    -0.273 OA
ATOM     15  H   UNL     1       1.407   2.665  -4.386  0.00  0.00    +0.149 HD
BRANCH  12  17
ATOM     16  C   UNL     1       2.987   4.756  -2.603  0.00  0.00    +0.031 C 
ATOM     17  C   UNL     1       1.606   4.167  -2.899  0.00  0.00    +0.026 C 
ATOM     18  C   UNL     1       0.812   4.049  -1.597  0.00  0.00    +0.031 C 
ATOM     19  C   UNL     1       0.859   5.083  -3.871  0.00  0.00    +0.031 C 
ENDBRANCH  12  17
ENDBRANCH   4  13
ENDBRANCH   1   4
BRANCH   1  20
ATOM     20  C   UNL     1       4.259   0.344  -1.571  0.00  0.00    +0.183 C 
BRANCH  20  21
ATOM     21  C   UNL     1       3.523   0.189  -0.265  0.00  0.00    +0.122 A 
ATOM     22  C   UNL     1       4.049  -0.269   0.885  0.00  0.00    +0.046 A 
ATOM     23  C   UNL     1       3.012  -0.248   1.847  0.00  0.00    +0.041 A 
ATOM     24  C   UNL     1       1.915   0.222   1.226  0.00  0.00    +0.195 A 
ATOM     25  O   UNL     1       2.232   0.490  -0.051  0.00  0.00    -0.466 OA
ENDBRANCH  20  21
ENDBRANCH   1  20
BRANCH   2  26
ATOM     26  C   UNL     1       4.612  -2.424  -2.070  0.00  0.00    +0.192 C 
BRANCH  26  27
ATOM     27  C   UNL     1       3.978  -2.751  -0.743  0.00  0.00    -0.003 A 
ATOM     28  C   UNL     1       2.602  -2.725  -0.609  0.00  0.00    +0.007 A 
ATOM     29  C   UNL     1       2.021  -3.026   0.609  0.00  0.00    +0.000 A 
ATOM     30  C   UNL     1       2.815  -3.353   1.692  0.00  0.00    +0.000 A 
ATOM     31  C   UNL     1       4.190  -3.380   1.558  0.00  0.00    +0.000 A 
ATOM     32  C   UNL     1       4.772  -3.083   0.339  0.00  0.00    +0.007 A 
ENDBRANCH  26  27
BRANCH  26  33
ATOM     33  C   UNL     1       4.942  -3.701  -2.798  0.00  0.00    -0.003 A 
ATOM     34  C   UNL     1       3.930  -4.563  -3.176  0.00  0.00    +0.007 A 
ATOM     35  C   UNL     1       4.233  -5.735  -3.843  0.00  0.00    +0.000 A 
ATOM     36  C   UNL     1       5.549  -6.044  -4.133  0.00  0.00    +0.000 A 
ATOM     37  C   UNL     1       6.561  -5.182  -3.756  0.00  0.00    +0.000 A 
ATOM     38  C   UNL     1       6.258  -4.008  -3.092  0.00  0.00    +0.007 A 
ENDBRANCH  26  33
BRANCH  26  39
ATOM     39  O   UNL     1       5.810  -1.675  -1.854  0.00  0.00    -0.371 OA
ATOM     40  H   UNL     1       6.272  -1.429  -2.667  0.00  0.00    +0.212 HD
ENDBRANCH  26  39
ENDBRANCH   2  26
TORSDOF 10
