REMARK  Name = ZINC15732546
REMARK  7 active torsions:
REMARK  status: ('A' for Active; 'I' for Inactive)
REMARK    1  A    between atoms: C_1  and  C_2
REMARK    2  A    between atoms: C_2  and  N_3
REMARK    3  A    between atoms: N_3  and  C_4
REMARK    4  A    between atoms: C_10  and  C_12
REMARK    5  A    between atoms: C_12  and  S_13
REMARK    6  A    between atoms: S_13  and  C_14
REMARK    7  A    between atoms: C_16  and  C_25
REMARK                            x       y       z     vdW  Elec       q    Type
REMARK                         _______ _______ _______ _____ _____    ______ ____
ROOT
ATOM      1  C   UNL     1      -3.663   5.924   0.623  0.00  0.00    +0.192 A 
ATOM      2  N   UNL     1      -2.568   5.234   0.345  0.00  0.00    -0.202 NA
ATOM      3  C   UNL     1      -2.595   3.900   0.291  0.00  0.00    +0.166 A 
ATOM      4  N   UNL     1      -3.718   3.227   0.508  0.00  0.00    -0.208 NA
ATOM      5  C   UNL     1      -4.846   3.882   0.796  0.00  0.00    +0.162 A 
ATOM      6  N   UNL     1      -4.833   5.261   0.855  0.00  0.00    -0.210 N 
ATOM      7  N   UNL     1      -6.128   5.689   1.166  0.00  0.00    -0.256 N 
ATOM      8  H   UNL     1      -6.410   6.611   1.272  0.00  0.00    +0.191 HD
ATOM      9  C   UNL     1      -6.917   4.605   1.295  0.00  0.00    +0.267 A 
ATOM     10  O   UNL     1      -8.107   4.617   1.564  0.00  0.00    -0.266 OA
ATOM     11  C   UNL     1      -6.143   3.465   1.069  0.00  0.00    +0.119 A 
ENDROOT
BRANCH   3  12
ATOM     12  C   UNL     1      -1.352   3.159  -0.022  0.00  0.00    +0.038 A 
ATOM     13  C   UNL     1      -1.364   1.766  -0.088  0.00  0.00    +0.013 A 
ATOM     14  C   UNL     1      -0.202   1.081  -0.375  0.00  0.00    +0.001 A 
ATOM     15  C   UNL     1       0.974   1.774  -0.608  0.00  0.00    +0.001 A 
ATOM     16  C   UNL     1       0.993   3.155  -0.549  0.00  0.00    +0.021 A 
ATOM     17  C   UNL     1      -0.163   3.853  -0.258  0.00  0.00    +0.052 A 
ATOM     18 CL   UNL     1      -0.138   5.587  -0.185  0.00  0.00    -0.083 Cl
ENDBRANCH   3  12
BRANCH   1  19
ATOM     19  S   UNL     1      -3.611   7.684   0.690  0.00  0.00    -0.077 S 
BRANCH  19  20
ATOM     20  C   UNL     1      -1.864   7.962   0.309  0.00  0.00    +0.173 C 
BRANCH  20  22
ATOM     21  N   UNL     1      -0.333   9.888   0.052  0.00  0.00    -0.271 N 
ATOM     22  C   UNL     1      -1.578   9.441   0.312  0.00  0.00    +0.230 C 
ATOM     23  O   UNL     1      -2.469  10.230   0.547  0.00  0.00    -0.274 OA
BRANCH  21  24
ATOM     24  C   UNL     1      -0.090  11.262  -0.050  0.00  0.00    +0.036 A 
ATOM     25  C   UNL     1      -0.623  11.986  -1.108  0.00  0.00    +0.023 A 
ATOM     26  C   UNL     1      -0.386  13.344  -1.203  0.00  0.00    +0.002 A 
ATOM     27  C   UNL     1       0.391  13.979  -0.251  0.00  0.00    +0.000 A 
ATOM     28  C   UNL     1       0.928  13.259   0.800  0.00  0.00    +0.002 A 
ATOM     29  C   UNL     1       0.690  11.903   0.904  0.00  0.00    +0.023 A 
ENDBRANCH  21  24
BRANCH  21  31
ATOM     30  C   UNL     1       0.872   8.546  -1.600  0.00  0.00    +0.025 C 
ATOM     31  C   UNL     1       0.765   8.934  -0.124  0.00  0.00    +0.110 C 
ENDBRANCH  21  31
ENDBRANCH  20  22
ENDBRANCH  19  20
ENDBRANCH   1  19
TORSDOF 6
