REMARK  Name = ZINC38905615
REMARK  7 active torsions:
REMARK  status: ('A' for Active; 'I' for Inactive)
REMARK    1  A    between atoms: C_3  and  N_31
REMARK    2  A    between atoms: C_6  and  C_7
REMARK    3  A    between atoms: C_7  and  N_8
REMARK    4  A    between atoms: C_9  and  C_11
REMARK    5  A    between atoms: N_16  and  C_18
REMARK    6  A    between atoms: C_18  and  C_19
REMARK    7  A    between atoms: C_21  and  C_24
REMARK                            x       y       z     vdW  Elec       q    Type
REMARK                         _______ _______ _______ _____ _____    ______ ____
ROOT
ATOM      1  C   UNL     1      -3.313  -1.940  -3.025  0.00  0.00    +0.058 C 
ATOM      2  C   UNL     1      -3.522  -0.601  -3.738  0.00  0.00    +0.009 C 
ATOM      3  C   UNL     1      -4.049  -0.863  -5.152  0.00  0.00    -0.018 C 
ATOM      4  C   UNL     1      -5.339  -1.682  -5.066  0.00  0.00    -0.078 C 
ATOM      5  N   UNL     1      -5.068  -2.961  -4.398  0.00  0.00    +0.386 N 
ATOM      6  C   UNL     1      -4.630  -2.720  -3.018  0.00  0.00    -0.065 C 
ATOM      7  H   UNL     1      -4.343  -3.453  -4.898  0.00  0.00    -0.081 HD
ENDROOT
BRANCH   1   9
ATOM      8  N   UNL     1      -1.726  -1.016  -1.368  0.00  0.00    -0.311 N 
ATOM      9  C   UNL     1      -2.868  -1.691  -1.607  0.00  0.00    +0.215 C 
ATOM     10  O   UNL     1      -3.537  -2.099  -0.681  0.00  0.00    -0.276 OA
ATOM     11  H   UNL     1      -1.192  -0.690  -2.109  0.00  0.00    +0.149 HD
BRANCH   8  12
ATOM     12  C   UNL     1      -1.294  -0.774   0.010  0.00  0.00    +0.139 C 
BRANCH  12  18
ATOM     13  C   UNL     1      -0.017   1.379   0.010  0.00  0.00    +0.007 A 
ATOM     14  C   UNL     1       1.169   2.087   0.002  0.00  0.00    +0.026 A 
ATOM     15  C   UNL     1       2.381   1.409  -0.013  0.00  0.00    +0.047 A 
ATOM     16  C   UNL     1       2.396   0.021  -0.021  0.00  0.00    +0.026 A 
ATOM     17  C   UNL     1       1.207  -0.682  -0.013  0.00  0.00    +0.007 A 
ATOM     18  C   UNL     1       0.002  -0.004   0.002  0.00  0.00    -0.030 A 
BRANCH  15  19
ATOM     19  N   UNL     1       3.586   2.125  -0.021  0.00  0.00    -0.306 N 
ATOM     20  C   UNL     1       4.850   1.594  -0.042  0.00  0.00    +0.112 A 
ATOM     21  C   UNL     1       5.709   2.631  -0.043  0.00  0.00    +0.130 A 
ATOM     22  N   UNL     1       4.995   3.766  -0.024  0.00  0.00    -0.244 NA
ATOM     23  C   UNL     1       3.723   3.477  -0.016  0.00  0.00    +0.204 A 
ENDBRANCH  15  19
ENDBRANCH  12  18
ENDBRANCH   8  12
ENDBRANCH   1   9
BRANCH   5  24
ATOM     24  C   UNL     1      -6.291  -3.775  -4.387  0.00  0.00    +0.022 C 
BRANCH  24  25
ATOM     25  C   UNL     1      -6.667  -4.135  -5.801  0.00  0.00    +0.211 A 
ATOM     26  N   UNL     1      -6.276  -5.197  -6.446  0.00  0.00    -0.193 NA
ATOM     27  C   UNL     1      -6.801  -5.202  -7.685  0.00  0.00    +0.202 A 
ATOM     28  N   UNL     1      -7.537  -4.129  -7.833  0.00  0.00    -0.056 NA
ATOM     29  O   UNL     1      -7.465  -3.419  -6.605  0.00  0.00    -0.340 OA
BRANCH  27  30
ATOM     30  C   UNL     1      -6.582  -6.250  -8.713  0.00  0.00    +0.023 A 
ATOM     31  C   UNL     1      -5.777  -7.351  -8.428  0.00  0.00    +0.013 A 
ATOM     32  C   UNL     1      -5.576  -8.323  -9.387  0.00  0.00    +0.016 A 
ATOM     33  C   UNL     1      -6.173  -8.205 -10.631  0.00  0.00    +0.018 A 
ATOM     34  C   UNL     1      -6.972  -7.112 -10.919  0.00  0.00    +0.016 A 
ATOM     35  C   UNL     1      -7.185  -6.139  -9.964  0.00  0.00    +0.013 A 
ATOM     36 BR   UNL     1      -5.893  -9.540 -11.941  0.00  0.00    -0.050 Br
ENDBRANCH  27  30
ENDBRANCH  24  25
ENDBRANCH   5  24
TORSDOF 7
