REMARK  Name = ZINC67442209
REMARK  7 active torsions:
REMARK  status: ('A' for Active; 'I' for Inactive)
REMARK    1  A    between atoms: C_1  and  C_2
REMARK    2  A    between atoms: C_7  and  C_13
REMARK    3  A    between atoms: C_13  and  N_14
REMARK    4  A    between atoms: N_14  and  C_15
REMARK    5  A    between atoms: N_14  and  C_21
REMARK    6  A    between atoms: C_15  and  C_16
REMARK    7  A    between atoms: C_21  and  C_22
REMARK                            x       y       z     vdW  Elec       q    Type
REMARK                         _______ _______ _______ _____ _____    ______ ____
ROOT
ATOM      1  C   UNL     1       0.161  -6.256   0.870  0.00  0.00    +0.138 C 
ENDROOT
BRANCH   1   8
ATOM      2  C   UNL     1       0.083   1.296  -1.288  0.00  0.00    +0.045 C 
ATOM      3  C   UNL     1       0.087  -0.198  -1.089  0.00  0.00    -0.034 A 
ATOM      4  C   UNL     1       0.032  -1.051  -2.200  0.00  0.00    +0.008 A 
ATOM      5  C   UNL     1       0.036  -2.401  -2.012  0.00  0.00    +0.045 A 
ATOM      6  C   UNL     1       0.097  -2.917  -0.705  0.00  0.00    +0.118 A 
ATOM      7  N   UNL     1       0.102  -4.235  -0.519  0.00  0.00    -0.343 N 
ATOM      8  C   UNL     1       0.158  -4.760   0.696  0.00  0.00    +0.037 A 
ATOM      9  C   UNL     1       0.213  -3.936   1.803  0.00  0.00    +0.093 A 
ATOM     10  C   UNL     1       0.209  -2.549   1.615  0.00  0.00    +0.258 A 
ATOM     11  O   UNL     1       0.257  -1.793   2.574  0.00  0.00    -0.267 OA
ATOM     12  N   UNL     1       0.151  -2.059   0.359  0.00  0.00    -0.269 N 
ATOM     13  C   UNL     1       0.150  -0.712   0.160  0.00  0.00    +0.099 A 
ATOM     14  H   UNL     1       0.063  -4.824  -1.289  0.00  0.00    +0.167 HD
ENDBRANCH   1   8
BRANCH   1  15
ATOM     15  N   UNL     1      -1.120  -6.806   0.407  0.00  0.00    -0.287 NA
BRANCH  15  16
ATOM     16  C   UNL     1      -1.026  -8.258   0.201  0.00  0.00    +0.127 C 
BRANCH  16  17
ATOM     17  C   UNL     1      -2.194  -8.724  -0.629  0.00  0.00    +0.004 A 
ATOM     18  C   UNL     1      -2.279  -8.878  -1.973  0.00  0.00    +0.012 A 
ATOM     19  C   UNL     1      -3.465  -9.325  -2.524  0.00  0.00    +0.008 A 
ATOM     20  C   UNL     1      -4.510  -9.595  -1.703  0.00  0.00    +0.045 A 
ATOM     21  S   UNL     1      -3.824  -9.224  -0.097  0.00  0.00    -0.100 S 
ENDBRANCH  16  17
ENDBRANCH  15  16
BRANCH  15  22
ATOM     22  C   UNL     1      -2.204  -6.476   1.342  0.00  0.00    +0.127 C 
BRANCH  22  23
ATOM     23  C   UNL     1      -1.933  -7.126   2.674  0.00  0.00    +0.004 A 
ATOM     24  C   UNL     1      -1.303  -6.616   3.760  0.00  0.00    +0.012 A 
ATOM     25  C   UNL     1      -1.169  -7.404   4.888  0.00  0.00    +0.008 A 
ATOM     26  C   UNL     1      -1.671  -8.663   4.875  0.00  0.00    +0.045 A 
ATOM     27  S   UNL     1      -2.367  -8.765   3.234  0.00  0.00    -0.100 S 
ENDBRANCH  22  23
ENDBRANCH  15  22
ENDBRANCH   1  15
TORSDOF 6
