REMARK  Name = ZINC66698750
REMARK  10 active torsions:
REMARK  status: ('A' for Active; 'I' for Inactive)
REMARK    1  A    between atoms: C_1  and  C_2
REMARK    2  A    between atoms: C_2  and  C_3
REMARK    3  A    between atoms: C_2  and  C_4
REMARK    4  A    between atoms: C_4  and  C_5
REMARK    5  A    between atoms: C_5  and  C_7
REMARK    6  A    between atoms: C_5  and  N_24
REMARK    7  A    between atoms: C_7  and  N_8
REMARK    8  A    between atoms: N_11  and  C_12
REMARK    9  A    between atoms: C_12  and  C_13
REMARK   10  A    between atoms: C_17  and  C_19
REMARK                            x       y       z     vdW  Elec       q    Type
REMARK                         _______ _______ _______ _____ _____    ______ ____
ROOT
ATOM      1  N   UNL     1      -3.332  -2.201   1.384  0.00  0.00    -0.298 N 
ATOM      2  C   UNL     1      -4.592  -2.518   1.742  0.00  0.00    +0.300 C 
ATOM      3  O   UNL     1      -5.372  -2.941   0.910  0.00  0.00    -0.253 OA
ATOM      4  N   UNL     1      -4.988  -2.366   3.021  0.00  0.00    -0.292 N 
ATOM      5  H   UNL     1      -2.710  -1.863   2.047  0.00  0.00    +0.150 HD
ATOM      6  H   UNL     1      -4.366  -2.028   3.684  0.00  0.00    +0.151 HD
ENDROOT
BRANCH   1   7
ATOM      7  C   UNL     1      -2.902  -2.366  -0.007  0.00  0.00    +0.124 C 
BRANCH   7   8
ATOM      8  C   UNL     1      -1.484  -1.816  -0.171  0.00  0.00    +0.074 C 
BRANCH   8   9
ATOM      9  N   UNL     1      -1.007  -2.091  -1.533  0.00  0.00    -0.294 NA
ATOM     10  C   UNL     1      -1.956  -1.586  -2.535  0.00  0.00    +0.113 C 
ATOM     11  C   UNL     1      -1.393  -1.839  -3.936  0.00  0.00    +0.175 C 
ATOM     12  O   UNL     1      -1.130  -3.236  -4.094  0.00  0.00    -0.377 OA
ATOM     13  C   UNL     1      -0.209  -3.760  -3.135  0.00  0.00    +0.175 C 
ATOM     14  C   UNL     1      -0.760  -3.527  -1.725  0.00  0.00    +0.113 C 
ENDBRANCH   8   9
BRANCH   8  15
ATOM     15  C   UNL     1      -1.491  -0.306   0.073  0.00  0.00    +0.023 C 
BRANCH  15  17
ATOM     16  C   UNL     1      -0.072   1.750   0.151  0.00  0.00    +0.007 C 
ATOM     17  C   UNL     1      -0.056   0.224   0.032  0.00  0.00    -0.016 C 
ATOM     18  C   UNL     1       0.740  -0.369   1.196  0.00  0.00    +0.007 C 
ENDBRANCH  15  17
ENDBRANCH   8  15
ENDBRANCH   7   8
ENDBRANCH   1   7
BRANCH   4  19
ATOM     19  C   UNL     1      -6.358  -2.710   3.410  0.00  0.00    +0.181 C 
BRANCH  19  20
ATOM     20  C   UNL     1      -6.542  -2.450   4.883  0.00  0.00    +0.143 A 
ATOM     21  N   UNL     1      -7.051  -1.331   5.427  0.00  0.00    -0.261 N 
ATOM     22  H   UNL     1      -7.366  -0.546   4.952  0.00  0.00    +0.190 HD
ATOM     23  N   UNL     1      -7.038  -1.520   6.819  0.00  0.00    -0.152 NA
ATOM     24  C   UNL     1      -6.533  -2.717   7.032  0.00  0.00    +0.188 A 
ATOM     25  N   UNL     1      -6.240  -3.276   5.849  0.00  0.00    -0.209 NA
BRANCH  24  26
ATOM     26  C   UNL     1      -6.329  -3.343   8.356  0.00  0.00    +0.058 A 
ATOM     27  C   UNL     1      -6.612  -2.844   9.599  0.00  0.00    +0.019 A 
ATOM     28  C   UNL     1      -6.332  -3.619  10.704  0.00  0.00    +0.008 A 
ATOM     29  C   UNL     1      -5.785  -4.849  10.527  0.00  0.00    +0.046 A 
ATOM     30  S   UNL     1      -5.657  -4.950   8.750  0.00  0.00    -0.093 S 
ENDBRANCH  24  26
ENDBRANCH  19  20
ENDBRANCH   4  19
TORSDOF 8
