REMARK  Name = ZINC66895927
REMARK  13 active torsions:
REMARK  status: ('A' for Active; 'I' for Inactive)
REMARK    1  A    between atoms: C_1  and  C_2
REMARK    2  A    between atoms: C_2  and  C_4
REMARK    3  A    between atoms: C_2  and  N_10
REMARK    4  A    between atoms: C_4  and  C_5
REMARK    5  A    between atoms: C_5  and  C_6
REMARK    6  A    between atoms: C_6  and  C_7
REMARK    7  A    between atoms: C_7  and  C_8
REMARK    8  A    between atoms: C_7  and  C_9
REMARK    9  A    between atoms: C_11  and  C_13
REMARK   10  A    between atoms: C_13  and  N_14
REMARK   11  A    between atoms: C_17  and  N_20
REMARK   12  A    between atoms: C_21  and  O_23
REMARK   13  A    between atoms: O_23  and  C_24
REMARK                            x       y       z     vdW  Elec       q    Type
REMARK                         _______ _______ _______ _____ _____    ______ ____
ROOT
ATOM      1  N   UNL     1      -0.210  -1.304   4.642  0.00  0.00    +0.385 N 
ATOM      2  C   UNL     1      -1.279  -2.277   4.387  0.00  0.00    -0.076 C 
ATOM      3  C   UNL     1      -2.275  -2.263   5.548  0.00  0.00    +0.004 C 
ATOM      4  C   UNL     1      -1.546  -2.631   6.844  0.00  0.00    +0.073 C 
ATOM      5  C   UNL     1      -0.387  -1.653   7.061  0.00  0.00    +0.004 C 
ATOM      6  C   UNL     1       0.539  -1.690   5.843  0.00  0.00    -0.076 C 
ATOM      7  H   UNL     1      -0.616  -0.391   4.779  0.00  0.00    -0.081 HD
ENDROOT
BRANCH   4   8
ATOM      8  N   UNL     1      -2.477  -2.545   7.971  0.00  0.00    -0.278 N 
ATOM      9  C   UNL     1      -2.255  -3.270   9.085  0.00  0.00    +0.406 C 
ATOM     10  O   UNL     1      -1.282  -3.995   9.155  0.00  0.00    -0.226 OA
ATOM     11  H   UNL     1      -3.253  -1.966   7.916  0.00  0.00    +0.152 HD
BRANCH   9  12
ATOM     12  O   UNL     1      -3.111  -3.191  10.122  0.00  0.00    -0.412 OA
BRANCH  12  13
ATOM     13  C   UNL     1      -2.905  -4.014  11.184  0.00  0.00    +0.133 A 
ATOM     14  C   UNL     1      -3.692  -5.145  11.349  0.00  0.00    +0.046 A 
ATOM     15  C   UNL     1      -3.482  -5.980  12.429  0.00  0.00    +0.004 A 
ATOM     16  C   UNL     1      -2.487  -5.690  13.345  0.00  0.00    +0.000 A 
ATOM     17  C   UNL     1      -1.701  -4.564  13.182  0.00  0.00    +0.004 A 
ATOM     18  C   UNL     1      -1.904  -3.729  12.101  0.00  0.00    +0.046 A 
ENDBRANCH  12  13
ENDBRANCH   9  12
ENDBRANCH   4   8
BRANCH   1  19
ATOM     19  C   UNL     1       0.701  -1.266   3.490  0.00  0.00    +0.019 C 
BRANCH  19  21
ATOM     20  N   UNL     1       0.600  -0.630   1.101  0.00  0.00    -0.314 N 
ATOM     21  C   UNL     1      -0.039  -0.751   2.282  0.00  0.00    +0.197 C 
ATOM     22  O   UNL     1      -1.210  -0.447   2.371  0.00  0.00    -0.278 OA
ATOM     23  H   UNL     1       1.536  -0.874   1.029  0.00  0.00    +0.149 HD
BRANCH  20  25
ATOM     24  C   UNL     1      -0.098   1.400  -0.071  0.00  0.00    +0.028 C 
ATOM     25  C   UNL     1      -0.119  -0.130  -0.073  0.00  0.00    +0.070 C 
BRANCH  25  26
ATOM     26  C   UNL     1       0.558  -0.648  -1.344  0.00  0.00    +0.022 C 
BRANCH  26  27
ATOM     27  C   UNL     1       0.427  -2.171  -1.407  0.00  0.00    +0.002 C 
BRANCH  27  28
ATOM     28  C   UNL     1       1.103  -2.689  -2.678  0.00  0.00    +0.003 C 
BRANCH  28  29
ATOM     29  C   UNL     1       0.972  -4.212  -2.741  0.00  0.00    -0.017 C 
ATOM     30  C   UNL     1      -0.503  -4.591  -2.885  0.00  0.00    +0.007 C 
ATOM     31  C   UNL     1       1.754  -4.742  -3.945  0.00  0.00    +0.007 C 
ENDBRANCH  28  29
ENDBRANCH  27  28
ENDBRANCH  26  27
ENDBRANCH  25  26
ENDBRANCH  20  25
ENDBRANCH  19  21
ENDBRANCH   1  19
TORSDOF 10
