REMARK  Name = ZINC14982819
REMARK  12 active torsions:
REMARK  status: ('A' for Active; 'I' for Inactive)
REMARK    1  A    between atoms: C_1  and  C_2
REMARK    2  A    between atoms: C_3  and  C_8
REMARK    3  A    between atoms: C_4  and  C_7
REMARK    4  A    between atoms: C_8  and  C_9
REMARK    5  A    between atoms: C_15  and  C_18
REMARK    6  A    between atoms: C_18  and  O_19
REMARK    7  A    between atoms: O_19  and  C_20
REMARK    8  A    between atoms: C_23  and  C_26
REMARK    9  A    between atoms: C_26  and  N_65
REMARK   10  A    between atoms: C_27  and  N_65
REMARK   11  A    between atoms: C_28  and  C_29
REMARK   12  A    between atoms: C_28  and  N_65
REMARK                            x       y       z     vdW  Elec       q    Type
REMARK                         _______ _______ _______ _____ _____    ______ ____
ROOT
ATOM      1  C   UNL     1      -4.530  -0.544   6.683  0.00  0.00    +0.234 C 
ENDROOT
BRANCH   1   8
ATOM      2  C   UNL     1      -1.385  -0.323   3.038  0.00  0.00    +0.220 C 
ATOM      3  O   UNL     1      -2.312  -0.538   2.285  0.00  0.00    -0.275 OA
ATOM      4  N   UNL     1      -1.624   0.015   4.321  0.00  0.00    -0.301 N 
ATOM      5  C   UNL     1      -0.512   0.278   5.244  0.00  0.00    +0.108 C 
ATOM      6  C   UNL     1      -0.683  -0.602   6.486  0.00  0.00    +0.019 C 
ATOM      7  C   UNL     1      -2.070  -0.363   7.088  0.00  0.00    +0.010 C 
ATOM      8  C   UNL     1      -3.144  -0.752   6.069  0.00  0.00    +0.044 C 
ATOM      9  C   UNL     1      -3.000   0.132   4.821  0.00  0.00    +0.114 C 
BRANCH   2  10
ATOM     10  C   UNL     1       0.032  -0.433   2.539  0.00  0.00    +0.136 C 
BRANCH  10  13
ATOM     11  C   UNL     1       0.059  -3.425   1.283  0.00  0.00    +0.069 C 
ATOM     12  C   UNL     1       0.035  -2.121   0.528  0.00  0.00    +0.084 A 
ATOM     13  C   UNL     1       0.023  -0.821   1.082  0.00  0.00    +0.026 A 
ATOM     14  C   UNL     1       0.002  -0.004   0.002  0.00  0.00    +0.138 A 
ATOM     15  O   UNL     1      -0.003  -0.801  -1.076  0.00  0.00    -0.359 OA
ATOM     16  N   UNL     1       0.021  -1.969  -0.765  0.00  0.00    -0.083 NA
ATOM     17  C   UNL     1      -0.018   1.503   0.010  0.00  0.00    +0.089 C 
ENDBRANCH  10  13
ENDBRANCH   2  10
ENDBRANCH   1   8
BRANCH   1  18
ATOM     18  O   UNL     1      -5.528  -1.015   5.775  0.00  0.00    -0.492 OA
BRANCH  18  19
ATOM     19  C   UNL     1      -6.824  -0.903   6.171  0.00  0.00    +0.121 A 
ATOM     20  C   UNL     1      -7.127  -0.356   7.409  0.00  0.00    +0.046 A 
ATOM     21  C   UNL     1      -8.445  -0.238   7.806  0.00  0.00    +0.005 A 
ATOM     22  C   UNL     1      -9.460  -0.675   6.976  0.00  0.00    -0.064 A 
ATOM     23  C   UNL     1      -9.160  -1.226   5.744  0.00  0.00    +0.005 A 
ATOM     24  C   UNL     1      -7.844  -1.341   5.339  0.00  0.00    +0.046 A 
BRANCH  22  25
ATOM     25  C   UNL     1     -10.897  -0.550   7.414  0.00  0.00    -0.043 C 
BRANCH  25  27
ATOM     26  C   UNL     1     -11.304  -2.931   7.239  0.00  0.00    -0.095 C 
ATOM     27  N   UNL     1     -11.277  -1.772   8.155  0.00  0.00    +0.384 N 
ATOM     28  H   UNL     1     -10.582  -1.945   8.891  0.00  0.00    -0.081 HD
BRANCH  27  29
ATOM     29  C   UNL     1     -12.604  -1.591   8.781  0.00  0.00    -0.019 C 
BRANCH  29  30
ATOM     30  C   UNL     1     -12.868  -2.752   9.704  0.00  0.00    +0.067 A 
ATOM     31  C   UNL     1     -12.611  -2.805  11.093  0.00  0.00    +0.065 A 
ATOM     32  C   UNL     1     -13.018  -4.046  11.454  0.00  0.00    +0.230 A 
ATOM     33  O   UNL     1     -13.470  -4.637  10.339  0.00  0.00    -0.363 OA
ATOM     34  N   UNL     1     -13.384  -3.903   9.382  0.00  0.00    -0.085 NA
ENDBRANCH  29  30
ENDBRANCH  27  29
ENDBRANCH  25  27
ENDBRANCH  22  25
ENDBRANCH  18  19
ENDBRANCH   1  18
TORSDOF 9
