REMARK  Name = ZINC65552738
REMARK  10 active torsions:
REMARK  status: ('A' for Active; 'I' for Inactive)
REMARK    1  A    between atoms: C_1  and  C_2
REMARK    2  A    between atoms: C_4  and  C_27
REMARK    3  A    between atoms: C_9  and  C_10
REMARK    4  A    between atoms: C_10  and  N_11
REMARK    5  A    between atoms: N_14  and  C_15
REMARK    6  A    between atoms: C_15  and  C_16
REMARK    7  A    between atoms: C_16  and  N_24
REMARK    8  A    between atoms: C_20  and  C_23
REMARK    9  A    between atoms: N_24  and  C_25
REMARK   10  A    between atoms: N_24  and  C_26
REMARK                            x       y       z     vdW  Elec       q    Type
REMARK                         _______ _______ _______ _____ _____    ______ ____
ROOT
ATOM      1  N   UNL     1      -1.228   4.699   5.353  0.00  0.00    -0.295 N 
ATOM      2  C   UNL     1      -1.551   3.404   5.540  0.00  0.00    +0.300 C 
ATOM      3  O   UNL     1      -0.683   2.553   5.529  0.00  0.00    -0.253 OA
ATOM      4  N   UNL     1      -2.837   3.052   5.738  0.00  0.00    -0.301 N 
ATOM      5  H   UNL     1      -1.920   5.378   5.361  0.00  0.00    +0.151 HD
ATOM      6  H   UNL     1      -3.530   3.731   5.746  0.00  0.00    +0.150 HD
ENDROOT
BRANCH   1   7
ATOM      7  C   UNL     1       0.170   5.081   5.138  0.00  0.00    +0.146 C 
BRANCH   7  16
ATOM      8  C   UNL     1       0.774   6.788   7.386  0.00  0.00    +0.044 C 
ATOM      9  C   UNL     1       0.545   7.381   6.020  0.00  0.00    -0.039 A 
ATOM     10  C   UNL     1       0.629   8.767   5.825  0.00  0.00    +0.024 A 
ATOM     11  C   UNL     1       0.423   9.290   4.595  0.00  0.00    +0.016 A 
ATOM     12  N   UNL     1       0.134   8.486   3.539  0.00  0.00    -0.326 N 
ATOM     13  H   UNL     1      -0.011   8.878   2.664  0.00  0.00    +0.169 HD
ATOM     14  C   UNL     1       0.047   7.152   3.694  0.00  0.00    +0.254 A 
ATOM     15  O   UNL     1      -0.213   6.442   2.735  0.00  0.00    -0.268 OA
ATOM     16  C   UNL     1       0.260   6.575   4.957  0.00  0.00    +0.037 A 
ATOM     17  C   UNL     1       0.514  10.781   4.393  0.00  0.00    +0.063 C 
ENDBRANCH   7  16
ENDBRANCH   1   7
BRANCH   4  18
ATOM     18  C   UNL     1      -3.188   1.644   5.940  0.00  0.00    +0.094 C 
BRANCH  18  19
ATOM     19  C   UNL     1      -4.678   1.533   6.272  0.00  0.00    -0.050 C 
ATOM     20  C   UNL     1      -5.503   2.083   5.107  0.00  0.00    -0.010 C 
ATOM     21  C   UNL     1      -6.992   1.972   5.439  0.00  0.00    -0.001 C 
ATOM     22  C   UNL     1      -7.294   2.779   6.703  0.00  0.00    +0.003 C 
ATOM     23  C   UNL     1      -6.469   2.230   7.869  0.00  0.00    -0.015 C 
ATOM     24  C   UNL     1      -4.980   2.341   7.537  0.00  0.00    -0.007 C 
ATOM     25  C   UNL     1      -6.772   3.037   9.133  0.00  0.00    +0.007 C 
BRANCH  19  26
ATOM     26  N   UNL     1      -5.026   0.124   6.497  0.00  0.00    +0.381 N 
ATOM     27  C   UNL     1      -4.742  -0.650   5.281  0.00  0.00    -0.096 C 
ATOM     28  C   UNL     1      -4.229  -0.406   7.611  0.00  0.00    -0.096 C 
ATOM     29  H   UNL     1      -6.007   0.051   6.721  0.00  0.00    -0.082 HD
ENDBRANCH  19  26
ENDBRANCH  18  19
ENDBRANCH   4  18
TORSDOF 5
