REMARK  Name = ZINC15066914
REMARK  6 active torsions:
REMARK  status: ('A' for Active; 'I' for Inactive)
REMARK    1  A    between atoms: C_8  and  N_52
REMARK    2  A    between atoms: C_15  and  C_17
REMARK    3  A    between atoms: C_17  and  C_18
REMARK    4  A    between atoms: N_20  and  C_21
REMARK    5  A    between atoms: C_21  and  C_22
REMARK    6  A    between atoms: C_22  and  C_23
REMARK                            x       y       z     vdW  Elec       q    Type
REMARK                         _______ _______ _______ _____ _____    ______ ____
ROOT
ATOM      1  C   UNL     1      -4.476   4.106  -1.821  0.00  0.00    -0.058 C 
ATOM      2  C   UNL     1      -4.296   5.607  -2.055  0.00  0.00    +0.085 C 
ATOM      3  N   UNL     1      -3.792   6.246  -0.843  0.00  0.00    -0.318 N 
ATOM      4  C   UNL     1      -3.212   5.565   0.151  0.00  0.00    +0.200 C 
ATOM      5  O   UNL     1      -2.794   6.179   1.109  0.00  0.00    -0.278 OA
ATOM      6  C   UNL     1      -3.057   4.071   0.130  0.00  0.00    +0.028 C 
ATOM      7  H   UNL     1      -3.882   7.208  -0.755  0.00  0.00    +0.149 HD
ATOM      8  N   UNL     1      -3.219   3.580  -1.252  0.00  0.00    +0.391 N 
ATOM      9  H   UNL     1      -2.429   3.910  -1.820  0.00  0.00    -0.080 HD
ENDROOT
BRANCH   8  17
ATOM     10  C   UNL     1      -2.306  -1.766  -3.873  0.00  0.00    +0.000 A 
ATOM     11  C   UNL     1      -1.174  -1.782  -3.080  0.00  0.00    +0.000 A 
ATOM     12  C   UNL     1      -0.936  -0.745  -2.199  0.00  0.00    +0.004 A 
ATOM     13  C   UNL     1      -1.827   0.311  -2.108  0.00  0.00    -0.046 A 
ATOM     14  C   UNL     1      -2.958   0.327  -2.902  0.00  0.00    -0.046 A 
ATOM     15  C   UNL     1      -3.196  -0.714  -3.784  0.00  0.00    +0.004 A 
ATOM     16  C   UNL     1      -3.765   1.576  -2.619  0.00  0.00    +0.020 C 
ATOM     17  C   UNL     1      -3.236   2.100  -1.266  0.00  0.00    -0.059 C 
ATOM     18  C   UNL     1      -1.795   1.549  -1.232  0.00  0.00    +0.020 C 
ENDBRANCH   8  17
BRANCH   6  19
ATOM     19  C   UNL     1      -1.660   3.698   0.630  0.00  0.00    +0.089 C 
BRANCH  19  20
ATOM     20  C   UNL     1      -0.625   4.237  -0.323  0.00  0.00    +0.212 C 
ATOM     21  O   UNL     1      -0.964   4.932  -1.257  0.00  0.00    -0.276 OA
ATOM     22  N   UNL     1       0.678   3.946  -0.138  0.00  0.00    -0.315 N 
ATOM     23  H   UNL     1       0.943   3.334   0.567  0.00  0.00    +0.149 HD
BRANCH  22  24
ATOM     24  C   UNL     1       1.695   4.558  -0.997  0.00  0.00    +0.109 C 
BRANCH  24  25
ATOM     25  C   UNL     1       3.087   4.164  -0.500  0.00  0.00    +0.061 C 
BRANCH  25  26
ATOM     26  C   UNL     1       4.133   4.793  -1.383  0.00  0.00    -0.009 A 
ATOM     27  C   UNL     1       4.738   6.000  -1.263  0.00  0.00    +0.011 A 
ATOM     28  C   UNL     1       5.682   6.373  -2.201  0.00  0.00    +0.008 A 
ATOM     29  C   UNL     1       5.968   5.525  -3.219  0.00  0.00    +0.045 A 
ATOM     30  S   UNL     1       4.890   4.146  -2.865  0.00  0.00    -0.102 S 
ENDBRANCH  25  26
ENDBRANCH  24  25
ENDBRANCH  22  24
ENDBRANCH  19  20
ENDBRANCH   6  19
TORSDOF 6
