REMARK  Name = ZINC35239614
REMARK  8 active torsions:
REMARK  status: ('A' for Active; 'I' for Inactive)
REMARK    1  A    between atoms: C_1  and  C_2
REMARK    2  A    between atoms: C_4  and  O_35
REMARK    3  A    between atoms: C_7  and  C_8
REMARK    4  A    between atoms: C_9  and  C_19
REMARK    5  A    between atoms: N_11  and  C_13
REMARK    6  A    between atoms: C_29  and  C_32
REMARK    7  A    between atoms: O_35  and  C_36
REMARK    8  A    between atoms: C_36  and  C_37
REMARK                            x       y       z     vdW  Elec       q    Type
REMARK                         _______ _______ _______ _____ _____    ______ ____
ROOT
ATOM      1  C   UNL     1      -0.199   0.041   2.508  0.00  0.00    +0.101 A 
ATOM      2  C   UNL     1      -0.051  -0.571   3.835  0.00  0.00    +0.022 A 
ATOM      3  C   UNL     1       0.193   0.467   4.716  0.00  0.00    +0.123 A 
ATOM      4  N   UNL     1       0.198   1.613   4.011  0.00  0.00    -0.239 N 
ATOM      5  N   UNL     1      -0.038   1.336   2.661  0.00  0.00    -0.166 NA
ENDROOT
BRANCH   2   6
ATOM      6  C   UNL     1      -0.145  -1.997   4.161  0.00  0.00    +0.032 C 
ATOM      7  C   UNL     1      -0.311  -2.389   5.451  0.00  0.00    +0.080 C 
ATOM      8  C   UNL     1      -0.424  -3.750   6.020  0.00  0.00    +0.276 C 
ATOM      9  O   UNL     1      -0.374  -4.748   5.318  0.00  0.00    -0.267 OA
ATOM     10  N   UNL     1      -0.581  -3.827   7.324  0.00  0.00    -0.154 NA
ATOM     11  C   UNL     1      -0.636  -2.754   8.096  0.00  0.00    +0.154 C 
ATOM     12  S   UNL     1      -0.446  -1.407   6.939  0.00  0.00    -0.052 S 
ATOM     13  N   UNL     1      -0.795  -2.691   9.456  0.00  0.00    -0.311 N 
ATOM     14  C   UNL     1      -0.839  -1.395  10.146  0.00  0.00    +0.107 C 
ATOM     15  C   UNL     1      -2.113  -1.331  10.994  0.00  0.00    +0.032 C 
ATOM     16  C   UNL     1      -2.161  -2.542  11.928  0.00  0.00    +0.078 C 
ATOM     17  C   UNL     1      -2.197  -3.828  11.099  0.00  0.00    +0.032 C 
ATOM     18  C   UNL     1      -0.929  -3.920  10.251  0.00  0.00    +0.107 C 
BRANCH  16  19
ATOM     19  C   UNL     1      -3.396  -2.465  12.788  0.00  0.00    +0.214 C 
ATOM     20  O   UNL     1      -4.163  -1.533  12.665  0.00  0.00    -0.276 OA
ATOM     21  N   UNL     1      -3.649  -3.431  13.693  0.00  0.00    -0.329 N 
ATOM     22  H   UNL     1      -3.035  -4.176  13.791  0.00  0.00    +0.145 HD
ATOM     23  H   UNL     1      -4.444  -3.381  14.246  0.00  0.00    +0.145 HD
ENDBRANCH  16  19
ENDBRANCH   2   6
BRANCH   1  30
ATOM     24  C   UNL     1      -2.265   1.021   0.738  0.00  0.00    +0.044 C 
ATOM     25  C   UNL     1      -1.466  -0.204   0.376  0.00  0.00    -0.038 A 
ATOM     26  C   UNL     1      -1.713  -0.864  -0.810  0.00  0.00    +0.049 A 
ATOM     27  C   UNL     1      -0.978  -1.993  -1.144  0.00  0.00    +0.121 A 
ATOM     28  C   UNL     1       0.009  -2.462  -0.287  0.00  0.00    +0.046 A 
ATOM     29  C   UNL     1       0.262  -1.807   0.900  0.00  0.00    +0.014 A 
ATOM     30  C   UNL     1      -0.472  -0.669   1.236  0.00  0.00    +0.006 A 
BRANCH  27  31
ATOM     31  O   UNL     1      -1.224  -2.641  -2.312  0.00  0.00    -0.488 OA
BRANCH  31  32
ATOM     32  C   UNL     1      -0.430  -3.796  -2.594  0.00  0.00    +0.256 C 
BRANCH  32  33
ATOM     33  C   UNL     1      -0.843  -4.377  -3.922  0.00  0.00    +0.006 C 
ATOM     34  C   UNL     1       0.069  -4.746  -4.787  0.00  0.00    +0.007 C 
ENDBRANCH  32  33
ENDBRANCH  31  32
ENDBRANCH  27  31
ENDBRANCH   1  30
BRANCH   4  35
ATOM     35  C   UNL     1       0.412   2.889   4.546  0.00  0.00    +0.065 A 
ATOM     36  C   UNL     1       0.648   3.042   5.906  0.00  0.00    +0.028 A 
ATOM     37  C   UNL     1       0.859   4.302   6.432  0.00  0.00    +0.002 A 
ATOM     38  C   UNL     1       0.835   5.410   5.605  0.00  0.00    +0.000 A 
ATOM     39  C   UNL     1       0.600   5.262   4.251  0.00  0.00    +0.002 A 
ATOM     40  C   UNL     1       0.394   4.004   3.718  0.00  0.00    +0.028 A 
ENDBRANCH   4  35
TORSDOF 7
