REMARK  Name = ZINC36570632
REMARK  17 active torsions:
REMARK  status: ('A' for Active; 'I' for Inactive)
REMARK    1  A    between atoms: C_1  and  C_2
REMARK    2  A    between atoms: C_2  and  C_3
REMARK    3  A    between atoms: C_3  and  N_4
REMARK    4  A    between atoms: N_4  and  C_5
REMARK    5  A    between atoms: C_5  and  C_7
REMARK    6  A    between atoms: C_5  and  C_14
REMARK    7  A    between atoms: C_11  and  O_13
REMARK    8  A    between atoms: N_16  and  C_17
REMARK    9  A    between atoms: C_17  and  C_18
REMARK   10  A    between atoms: C_17  and  C_19
REMARK   11  A    between atoms: C_17  and  C_20
REMARK   12  A    between atoms: C_20  and  C_21
REMARK   13  A    between atoms: C_21  and  C_22
REMARK   14  A    between atoms: C_21  and  C_23
REMARK   15  A    between atoms: C_21  and  C_24
REMARK   16  A    between atoms: C_25  and  C_27
REMARK   17  A    between atoms: C_30  and  O_33
REMARK                            x       y       z     vdW  Elec       q    Type
REMARK                         _______ _______ _______ _____ _____    ______ ____
ROOT
ATOM      1  C   UNL     1       0.802  -4.344  -1.407  0.00  0.00    +0.193 C 
ENDROOT
BRANCH   1   2
ATOM      2  C   UNL     1       0.006  -3.362  -0.588  0.00  0.00    -0.015 A 
ATOM      3  C   UNL     1       0.467  -2.069  -0.419  0.00  0.00    +0.006 A 
ATOM      4  C   UNL     1      -0.261  -1.165   0.332  0.00  0.00    +0.004 A 
ATOM      5  C   UNL     1      -1.452  -1.552   0.916  0.00  0.00    +0.045 A 
ATOM      6  C   UNL     1      -1.916  -2.849   0.749  0.00  0.00    +0.117 A 
ATOM      7  C   UNL     1      -1.187  -3.752  -0.011  0.00  0.00    +0.051 A 
BRANCH   6   8
ATOM      8  O   UNL     1      -3.087  -3.232   1.323  0.00  0.00    -0.507 OA
ATOM      9  H   UNL     1      -3.864  -3.092   0.764  0.00  0.00    +0.292 HD
ENDBRANCH   6   8
ENDBRANCH   1   2
BRANCH   1  10
ATOM     10  C   UNL     1      -0.059  -4.886  -2.519  0.00  0.00    +0.239 C 
ATOM     11  O   UNL     1       0.233  -4.664  -3.675  0.00  0.00    -0.273 OA
ATOM     12  N   UNL     1      -1.154  -5.616  -2.229  0.00  0.00    -0.308 N 
ATOM     13  H   UNL     1      -1.387  -5.793  -1.304  0.00  0.00    +0.149 HD
BRANCH  12  14
ATOM     14  C   UNL     1      -1.991  -6.142  -3.310  0.00  0.00    +0.030 C 
ATOM     15  C   UNL     1      -2.886  -5.026  -3.851  0.00  0.00    +0.031 C 
ATOM     16  C   UNL     1      -1.099  -6.671  -4.434  0.00  0.00    +0.031 C 
BRANCH  14  17
ATOM     17  C   UNL     1      -2.862  -7.279  -2.772  0.00  0.00    +0.031 C 
BRANCH  17  18
ATOM     18  C   UNL     1      -2.038  -8.146  -1.817  0.00  0.00    -0.036 C 
ATOM     19  C   UNL     1      -2.192  -7.618  -0.389  0.00  0.00    +0.010 C 
ATOM     20  C   UNL     1      -2.535  -9.591  -1.883  0.00  0.00    +0.010 C 
ATOM     21  C   UNL     1      -0.565  -8.094  -2.224  0.00  0.00    +0.010 C 
ENDBRANCH  17  18
ENDBRANCH  14  17
ENDBRANCH  12  14
ENDBRANCH   1  10
BRANCH   1  22
ATOM     22  N   UNL     1       1.971  -3.670  -1.979  0.00  0.00    -0.282 N 
ATOM     23  C   UNL     1       3.110  -3.574  -1.265  0.00  0.00    +0.247 C 
ATOM     24  O   UNL     1       4.092  -3.050  -1.754  0.00  0.00    -0.270 OA
BRANCH  23  25
ATOM     25  C   UNL     1       3.166  -4.106   0.111  0.00  0.00    +0.037 A 
ATOM     26  C   UNL     1       1.984  -4.367   0.809  0.00  0.00    +0.016 A 
ATOM     27  C   UNL     1       2.040  -4.863   2.092  0.00  0.00    +0.046 A 
ATOM     28  C   UNL     1       3.270  -5.105   2.693  0.00  0.00    +0.117 A 
ATOM     29  C   UNL     1       4.448  -4.848   2.001  0.00  0.00    +0.046 A 
ATOM     30  C   UNL     1       4.400  -4.356   0.716  0.00  0.00    +0.016 A 
BRANCH  28  31
ATOM     31  O   UNL     1       3.321  -5.594   3.958  0.00  0.00    -0.507 OA
ATOM     32  H   UNL     1       3.329  -6.560   4.006  0.00  0.00    +0.292 HD
ENDBRANCH  28  31
ENDBRANCH  23  25
BRANCH  22  33
ATOM     33  C   UNL     1       1.901  -3.099  -3.326  0.00  0.00    +0.109 C 
BRANCH  33  35
ATOM     34  C   UNL     1       2.721  -3.366  -5.671  0.00  0.00    +0.005 C 
ATOM     35  C   UNL     1       2.972  -3.742  -4.209  0.00  0.00    +0.016 C 
ENDBRANCH  33  35
ENDBRANCH  22  33
ENDBRANCH   1  22
TORSDOF 11
