REMARK  Name = ZINC31269802
REMARK  9 active torsions:
REMARK  status: ('A' for Active; 'I' for Inactive)
REMARK    1  A    between atoms: C_1  and  C_2
REMARK    2  A    between atoms: C_5  and  C_7
REMARK    3  A    between atoms: C_9  and  C_19
REMARK    4  A    between atoms: N_13  and  C_16
REMARK    5  A    between atoms: C_16  and  C_17
REMARK    6  A    between atoms: C_16  and  C_18
REMARK    7  A    between atoms: C_24  and  C_27
REMARK    8  A    between atoms: C_27  and  C_29
REMARK    9  A    between atoms: C_27  and  O_35
REMARK                            x       y       z     vdW  Elec       q    Type
REMARK                         _______ _______ _______ _____ _____    ______ ____
ROOT
ATOM      1  C   UNL     1      -3.719  -0.620   0.126  0.00  0.00    +0.081 A 
ATOM      2  C   UNL     1      -2.493   0.055   0.065  0.00  0.00    +0.042 A 
ATOM      3  C   UNL     1      -1.313  -0.677   0.069  0.00  0.00    +0.051 A 
ATOM      4  C   UNL     1      -1.407  -2.087   0.146  0.00  0.00    +0.051 A 
ATOM      5  C   UNL     1      -0.455  -3.127   0.177  0.00  0.00    +0.145 A 
ATOM      6  N   UNL     1      -1.084  -4.265   0.253  0.00  0.00    -0.177 NA
ATOM      7  N   UNL     1      -2.466  -4.041   0.275  0.00  0.00    -0.244 N 
ATOM      8  C   UNL     1      -2.680  -2.688   0.209  0.00  0.00    +0.160 A 
ATOM      9  N   UNL     1      -3.775  -1.942   0.197  0.00  0.00    -0.227 NA
ENDROOT
BRANCH   3  10
ATOM     10  C   UNL     1       0.002  -0.004   0.002  0.00  0.00    +0.247 C 
ATOM     11  O   UNL     1       0.851  -0.243   0.839  0.00  0.00    -0.270 OA
ATOM     12  N   UNL     1       0.260   0.874  -0.988  0.00  0.00    -0.297 N 
ATOM     13  C   UNL     1      -0.701   1.073  -2.081  0.00  0.00    +0.108 C 
ATOM     14  C   UNL     1       0.016   0.880  -3.415  0.00  0.00    +0.025 C 
ATOM     15  C   UNL     1       1.236   1.802  -3.474  0.00  0.00    +0.025 C 
ATOM     16  C   UNL     1       2.205   1.442  -2.346  0.00  0.00    +0.025 C 
ATOM     17  C   UNL     1       1.510   1.646  -0.997  0.00  0.00    +0.108 C 
BRANCH  15  18
ATOM     18  C   UNL     1       1.938   1.633  -4.823  0.00  0.00    +0.148 C 
BRANCH  18  19
ATOM     19  C   UNL     1       1.026   2.104  -5.927  0.00  0.00    -0.019 A 
ATOM     20  C   UNL     1       0.020   1.278  -6.392  0.00  0.00    +0.006 A 
ATOM     21  C   UNL     1      -0.819   1.712  -7.401  0.00  0.00    +0.000 A 
ATOM     22  C   UNL     1      -0.646   2.968  -7.952  0.00  0.00    +0.000 A 
ATOM     23  C   UNL     1       0.363   3.792  -7.490  0.00  0.00    +0.000 A 
ATOM     24  C   UNL     1       1.199   3.360  -6.478  0.00  0.00    +0.006 A 
ENDBRANCH  18  19
BRANCH  18  25
ATOM     25  O   UNL     1       2.257   0.255  -5.025  0.00  0.00    -0.387 OA
ATOM     26  H   UNL     1       2.768  -0.062  -5.946  0.00  0.00    +0.210 HD
ENDBRANCH  18  25
ENDBRANCH  15  18
ENDBRANCH   3  10
BRANCH   1  31
ATOM     27  C   UNL     1      -7.916   3.137   0.030  0.00  0.00    +0.051 C 
ATOM     28  C   UNL     1      -6.986   1.953   0.070  0.00  0.00    -0.013 A 
ATOM     29  C   UNL     1      -7.289   0.630   0.147  0.00  0.00    +0.011 A 
ATOM     30  C   UNL     1      -6.268  -0.292   0.166  0.00  0.00    +0.018 A 
ATOM     31  C   UNL     1      -4.973   0.157   0.116  0.00  0.00    +0.038 A 
ATOM     32  S   UNL     1      -5.201   1.925   0.028  0.00  0.00    -0.092 S 
ENDBRANCH   1  31
BRANCH   7  33
ATOM     33  C   UNL     1      -3.503  -5.073   0.354  0.00  0.00    +0.103 C 
ATOM     34  C   UNL     1      -3.386  -6.008  -0.851  0.00  0.00    +0.032 C 
ATOM     35  C   UNL     1      -3.323  -5.878   1.643  0.00  0.00    +0.032 C 
ENDBRANCH   7  33
TORSDOF 6
