REMARK  Name = ZINC49153054
REMARK  6 active torsions:
REMARK  status: ('A' for Active; 'I' for Inactive)
REMARK    1  A    between atoms: C_1  and  C_2
REMARK    2  A    between atoms: C_5  and  C_7
REMARK    3  A    between atoms: C_7  and  C_9
REMARK    4  A    between atoms: C_7  and  N_10
REMARK    5  A    between atoms: N_10  and  C_11
REMARK    6  A    between atoms: C_16  and  N_17
REMARK                            x       y       z     vdW  Elec       q    Type
REMARK                         _______ _______ _______ _____ _____    ______ ____
ROOT
ATOM      1  C   UNL     1       2.566  -5.374   1.427  0.00  0.00    +0.050 A 
ATOM      2  C   UNL     1       1.819  -6.510   1.156  0.00  0.00    +0.048 A 
ATOM      3  C   UNL     1       2.175  -7.725   1.724  0.00  0.00    +0.038 A 
ATOM      4  C   UNL     1       3.279  -7.804   2.564  0.00  0.00    -0.024 A 
ATOM      5  C   UNL     1       4.024  -6.672   2.837  0.00  0.00    +0.030 A 
ATOM      6  C   UNL     1       3.676  -5.457   2.267  0.00  0.00    +0.046 A 
ATOM      7  C   UNL     1       3.661  -9.126   3.177  0.00  0.00    +0.046 C 
ATOM      8  C   UNL     1       2.399  -9.940   3.466  0.00  0.00    +0.101 C 
ATOM      9  C   UNL     1       1.509  -9.952   2.253  0.00  0.00    +0.218 C 
ATOM     10  O   UNL     1       0.861 -10.945   1.995  0.00  0.00    -0.275 OA
ATOM     11  N   UNL     1       1.423  -8.875   1.452  0.00  0.00    -0.285 N 
ATOM     12  H   UNL     1       0.835  -8.894   0.680  0.00  0.00    +0.155 HD
ENDROOT
BRANCH   6  13
ATOM     13  N   UNL     1       4.437  -4.311   2.539  0.00  0.00    -0.357 N 
ATOM     14  H   UNL     1       4.191  -3.460   2.144  0.00  0.00    +0.142 HD
ATOM     15  H   UNL     1       5.210  -4.369   3.123  0.00  0.00    +0.142 HD
ENDBRANCH   6  13
BRANCH   1  16
ATOM     16  N   UNL     1       2.210  -4.147   0.855  0.00  0.00    -0.335 N 
ATOM     17  H   UNL     1       2.735  -3.354   1.042  0.00  0.00    +0.147 HD
BRANCH  16  18
ATOM     18  C   UNL     1       1.043  -4.062  -0.027  0.00  0.00    +0.104 C 
ATOM     19  C   UNL     1       1.452  -4.441  -1.452  0.00  0.00    +0.033 C 
BRANCH  18  24
ATOM     20  C   UNL     1      -0.018   1.503   0.010  0.00  0.00    +0.051 C 
ATOM     21  C   UNL     1       0.002  -0.004   0.002  0.00  0.00    -0.013 A 
ATOM     22  C   UNL     1      -1.039  -0.872   0.002  0.00  0.00    +0.011 A 
ATOM     23  C   UNL     1      -0.780  -2.230  -0.007  0.00  0.00    +0.013 A 
ATOM     24  C   UNL     1       0.507  -2.653  -0.016  0.00  0.00    +0.010 A 
ATOM     25  S   UNL     1       1.404  -1.109  -0.018  0.00  0.00    -0.097 S 
ENDBRANCH  18  24
ENDBRANCH  16  18
ENDBRANCH   1  16
TORSDOF 4
