REMARK  Name = ZINC34686389
REMARK  11 active torsions:
REMARK  status: ('A' for Active; 'I' for Inactive)
REMARK    1  A    between atoms: C_1  and  C_2
REMARK    2  A    between atoms: C_2  and  C_3
REMARK    3  A    between atoms: C_3  and  C_5
REMARK    4  A    between atoms: C_3  and  O_15
REMARK    5  A    between atoms: N_7  and  C_8
REMARK    6  A    between atoms: C_8  and  C_9
REMARK    7  A    between atoms: C_9  and  N_10
REMARK    8  A    between atoms: O_15  and  C_16
REMARK    9  A    between atoms: C_22  and  C_32
REMARK   10  A    between atoms: C_27  and  C_29
REMARK   11  A    between atoms: C_35  and  C_38
REMARK                            x       y       z     vdW  Elec       q    Type
REMARK                         _______ _______ _______ _____ _____    ______ ____
ROOT
ATOM      1  C   UNL     1       2.370   1.166  -1.660  0.00  0.00    +0.122 A 
ATOM      2  C   UNL     1       1.365   2.003  -2.123  0.00  0.00    +0.046 A 
ATOM      3  C   UNL     1       1.681   3.262  -2.584  0.00  0.00    +0.007 A 
ATOM      4  C   UNL     1       2.998   3.707  -2.587  0.00  0.00    -0.040 A 
ATOM      5  C   UNL     1       3.995   2.881  -2.118  0.00  0.00    -0.016 A 
ATOM      6  C   UNL     1       3.681   1.611  -1.655  0.00  0.00    +0.051 A 
ATOM      7  C   UNL     1       5.440   3.310  -2.066  0.00  0.00    +0.137 C 
ATOM      8  N   UNL     1       5.614   4.553  -2.824  0.00  0.00    -0.290 N 
ATOM      9  C   UNL     1       4.612   5.613  -2.622  0.00  0.00    +0.113 C 
ATOM     10  C   UNL     1       3.266   5.089  -3.120  0.00  0.00    +0.054 C 
ATOM     11  C   UNL     1       6.649   4.719  -3.672  0.00  0.00    +0.219 C 
ATOM     12  O   UNL     1       7.460   3.830  -3.820  0.00  0.00    -0.275 OA
ENDROOT
BRANCH   7  13
ATOM     13  C   UNL     1       5.845   3.537  -0.632  0.00  0.00    -0.023 A 
ATOM     14  C   UNL     1       6.947   2.883  -0.113  0.00  0.00    +0.006 A 
ATOM     15  C   UNL     1       7.318   3.091   1.202  0.00  0.00    +0.004 A 
ATOM     16  C   UNL     1       6.587   3.954   1.998  0.00  0.00    -0.050 A 
ATOM     17  C   UNL     1       5.485   4.608   1.479  0.00  0.00    +0.004 A 
ATOM     18  C   UNL     1       5.117   4.403   0.162  0.00  0.00    +0.006 A 
ATOM     19  C   UNL     1       6.990   4.180   3.432  0.00  0.00    +0.044 C 
ENDBRANCH   7  13
BRANCH  11  20
ATOM     20  C   UNL     1       6.798   6.010  -4.436  0.00  0.00    +0.075 C 
ATOM     21  C   UNL     1       6.583   5.964  -5.950  0.00  0.00    +0.013 C 
ATOM     22  C   UNL     1       7.993   6.137  -5.382  0.00  0.00    +0.013 C 
ENDBRANCH  11  20
BRANCH   1  23
ATOM     23  O   UNL     1       2.069  -0.079  -1.208  0.00  0.00    -0.480 OA
BRANCH  23  24
ATOM     24  C   UNL     1       3.135  -0.834  -0.628  0.00  0.00    +0.258 C 
BRANCH  24  25
ATOM     25  C   UNL     1       2.618  -1.602   0.561  0.00  0.00    +0.254 C 
ATOM     26  O   UNL     1       1.434  -1.583   0.827  0.00  0.00    -0.272 OA
ATOM     27  N   UNL     1       3.470  -2.308   1.330  0.00  0.00    -0.314 N 
ATOM     28  H   UNL     1       4.416  -2.323   1.118  0.00  0.00    +0.149 HD
BRANCH  27  29
ATOM     29  C   UNL     1       2.967  -3.054   2.486  0.00  0.00    +0.086 C 
BRANCH  29  30
ATOM     30  C   UNL     1       4.131  -3.763   3.182  0.00  0.00    -0.060 C 
BRANCH  30  31
ATOM     31  N   UNL     1       3.627  -4.511   4.341  0.00  0.00    +0.381 N 
ATOM     32  C   UNL     1       2.794  -5.655   3.889  0.00  0.00    -0.079 C 
ATOM     33  C   UNL     1       2.825  -6.617   5.104  0.00  0.00    -0.020 C 
ATOM     34  C   UNL     1       4.272  -6.467   5.627  0.00  0.00    -0.020 C 
ATOM     35  C   UNL     1       4.753  -5.105   5.094  0.00  0.00    -0.079 C 
ATOM     36  H   UNL     1       3.089  -3.903   4.941  0.00  0.00    -0.082 HD
ENDBRANCH  30  31
ENDBRANCH  29  30
ENDBRANCH  27  29
ENDBRANCH  24  25
BRANCH  24  38
ATOM     37  C   UNL     1       4.327  -1.031  -2.815  0.00  0.00    +0.008 C 
ATOM     38  C   UNL     1       3.689  -1.813  -1.665  0.00  0.00    +0.051 C 
ENDBRANCH  24  38
ENDBRANCH  23  24
ENDBRANCH   1  23
TORSDOF 9
