REMARK  Name = ZINC63138649
REMARK  8 active torsions:
REMARK  status: ('A' for Active; 'I' for Inactive)
REMARK    1  A    between atoms: C_1  and  C_2
REMARK    2  A    between atoms: C_2  and  C_3
REMARK    3  A    between atoms: C_2  and  O_4
REMARK    4  A    between atoms: O_4  and  C_5
REMARK    5  A    between atoms: C_5  and  C_6
REMARK    6  A    between atoms: C_6  and  C_7
REMARK    7  A    between atoms: C_7  and  N_8
REMARK    8  A    between atoms: C_28  and  C_30
REMARK                            x       y       z     vdW  Elec       q    Type
REMARK                         _______ _______ _______ _____ _____    ______ ____
ROOT
ATOM      1  N   UNL     1      -5.292  -1.935  -2.425  0.00  0.00    -0.291 N 
ATOM      2  C   UNL     1      -5.580  -3.380  -2.362  0.00  0.00    +0.203 C 
ATOM      3  C   UNL     1      -6.568  -3.625  -1.241  0.00  0.00    +0.234 C 
ATOM      4  O   UNL     1      -6.429  -4.545  -0.463  0.00  0.00    -0.274 OA
ATOM      5  N   UNL     1      -7.628  -2.757  -1.146  0.00  0.00    -0.279 N 
ATOM      6  C   UNL     1      -7.708  -1.757  -2.189  0.00  0.00    +0.167 C 
ATOM      7  C   UNL     1      -6.365  -1.092  -2.353  0.00  0.00    +0.237 C 
ATOM      8  O   UNL     1      -6.244   0.113  -2.421  0.00  0.00    -0.274 OA
ATOM      9  C   UNL     1      -8.837  -0.760  -2.140  0.00  0.00    +0.065 C 
ATOM     10  C   UNL     1      -9.566  -0.877  -0.829  0.00  0.00    -0.034 C 
ATOM     11  C   UNL     1     -10.063   0.033  -0.003  0.00  0.00    -0.001 A 
ATOM     12  C   UNL     1     -10.126   1.501  -0.086  0.00  0.00    +0.010 A 
ATOM     13  C   UNL     1     -10.710   2.137   0.964  0.00  0.00    +0.001 A 
ATOM     14  C   UNL     1     -11.232   1.467   2.075  0.00  0.00    +0.002 A 
ATOM     15  C   UNL     1     -11.221   0.120   2.233  0.00  0.00    +0.026 A 
ATOM     16  C   UNL     1     -10.636  -0.659   1.191  0.00  0.00    +0.043 A 
ATOM     17  N   UNL     1     -10.503  -1.946   1.078  0.00  0.00    -0.375 N 
ATOM     18  C   UNL     1      -9.856  -2.241  -0.206  0.00  0.00    +0.131 C 
ATOM     19  C   UNL     1      -8.507  -2.910   0.005  0.00  0.00    +0.133 C 
ATOM     20  H   UNL     1     -10.784  -2.603   1.734  0.00  0.00    +0.160 HD
ENDROOT
BRANCH  19  21
ATOM     21  C   UNL     1      -8.694  -4.379   0.286  0.00  0.00    -0.025 A 
ATOM     22  C   UNL     1      -8.839  -5.270  -0.760  0.00  0.00    +0.006 A 
ATOM     23  C   UNL     1      -9.011  -6.617  -0.503  0.00  0.00    +0.015 A 
ATOM     24  C   UNL     1      -9.037  -7.073   0.803  0.00  0.00    +0.018 A 
ATOM     25  C   UNL     1      -8.892  -6.181   1.850  0.00  0.00    +0.015 A 
ATOM     26  C   UNL     1      -8.715  -4.835   1.591  0.00  0.00    +0.006 A 
ATOM     27 BR   UNL     1      -9.273  -8.916   1.156  0.00  0.00    -0.050 Br
ENDBRANCH  19  21
BRANCH   1  28
ATOM     28  C   UNL     1      -3.923  -1.429  -2.551  0.00  0.00    +0.110 C 
BRANCH  28  29
ATOM     29  C   UNL     1      -3.326  -1.221  -1.157  0.00  0.00    +0.047 C 
BRANCH  29  30
ATOM     30  C   UNL     1      -1.896  -0.693  -1.289  0.00  0.00    +0.161 C 
BRANCH  30  31
ATOM     31  O   UNL     1      -1.339  -0.499   0.012  0.00  0.00    -0.377 OA
BRANCH  31  33
ATOM     32  C   UNL     1      -0.019   1.526   0.010  0.00  0.00    +0.037 C 
ATOM     33  C   UNL     1       0.002  -0.004   0.002  0.00  0.00    +0.112 C 
ATOM     34  C   UNL     1       0.742  -0.511   1.242  0.00  0.00    +0.037 C 
ENDBRANCH  31  33
ENDBRANCH  30  31
ENDBRANCH  29  30
ENDBRANCH  28  29
ENDBRANCH   1  28
TORSDOF 6
