REMARK  Name = ZINC40780437
REMARK  5 active torsions:
REMARK  status: ('A' for Active; 'I' for Inactive)
REMARK    1  A    between atoms: C_12  and  N_25
REMARK    2  A    between atoms: C_13  and  N_17
REMARK    3  A    between atoms: N_17  and  C_18
REMARK    4  A    between atoms: C_18  and  C_19
REMARK    5  A    between atoms: C_19  and  C_20
REMARK                            x       y       z     vdW  Elec       q    Type
REMARK                         _______ _______ _______ _____ _____    ______ ____
ROOT
ATOM      1  C   UNL     1       2.067  -0.769   3.739  0.00  0.00    +0.000 A 
ATOM      2  C   UNL     1       3.358  -0.324   3.523  0.00  0.00    +0.002 A 
ATOM      3  C   UNL     1       3.870  -0.290   2.242  0.00  0.00    +0.024 A 
ATOM      4  C   UNL     1       3.087  -0.704   1.169  0.00  0.00    +0.038 A 
ATOM      5  C   UNL     1       1.794  -1.153   1.386  0.00  0.00    -0.026 A 
ATOM      6  C   UNL     1       1.288  -1.181   2.675  0.00  0.00    +0.005 A 
ATOM      7  C   UNL     1       0.922  -1.619   0.250  0.00  0.00    +0.038 C 
ATOM      8  C   UNL     1       1.428  -1.058  -1.079  0.00  0.00    +0.024 C 
ATOM      9  C   UNL     1       2.926  -1.364  -1.207  0.00  0.00    +0.113 C 
ATOM     10  N   UNL     1       3.623  -0.658  -0.124  0.00  0.00    -0.285 N 
ATOM     11  C   UNL     1       4.796   0.045  -0.378  0.00  0.00    +0.129 A 
ATOM     12  C   UNL     1       4.752   1.400  -0.712  0.00  0.00    +0.104 A 
ATOM     13  C   UNL     1       5.958   2.058  -0.957  0.00  0.00    +0.145 A 
ATOM     14  N   UNL     1       7.096   1.374  -0.863  0.00  0.00    -0.221 NA
ATOM     15  C   UNL     1       7.094   0.096  -0.544  0.00  0.00    +0.200 A 
ATOM     16  N   UNL     1       5.978  -0.561  -0.301  0.00  0.00    -0.332 N 
ATOM     17  H   UNL     1       6.018  -1.502  -0.065  0.00  0.00    +0.168 HD
ENDROOT
BRANCH  12  18
ATOM     18  N   UNL     1       3.527   2.082  -0.800  0.00  0.00    -0.353 N 
ATOM     19  H   UNL     1       2.706   1.641  -0.532  0.00  0.00    +0.143 HD
ATOM     20  H   UNL     1       3.502   2.994  -1.130  0.00  0.00    +0.143 HD
ENDBRANCH  12  18
BRANCH  13  21
ATOM     21  N   UNL     1       5.971   3.406  -1.294  0.00  0.00    -0.327 N 
ATOM     22  H   UNL     1       5.137   3.897  -1.361  0.00  0.00    +0.148 HD
BRANCH  21  23
ATOM     23  C   UNL     1       7.244   4.086  -1.549  0.00  0.00    +0.108 C 
BRANCH  23  24
ATOM     24  C   UNL     1       6.978   5.552  -1.897  0.00  0.00    +0.061 C 
BRANCH  24  25
ATOM     25  C   UNL     1       8.288   6.251  -2.158  0.00  0.00    -0.009 A 
ATOM     26  C   UNL     1       8.958   6.397  -3.327  0.00  0.00    +0.011 A 
ATOM     27  C   UNL     1      10.157   7.086  -3.330  0.00  0.00    +0.008 A 
ATOM     28  C   UNL     1      10.626   7.595  -2.165  0.00  0.00    +0.045 A 
ATOM     29  S   UNL     1       9.354   7.108  -1.011  0.00  0.00    -0.102 S 
ENDBRANCH  24  25
ENDBRANCH  23  24
ENDBRANCH  21  23
ENDBRANCH  13  21
TORSDOF 5
