REMARK  Name = ZINC05297039
REMARK  4 active torsions:
REMARK  status: ('A' for Active; 'I' for Inactive)
REMARK    1  A    between atoms: C_8  and  C_11
REMARK    2  A    between atoms: C_13  and  C_17
REMARK    3  A    between atoms: N_19  and  N_20
REMARK    4  A    between atoms: C_21  and  C_22
REMARK                            x       y       z     vdW  Elec       q    Type
REMARK                         _______ _______ _______ _____ _____    ______ ____
ROOT
ATOM      1  C   UNL     1       0.205  -2.960  -0.015  0.00  0.00    +0.094 A 
ATOM      2  C   UNL     1       0.223  -4.368  -0.017  0.00  0.00    +0.062 A 
ATOM      3  C   UNL     1      -1.106  -4.748  -0.009  0.00  0.00    +0.122 A 
ATOM      4  N   UNL     1      -1.839  -3.595  -0.003  0.00  0.00    -0.272 N 
ATOM      5  H   UNL     1      -2.808  -3.551   0.004  0.00  0.00    +0.189 HD
ATOM      6  N   UNL     1      -1.055  -2.578  -0.001  0.00  0.00    -0.173 NA
ENDROOT
BRANCH   1  14
ATOM      7  C   UNL     1      -0.016   1.362   0.009  0.00  0.00    +0.001 A 
ATOM      8  C   UNL     1       1.154   2.123   0.002  0.00  0.00    +0.004 A 
ATOM      9  C   UNL     1       2.371   1.512  -0.013  0.00  0.00    -0.039 A 
ATOM     10  C   UNL     1       2.404   0.121  -0.020  0.00  0.00    -0.011 A 
ATOM     11  C   UNL     1       3.684  -0.426  -0.035  0.00  0.00    -0.039 A 
ATOM     12  C   UNL     1       3.805  -1.784  -0.042  0.00  0.00    +0.005 A 
ATOM     13  C   UNL     1       2.673  -2.597  -0.035  0.00  0.00    +0.011 A 
ATOM     14  C   UNL     1       1.391  -2.070  -0.021  0.00  0.00    +0.010 A 
ATOM     15  C   UNL     1       1.239  -0.664  -0.013  0.00  0.00    -0.008 A 
ATOM     16  C   UNL     1       0.002  -0.004   0.002  0.00  0.00    +0.009 A 
ATOM     17  C   UNL     1       4.666   0.720  -0.038  0.00  0.00    +0.040 C 
ATOM     18  C   UNL     1       3.800   1.999  -0.024  0.00  0.00    +0.040 C 
ENDBRANCH   1  14
BRANCH   3  19
ATOM     19  C   UNL     1      -1.628  -6.124  -0.008  0.00  0.00    +0.281 C 
ATOM     20  O   UNL     1      -0.859  -7.067  -0.014  0.00  0.00    -0.267 OA
ATOM     21  N   UNL     1      -2.958  -6.340   0.001  0.00  0.00    -0.202 N 
ATOM     22  H   UNL     1      -3.572  -5.588   0.006  0.00  0.00    +0.178 HD
BRANCH  21  23
ATOM     23  N   UNL     1      -3.455  -7.650   0.002  0.00  0.00    -0.187 NA
ATOM     24  C   UNL     1      -4.737  -7.858   0.009  0.00  0.00    +0.141 C 
BRANCH  24  25
ATOM     25  C   UNL     1      -5.260  -9.236   0.011  0.00  0.00    +0.031 A 
ATOM     26  C   UNL     1      -4.379 -10.322   0.009  0.00  0.00    +0.051 A 
ATOM     27  C   UNL     1      -4.877 -11.610   0.010  0.00  0.00    +0.021 A 
ATOM     28  C   UNL     1      -6.243 -11.827   0.013  0.00  0.00    +0.003 A 
ATOM     29  C   UNL     1      -7.121 -10.758   0.014  0.00  0.00    +0.021 A 
ATOM     30  C   UNL     1      -6.639  -9.464   0.019  0.00  0.00    +0.051 A 
ATOM     31 CL   UNL     1      -7.743  -8.124   0.028  0.00  0.00    -0.083 Cl
ATOM     32 CL   UNL     1      -2.664 -10.052   0.005  0.00  0.00    -0.083 Cl
ENDBRANCH  24  25
ENDBRANCH  21  23
ENDBRANCH   3  19
TORSDOF 4
