REMARK  Name = ZINC15241119
REMARK  11 active torsions:
REMARK  status: ('A' for Active; 'I' for Inactive)
REMARK    1  A    between atoms: C_1  and  C_2
REMARK    2  A    between atoms: C_5  and  N_8
REMARK    3  A    between atoms: C_21  and  S_22
REMARK    4  A    between atoms: S_22  and  C_23
REMARK    5  A    between atoms: C_23  and  C_24
REMARK    6  A    between atoms: C_24  and  C_26
REMARK    7  A    between atoms: C_24  and  O_36
REMARK    8  A    between atoms: C_26  and  O_27
REMARK    9  A    between atoms: O_27  and  C_28
REMARK   10  A    between atoms: C_30  and  C_35
REMARK   11  A    between atoms: C_33  and  C_34
REMARK                            x       y       z     vdW  Elec       q    Type
REMARK                         _______ _______ _______ _____ _____    ______ ____
ROOT
ATOM      1  N   UNL     1      -5.727   2.160  -5.032  0.00  0.00    -0.245 N 
ATOM      2  C   UNL     1      -6.860   1.923  -4.339  0.00  0.00    +0.268 A 
ATOM      3  O   UNL     1      -7.930   2.335  -4.745  0.00  0.00    -0.267 OA
ATOM      4  C   UNL     1      -6.780   1.158  -3.081  0.00  0.00    +0.064 A 
ATOM      5  C   UNL     1      -7.920   0.885  -2.327  0.00  0.00    +0.015 A 
ATOM      6  C   UNL     1      -7.806   0.167  -1.155  0.00  0.00    +0.001 A 
ATOM      7  C   UNL     1      -6.567  -0.284  -0.728  0.00  0.00    +0.002 A 
ATOM      8  C   UNL     1      -5.431  -0.021  -1.466  0.00  0.00    +0.027 A 
ATOM      9  C   UNL     1      -5.526   0.700  -2.647  0.00  0.00    +0.064 A 
ATOM     10  N   UNL     1      -4.402   0.977  -3.414  0.00  0.00    -0.255 N 
ATOM     11  C   UNL     1      -4.503   1.696  -4.577  0.00  0.00    +0.245 A 
ATOM     12  N   UNL     1      -3.290   1.799  -5.067  0.00  0.00    -0.109 NA
ATOM     13  N   UNL     1      -2.450   1.205  -4.296  0.00  0.00    -0.120 NA
ATOM     14  C   UNL     1      -3.073   0.686  -3.266  0.00  0.00    +0.198 A 
ENDROOT
BRANCH   1  19
ATOM     15  C   UNL     1      -5.977   5.103  -9.877  0.00  0.00    +0.044 C 
ATOM     16  C   UNL     1      -5.911   4.321  -8.590  0.00  0.00    -0.050 A 
ATOM     17  C   UNL     1      -6.043   2.945  -8.611  0.00  0.00    +0.005 A 
ATOM     18  C   UNL     1      -5.983   2.226  -7.433  0.00  0.00    +0.026 A 
ATOM     19  C   UNL     1      -5.789   2.886  -6.227  0.00  0.00    +0.053 A 
ATOM     20  C   UNL     1      -5.662   4.269  -6.209  0.00  0.00    +0.026 A 
ATOM     21  C   UNL     1      -5.718   4.982  -7.390  0.00  0.00    +0.005 A 
ENDBRANCH   1  19
BRANCH  14  22
ATOM     22  S   UNL     1      -2.339  -0.221  -1.945  0.00  0.00    -0.083 S 
BRANCH  22  23
ATOM     23  C   UNL     1      -0.573  -0.250  -2.360  0.00  0.00    +0.112 C 
BRANCH  23  24
ATOM     24  C   UNL     1       0.192  -1.017  -1.280  0.00  0.00    +0.162 C 
BRANCH  24  25
ATOM     25  O   UNL     1       0.010  -0.372  -0.018  0.00  0.00    -0.388 OA
ATOM     26  H   UNL     1       0.323   0.542   0.006  0.00  0.00    +0.210 HD
ENDBRANCH  24  25
BRANCH  24  27
ATOM     27  C   UNL     1       1.681  -1.041  -1.630  0.00  0.00    +0.261 C 
BRANCH  27  28
ATOM     28  O   UNL     1       2.379  -1.855  -0.685  0.00  0.00    -0.489 OA
BRANCH  28  29
ATOM     29  C   UNL     1       3.722  -1.983  -0.854  0.00  0.00    +0.124 A 
ATOM     30  C   UNL     1       4.354  -1.338  -1.907  0.00  0.00    +0.049 A 
ATOM     31  C   UNL     1       5.719  -1.470  -2.077  0.00  0.00    -0.047 A 
ATOM     32  C   UNL     1       6.455  -2.243  -1.198  0.00  0.00    +0.004 A 
ATOM     33  C   UNL     1       5.827  -2.887  -0.148  0.00  0.00    +0.007 A 
ATOM     34  C   UNL     1       4.463  -2.754   0.029  0.00  0.00    -0.009 A 
ATOM     35  C   UNL     1       3.780  -3.450   1.178  0.00  0.00    +0.047 C 
ATOM     36  C   UNL     1       6.406  -0.769  -3.221  0.00  0.00    +0.044 C 
ENDBRANCH  28  29
ENDBRANCH  27  28
ENDBRANCH  24  27
ENDBRANCH  23  24
ENDBRANCH  22  23
ENDBRANCH  14  22
TORSDOF 8
