REMARK  Name = ZINC38555511
REMARK  9 active torsions:
REMARK  status: ('A' for Active; 'I' for Inactive)
REMARK    1  A    between atoms: C_1  and  C_2
REMARK    2  A    between atoms: C_5  and  S_8
REMARK    3  A    between atoms: S_8  and  N_11
REMARK    4  A    between atoms: C_16  and  C_18
REMARK    5  A    between atoms: C_18  and  C_19
REMARK    6  A    between atoms: C_19  and  N_20
REMARK    7  A    between atoms: C_21  and  C_23
REMARK    8  A    between atoms: C_26  and  S_29
REMARK    9  A    between atoms: S_29  and  N_32
REMARK                            x       y       z     vdW  Elec       q    Type
REMARK                         _______ _______ _______ _____ _____    ______ ____
ROOT
ATOM      1  C   UNL     1       0.371  -5.863   2.138  0.00  0.00    +0.106 C 
ENDROOT
BRANCH   1   2
ATOM      2  N   UNL     1      -0.514  -5.593   3.274  0.00  0.00    -0.311 N 
ATOM      3  C   UNL     1      -1.599  -6.365   3.481  0.00  0.00    +0.244 C 
ATOM      4  O   UNL     1      -1.843  -7.286   2.726  0.00  0.00    -0.270 OA
ATOM      5  H   UNL     1      -0.319  -4.859   3.876  0.00  0.00    +0.149 HD
BRANCH   3   6
ATOM      6  C   UNL     1      -2.492  -6.093   4.627  0.00  0.00    +0.037 A 
ATOM      7  C   UNL     1      -2.218  -5.033   5.493  0.00  0.00    +0.015 A 
ATOM      8  C   UNL     1      -3.056  -4.784   6.560  0.00  0.00    +0.029 A 
ATOM      9  C   UNL     1      -4.166  -5.582   6.773  0.00  0.00    +0.106 A 
ATOM     10  C   UNL     1      -4.443  -6.634   5.919  0.00  0.00    +0.029 A 
ATOM     11  C   UNL     1      -3.617  -6.891   4.845  0.00  0.00    +0.015 A 
BRANCH   9  12
ATOM     12  S   UNL     1      -5.231  -5.257   8.139  0.00  0.00    +0.061 S 
ATOM     13  O   UNL     1      -5.894  -6.478   8.437  0.00  0.00    -0.153 OA
ATOM     14  O   UNL     1      -4.454  -4.557   9.102  0.00  0.00    -0.153 OA
BRANCH  12  15
ATOM     15  N   UNL     1      -6.394  -4.202   7.613  0.00  0.00    -0.177 NA
ATOM     16  C   UNL     1      -6.303  -2.736   7.654  0.00  0.00    +0.109 C 
ATOM     17  C   UNL     1      -7.625  -2.178   7.085  0.00  0.00    +0.018 C 
ATOM     18  C   UNL     1      -8.612  -3.359   7.280  0.00  0.00    +0.018 C 
ATOM     19  C   UNL     1      -7.690  -4.579   7.020  0.00  0.00    +0.109 C 
ENDBRANCH  12  15
ENDBRANCH   9  12
ENDBRANCH   3   6
ENDBRANCH   1   2
BRANCH   1  20
ATOM     20  C   UNL     1       1.517  -4.849   2.132  0.00  0.00    +0.039 C 
BRANCH  20  26
ATOM     21  N   UNL     1       3.669  -4.313   1.089  0.00  0.00    -0.173 NA
ATOM     22  C   UNL     1       4.807  -4.568   0.195  0.00  0.00    +0.110 C 
ATOM     23  C   UNL     1       5.236  -6.030   0.348  0.00  0.00    +0.017 C 
ATOM     24  C   UNL     1       4.029  -6.939   0.104  0.00  0.00    +0.003 C 
ATOM     25  C   UNL     1       2.946  -6.643   1.144  0.00  0.00    +0.021 C 
ATOM     26  C   UNL     1       2.494  -5.191   1.005  0.00  0.00    +0.081 C 
BRANCH  21  27
ATOM     27  S   UNL     1       3.713  -3.064   2.176  0.00  0.00    +0.061 S 
ATOM     28  O   UNL     1       2.377  -2.600   2.316  0.00  0.00    -0.153 OA
ATOM     29  O   UNL     1       4.777  -2.212   1.773  0.00  0.00    -0.153 OA
BRANCH  27  34
ATOM     30  C   UNL     1       5.297  -5.393   7.512  0.00  0.00    +0.044 C 
ATOM     31  C   UNL     1       4.902  -4.811   6.179  0.00  0.00    -0.050 A 
ATOM     32  C   UNL     1       5.871  -4.511   5.240  0.00  0.00    +0.005 A 
ATOM     33  C   UNL     1       5.508  -3.978   4.018  0.00  0.00    +0.029 A 
ATOM     34  C   UNL     1       4.176  -3.745   3.734  0.00  0.00    +0.106 A 
ATOM     35  C   UNL     1       3.206  -4.045   4.672  0.00  0.00    +0.029 A 
ATOM     36  C   UNL     1       3.568  -4.583   5.893  0.00  0.00    +0.005 A 
ENDBRANCH  27  34
ENDBRANCH  21  27
ENDBRANCH  20  26
ENDBRANCH   1  20
TORSDOF 8
