REMARK  Name = ZINC63383717
REMARK  12 active torsions:
REMARK  status: ('A' for Active; 'I' for Inactive)
REMARK    1  A    between atoms: C_1  and  C_2
REMARK    2  A    between atoms: C_2  and  C_3
REMARK    3  A    between atoms: C_2  and  C_4
REMARK    4  A    between atoms: C_4  and  C_5
REMARK    5  A    between atoms: C_5  and  N_6
REMARK    6  A    between atoms: C_7  and  C_9
REMARK    7  A    between atoms: C_9  and  C_11
REMARK    8  A    between atoms: C_9  and  N_15
REMARK    9  A    between atoms: C_11  and  C_12
REMARK   10  A    between atoms: C_12  and  C_13
REMARK   11  A    between atoms: C_12  and  C_14
REMARK   12  A    between atoms: C_16  and  C_18
REMARK                            x       y       z     vdW  Elec       q    Type
REMARK                         _______ _______ _______ _____ _____    ______ ____
ROOT
ATOM      1  C   UNL     1      -5.058  -8.222   0.022  0.00  0.00    +0.167 C 
ATOM      2  C   UNL     1      -5.355  -8.944  -1.306  0.00  0.00    +0.065 C 
ATOM      3  C   UNL     1      -6.441  -9.953  -1.027  0.00  0.00    -0.034 C 
ATOM      4  C   UNL     1      -7.600 -10.167  -1.645  0.00  0.00    -0.001 A 
ATOM      5  C   UNL     1      -8.183  -9.576  -2.860  0.00  0.00    +0.010 A 
ATOM      6  C   UNL     1      -9.419 -10.022  -3.208  0.00  0.00    +0.001 A 
ATOM      7  C   UNL     1     -10.124 -10.984  -2.478  0.00  0.00    +0.002 A 
ATOM      8  C   UNL     1      -9.662 -11.584  -1.353  0.00  0.00    +0.026 A 
ATOM      9  C   UNL     1      -8.368 -11.204  -0.891  0.00  0.00    +0.043 A 
ATOM     10  N   UNL     1      -7.681 -11.626   0.128  0.00  0.00    -0.375 N 
ATOM     11  C   UNL     1      -6.380 -10.956   0.117  0.00  0.00    +0.131 C 
ATOM     12  C   UNL     1      -6.130 -10.165   1.401  0.00  0.00    +0.134 C 
ATOM     13  N   UNL     1      -5.981  -8.741   1.040  0.00  0.00    -0.276 N 
ATOM     14  C   UNL     1      -6.840  -8.019   1.784  0.00  0.00    +0.248 C 
ATOM     15  O   UNL     1      -6.885  -6.804   1.813  0.00  0.00    -0.270 OA
ATOM     16  C   UNL     1      -7.712  -8.910   2.552  0.00  0.00    +0.042 A 
ATOM     17  C   UNL     1      -7.294 -10.249   2.332  0.00  0.00    -0.013 A 
ATOM     18  C   UNL     1      -7.925 -11.321   2.922  0.00  0.00    +0.006 A 
ATOM     19  C   UNL     1      -9.000 -11.039   3.760  0.00  0.00    +0.000 A 
ATOM     20  C   UNL     1      -9.418  -9.745   3.997  0.00  0.00    +0.001 A 
ATOM     21  C   UNL     1      -8.789  -8.629   3.396  0.00  0.00    +0.013 A 
ATOM     22  H   UNL     1      -7.980 -12.274   0.785  0.00  0.00    +0.160 HD
ENDROOT
BRANCH   1  24
ATOM     23  N   UNL     1      -4.218  -5.898  -0.079  0.00  0.00    -0.302 N 
ATOM     24  C   UNL     1      -5.268  -6.739  -0.146  0.00  0.00    +0.235 C 
ATOM     25  O   UNL     1      -6.383  -6.303  -0.342  0.00  0.00    -0.274 OA
ATOM     26  H   UNL     1      -3.318  -6.251   0.004  0.00  0.00    +0.150 HD
BRANCH  23  27
ATOM     27  C   UNL     1      -4.434  -4.450  -0.130  0.00  0.00    +0.159 C 
BRANCH  27  29
ATOM     28  N   UNL     1      -3.191  -2.471  -0.940  0.00  0.00    -0.314 N 
ATOM     29  C   UNL     1      -3.166  -3.768  -0.575  0.00  0.00    +0.233 C 
ATOM     30  O   UNL     1      -2.123  -4.386  -0.603  0.00  0.00    -0.274 OA
ATOM     31  H   UNL     1      -4.032  -1.989  -0.962  0.00  0.00    +0.149 HD
BRANCH  28  32
ATOM     32  C   UNL     1      -1.947  -1.789  -1.305  0.00  0.00    +0.104 C 
BRANCH  32  33
ATOM     33  C   UNL     1      -2.251  -0.336  -1.677  0.00  0.00    +0.022 C 
BRANCH  33  35
ATOM     34  C   UNL     1      -1.271   1.790  -2.548  0.00  0.00    +0.007 C 
ATOM     35  C   UNL     1      -0.952   0.376  -2.058  0.00  0.00    -0.016 C 
ATOM     36  C   UNL     1      -0.036   0.455  -0.835  0.00  0.00    +0.007 C 
ENDBRANCH  33  35
ENDBRANCH  32  33
ENDBRANCH  28  32
ENDBRANCH  27  29
BRANCH  27  37
ATOM     37  C   UNL     1      -4.826  -3.943   1.259  0.00  0.00    +0.034 C 
BRANCH  37  38
ATOM     38  C   UNL     1      -5.084  -2.436   1.198  0.00  0.00    -0.015 C 
ATOM     39  C   UNL     1      -6.318  -2.164   0.336  0.00  0.00    +0.007 C 
ATOM     40  C   UNL     1      -5.321  -1.902   2.612  0.00  0.00    +0.007 C 
ENDBRANCH  37  38
ENDBRANCH  27  37
ENDBRANCH  23  27
ENDBRANCH   1  24
TORSDOF 8
