REMARK  Name = ZINC67031808
REMARK  5 active torsions:
REMARK  status: ('A' for Active; 'I' for Inactive)
REMARK    1  A    between atoms: C_1  and  N_2
REMARK    2  A    between atoms: C_6  and  C_7
REMARK    3  A    between atoms: N_9  and  N_10
REMARK    4  A    between atoms: C_11  and  C_13
REMARK    5  A    between atoms: C_16  and  C_18
REMARK                            x       y       z     vdW  Elec       q    Type
REMARK                         _______ _______ _______ _____ _____    ______ ____
ROOT
ATOM      1  N   UNL     1      -0.396   1.369   4.115  0.00  0.00    -0.234 N 
ATOM      2  C   UNL     1      -0.600   2.671   4.394  0.00  0.00    +0.233 C 
ATOM      3  O   UNL     1      -0.779   3.463   3.493  0.00  0.00    -0.274 OA
ATOM      4  H   UNL     1      -0.253   0.735   4.836  0.00  0.00    +0.173 HD
ENDROOT
BRANCH   1   7
ATOM      5  C   UNL     1      -0.188  -0.374   2.507  0.00  0.00    +0.277 C 
ATOM      6  O   UNL     1      -0.101  -1.183   3.412  0.00  0.00    -0.267 OA
ATOM      7  N   UNL     1      -0.392   0.929   2.785  0.00  0.00    -0.229 N 
ATOM      8  H   UNL     1      -0.535   1.562   2.065  0.00  0.00    +0.173 HD
BRANCH   5  14
ATOM      9  C   UNL     1       0.070  -3.305   1.538  0.00  0.00    +0.149 C 
ATOM     10  N   UNL     1       0.043  -2.118   0.680  0.00  0.00    -0.345 N 
ATOM     11  C   UNL     1       0.121  -2.119  -0.674  0.00  0.00    +0.101 A 
ATOM     12  C   UNL     1       0.064  -0.840  -1.117  0.00  0.00    +0.036 A 
ATOM     13  C   UNL     1      -0.054  -0.004  -0.001  0.00  0.00    +0.047 A 
ATOM     14  C   UNL     1      -0.072  -0.817   1.113  0.00  0.00    +0.107 A 
ATOM     15 BR   UNL     1       0.133  -0.283  -2.922  0.00  0.00    -0.049 Br
ENDBRANCH   5  14
ENDBRANCH   1   7
BRANCH   2  16
ATOM     16  C   UNL     1      -0.605   3.144   5.825  0.00  0.00    +0.084 C 
ATOM     17  C   UNL     1       0.553   4.035   6.279  0.00  0.00    +0.022 C 
ATOM     18  C   UNL     1      -0.840   4.635   6.075  0.00  0.00    +0.032 C 
BRANCH  18  19
ATOM     19  C   UNL     1      -1.048   5.519   4.872  0.00  0.00    -0.041 A 
ATOM     20  C   UNL     1      -0.064   5.614   3.906  0.00  0.00    +0.004 A 
ATOM     21  C   UNL     1      -0.254   6.424   2.802  0.00  0.00    +0.003 A 
ATOM     22  C   UNL     1      -1.427   7.140   2.663  0.00  0.00    +0.038 A 
ATOM     23  C   UNL     1      -2.414   7.045   3.630  0.00  0.00    +0.124 A 
ATOM     24  C   UNL     1      -2.225   6.229   4.732  0.00  0.00    +0.042 A 
ATOM     25  F   UNL     1      -3.562   7.745   3.495  0.00  0.00    -0.205 F 
ENDBRANCH  18  19
ENDBRANCH   2  16
TORSDOF 4
