REMARK  Name = ZINC62813631
REMARK  3 active torsions:
REMARK  status: ('A' for Active; 'I' for Inactive)
REMARK    1  A    between atoms: N_4  and  C_6
REMARK    2  A    between atoms: C_6  and  C_7
REMARK    3  A    between atoms: C_13  and  C_15
REMARK                            x       y       z     vdW  Elec       q    Type
REMARK                         _______ _______ _______ _____ _____    ______ ____
ROOT
ATOM      1  C   UNL     1       0.921  -2.814   0.054  0.00  0.00    -0.025 C 
ATOM      2  C   UNL     1       1.599  -3.087  -1.291  0.00  0.00    +0.021 C 
ATOM      3  C   UNL     1       0.877  -4.239  -1.997  0.00  0.00    +0.108 C 
ATOM      4  N   UNL     1       0.840  -5.397  -1.094  0.00  0.00    -0.300 N 
ATOM      5  C   UNL     1       0.292  -5.223   0.257  0.00  0.00    +0.108 C 
ATOM      6  C   UNL     1       1.020  -4.059   0.938  0.00  0.00    +0.021 C 
ATOM      7  C   UNL     1       1.300  -6.598  -1.499  0.00  0.00    +0.231 C 
ATOM      8  O   UNL     1       1.750  -6.730  -2.617  0.00  0.00    -0.274 OA
ENDROOT
BRANCH   7   9
ATOM      9  C   UNL     1       1.255  -7.777  -0.561  0.00  0.00    +0.123 C 
ATOM     10  C   UNL     1      -0.157  -8.366  -0.549  0.00  0.00    -0.054 C 
ATOM     11  N   UNL     1      -0.195  -9.527   0.350  0.00  0.00    +0.381 N 
ATOM     12  C   UNL     1       0.742 -10.552  -0.130  0.00  0.00    -0.067 C 
ATOM     13  C   UNL     1       2.161  -9.980  -0.139  0.00  0.00    +0.062 C 
ATOM     14  N   UNL     1       2.207  -8.801  -1.014  0.00  0.00    -0.309 NA
ATOM     15  H   UNL     1       0.068  -9.241   1.281  0.00  0.00    -0.086 HD
ATOM     16  H   UNL     1       2.033  -9.057  -1.975  0.00  0.00    +0.123 HD
ATOM     17  H   UNL     1      -1.129  -9.908   0.367  0.00  0.00    -0.086 HD
ENDBRANCH   7   9
BRANCH   1  18
ATOM     18  C   UNL     1       1.618  -1.641   0.747  0.00  0.00    -0.075 C 
BRANCH  18  22
ATOM     19  C   UNL     1      -0.019   1.536   0.011  0.00  0.00    -0.020 C 
ATOM     20  C   UNL     1       1.468   1.960  -0.001  0.00  0.00    -0.020 C 
ATOM     21  C   UNL     1       2.191   0.705   0.550  0.00  0.00    -0.079 C 
ATOM     22  N   UNL     1       1.421  -0.418  -0.044  0.00  0.00    +0.380 N 
ATOM     23  C   UNL     1       0.002  -0.004   0.002  0.00  0.00    -0.079 C 
ATOM     24  H   UNL     1       1.708  -0.571  -0.999  0.00  0.00    -0.082 HD
ENDBRANCH  18  22
ENDBRANCH   1  18
TORSDOF 3
