REMARK  Name = ZINC39521584
REMARK  7 active torsions:
REMARK  status: ('A' for Active; 'I' for Inactive)
REMARK    1  A    between atoms: C_1  and  O_2
REMARK    2  A    between atoms: O_2  and  C_3
REMARK    3  A    between atoms: C_13  and  S_23
REMARK    4  A    between atoms: N_15  and  C_16
REMARK    5  A    between atoms: C_21  and  O_22
REMARK    6  A    between atoms: S_23  and  O_26
REMARK    7  A    between atoms: O_26  and  C_27
REMARK                            x       y       z     vdW  Elec       q    Type
REMARK                         _______ _______ _______ _____ _____    ______ ____
ROOT
ATOM      1  C   UNL     1      -1.295  -0.603   0.011  0.00  0.00    +0.120 C 
ATOM      2  C   UNL     1      -1.745  -0.825   1.457  0.00  0.00    +0.032 C 
ATOM      3  C   UNL     1      -3.134  -1.465   1.467  0.00  0.00    +0.005 C 
ATOM      4  C   UNL     1      -3.082  -2.809   0.738  0.00  0.00    +0.026 C 
ATOM      5  C   UNL     1      -2.629  -2.590  -0.705  0.00  0.00    +0.039 C 
ATOM      6  C   UNL     1      -1.242  -1.947  -0.718  0.00  0.00    +0.057 C 
ATOM      7  C   UNL     1      -3.625  -1.674  -1.423  0.00  0.00    +0.026 C 
ATOM      8  C   UNL     1      -3.243  -1.572  -2.901  0.00  0.00    +0.006 C 
ATOM      9  C   UNL     1      -3.309  -2.959  -3.544  0.00  0.00    +0.050 C 
ATOM     10  C   UNL     1      -2.308  -3.888  -2.850  0.00  0.00    +0.258 C 
ATOM     11  N   UNL     1      -2.578  -3.879  -1.405  0.00  0.00    -0.297 N 
ENDROOT
BRANCH  11  12
ATOM     12  C   UNL     1      -2.782  -5.077  -0.710  0.00  0.00    +0.074 A 
ATOM     13  C   UNL     1      -4.061  -5.602  -0.591  0.00  0.00    +0.027 A 
ATOM     14  C   UNL     1      -4.260  -6.785   0.096  0.00  0.00    +0.002 A 
ATOM     15  C   UNL     1      -3.188  -7.447   0.664  0.00  0.00    +0.004 A 
ATOM     16  C   UNL     1      -1.911  -6.930   0.549  0.00  0.00    +0.047 A 
ATOM     17  C   UNL     1      -1.702  -5.748  -0.141  0.00  0.00    +0.138 A 
BRANCH  17  18
ATOM     18  O   UNL     1      -0.446  -5.240  -0.260  0.00  0.00    -0.505 OA
ATOM     19  H   UNL     1      -0.195  -4.640   0.455  0.00  0.00    +0.292 HD
ENDBRANCH  17  18
ENDBRANCH  11  12
BRANCH  10  20
ATOM     20  S   UNL     1      -2.493  -5.573  -3.496  0.00  0.00    +0.140 S 
ATOM     21  O   UNL     1      -1.456  -6.406  -2.995  0.00  0.00    -0.135 OA
ATOM     22  O   UNL     1      -3.852  -5.981  -3.418  0.00  0.00    -0.135 OA
BRANCH  20  23
ATOM     23  O   UNL     1      -2.208  -5.453  -4.987  0.00  0.00    -0.345 OA
BRANCH  23  24
ATOM     24  C   UNL     1      -0.891  -5.301  -5.287  0.00  0.00    +0.156 A 
ATOM     25  C   UNL     1      -0.339  -4.031  -5.363  0.00  0.00    +0.048 A 
ATOM     26  C   UNL     1       1.000  -3.879  -5.668  0.00  0.00    +0.004 A 
ATOM     27  C   UNL     1       1.789  -4.991  -5.899  0.00  0.00    +0.000 A 
ATOM     28  C   UNL     1       1.240  -6.258  -5.825  0.00  0.00    +0.004 A 
ATOM     29  C   UNL     1      -0.097  -6.415  -5.513  0.00  0.00    +0.048 A 
ENDBRANCH  23  24
ENDBRANCH  20  23
ENDBRANCH  10  20
BRANCH   1  31
ATOM     30  C   UNL     1      -0.017   1.425   0.010  0.00  0.00    +0.194 C 
ATOM     31  O   UNL     1       0.002  -0.004   0.002  0.00  0.00    -0.380 OA
ENDBRANCH   1  31
TORSDOF 6
