REMARK  Name = ZINC67451057
REMARK  8 active torsions:
REMARK  status: ('A' for Active; 'I' for Inactive)
REMARK    1  A    between atoms: C_1  and  C_2
REMARK    2  A    between atoms: C_2  and  O_3
REMARK    3  A    between atoms: O_3  and  C_4
REMARK    4  A    between atoms: C_9  and  C_10
REMARK    5  A    between atoms: C_10  and  N_11
REMARK    6  A    between atoms: N_11  and  C_12
REMARK    7  A    between atoms: C_12  and  C_13
REMARK    8  A    between atoms: C_24  and  C_27
REMARK                            x       y       z     vdW  Elec       q    Type
REMARK                         _______ _______ _______ _____ _____    ______ ____
ROOT
ATOM      1  C   UNL     1      -3.979  -1.499   0.027  0.00  0.00    -0.042 C 
ENDROOT
BRANCH   1   7
ATOM      2  C   UNL     1      -1.498  -1.849   0.006  0.00  0.00    +0.122 A 
ATOM      3  C   UNL     1      -0.389  -2.683  -0.003  0.00  0.00    +0.053 A 
ATOM      4  C   UNL     1      -0.556  -4.050  -0.007  0.00  0.00    +0.001 A 
ATOM      5  C   UNL     1      -1.827  -4.611   0.005  0.00  0.00    +0.125 A 
ATOM      6  C   UNL     1      -2.936  -3.770   0.009  0.00  0.00    +0.051 A 
ATOM      7  C   UNL     1      -2.771  -2.400   0.016  0.00  0.00    -0.019 A 
ATOM      8  O   UNL     1      -1.764  -5.972   0.021  0.00  0.00    -0.488 OA
ATOM      9  C   UNL     1      -0.462  -6.391  -0.424  0.00  0.00    +0.175 C 
ATOM     10  C   UNL     1       0.436  -5.196  -0.028  0.00  0.00    +0.083 C 
ATOM     11  C   UNL     1      -0.451  -6.603  -1.940  0.00  0.00    +0.052 C 
BRANCH   2  12
ATOM     12  O   UNL     1      -1.339  -0.499   0.012  0.00  0.00    -0.492 OA
BRANCH  12  14
ATOM     13  C   UNL     1      -0.019   1.526   0.010  0.00  0.00    +0.048 C 
ATOM     14  C   UNL     1       0.002  -0.004   0.002  0.00  0.00    +0.225 C 
ENDBRANCH  12  14
ENDBRANCH   2  12
ENDBRANCH   1   7
BRANCH   1  15
ATOM     15  N   UNL     1      -4.239  -1.011  -1.333  0.00  0.00    +0.385 N 
ATOM     16  H   UNL     1      -3.437  -0.495  -1.664  0.00  0.00    -0.085 HD
ATOM     17  H   UNL     1      -4.410  -1.795  -1.945  0.00  0.00    -0.085 HD
BRANCH  15  18
ATOM     18  C   UNL     1      -5.416  -0.133  -1.322  0.00  0.00    -0.025 C 
BRANCH  18  19
ATOM     19  C   UNL     1      -5.683   0.369  -2.718  0.00  0.00    +0.032 A 
ATOM     20  C   UNL     1      -5.085   1.558  -3.164  0.00  0.00    +0.002 A 
ATOM     21  C   UNL     1      -4.231   2.316  -2.347  0.00  0.00    +0.010 A 
ATOM     22  C   UNL     1      -3.680   3.462  -2.833  0.00  0.00    +0.001 A 
ATOM     23  C   UNL     1      -3.949   3.897  -4.130  0.00  0.00    +0.001 A 
ATOM     24  C   UNL     1      -4.773   3.187  -4.951  0.00  0.00    +0.008 A 
ATOM     25  C   UNL     1      -5.358   2.002  -4.485  0.00  0.00    -0.015 A 
ATOM     26  C   UNL     1      -6.216   1.224  -5.283  0.00  0.00    +0.028 A 
ATOM     27  C   UNL     1      -6.745   0.085  -4.756  0.00  0.00    +0.111 A 
ATOM     28  N   UNL     1      -6.469  -0.309  -3.521  0.00  0.00    -0.261 NA
ENDBRANCH  18  19
ENDBRANCH  15  18
ENDBRANCH   1  15
TORSDOF 6
