REMARK  Name = ZINC35486570
REMARK  10 active torsions:
REMARK  status: ('A' for Active; 'I' for Inactive)
REMARK    1  A    between atoms: C_1  and  C_2
REMARK    2  A    between atoms: N_15  and  C_28
REMARK    3  A    between atoms: C_16  and  C_18
REMARK    4  A    between atoms: C_22  and  O_24
REMARK    5  A    between atoms: O_24  and  C_25
REMARK    6  A    between atoms: C_25  and  C_26
REMARK    7  A    between atoms: C_28  and  C_29
REMARK    8  A    between atoms: C_29  and  N_30
REMARK    9  A    between atoms: N_30  and  C_31
REMARK   10  A    between atoms: N_30  and  C_32
REMARK                            x       y       z     vdW  Elec       q    Type
REMARK                         _______ _______ _______ _____ _____    ______ ____
ROOT
ATOM      1  C   UNL     1      -0.018   1.503   0.010  0.00  0.00    +0.044 C 
ATOM      2  C   UNL     1       0.002  -0.004   0.002  0.00  0.00    -0.050 A 
ATOM      3  C   UNL     1       0.006  -0.689  -1.205  0.00  0.00    +0.007 A 
ATOM      4  C   UNL     1       0.021  -2.065  -1.235  0.00  0.00    +0.047 A 
ATOM      5  C   UNL     1       0.035  -2.790  -0.043  0.00  0.00    +0.139 A 
ATOM      6  C   UNL     1       0.037  -2.086   1.172  0.00  0.00    +0.065 A 
ATOM      7  C   UNL     1       0.023  -0.692   1.183  0.00  0.00    +0.018 A 
ATOM      8  C   UNL     1       0.068  -2.849   2.446  0.00  0.00    +0.199 A 
ATOM      9  O   UNL     1      -0.097  -2.332   3.537  0.00  0.00    -0.287 OA
ATOM     10  C   UNL     1       0.314  -4.283   2.265  0.00  0.00    +0.072 A 
ATOM     11  C   UNL     1       0.294  -4.850   1.022  0.00  0.00    +0.199 A 
ATOM     12  O   UNL     1       0.043  -4.141  -0.096  0.00  0.00    -0.450 OA
ATOM     13  C   UNL     1       0.583  -6.288   1.166  0.00  0.00    +0.283 C 
ATOM     14  O   UNL     1       0.643  -7.081   0.247  0.00  0.00    -0.267 OA
ATOM     15  N   UNL     1       0.770  -6.596   2.465  0.00  0.00    -0.285 N 
ATOM     16  C   UNL     1       0.614  -5.362   3.253  0.00  0.00    +0.145 C 
ENDROOT
BRANCH  16  17
ATOM     17  C   UNL     1      -0.527  -5.508   4.226  0.00  0.00    -0.019 A 
ATOM     18  C   UNL     1      -1.669  -6.194   3.855  0.00  0.00    +0.006 A 
ATOM     19  C   UNL     1      -2.717  -6.330   4.745  0.00  0.00    +0.004 A 
ATOM     20  C   UNL     1      -2.627  -5.779   6.009  0.00  0.00    +0.045 A 
ATOM     21  C   UNL     1      -1.483  -5.090   6.385  0.00  0.00    +0.121 A 
ATOM     22  C   UNL     1      -0.429  -4.961   5.491  0.00  0.00    +0.051 A 
BRANCH  21  23
ATOM     23  O   UNL     1      -1.392  -4.548   7.627  0.00  0.00    -0.488 OA
BRANCH  23  24
ATOM     24  C   UNL     1      -2.513  -4.725   8.496  0.00  0.00    +0.256 C 
BRANCH  24  25
ATOM     25  C   UNL     1      -2.232  -4.061   9.820  0.00  0.00    +0.006 C 
ATOM     26  C   UNL     1      -3.151  -3.321  10.389  0.00  0.00    +0.007 C 
ENDBRANCH  24  25
ENDBRANCH  23  24
ENDBRANCH  21  23
ENDBRANCH  16  17
BRANCH  15  27
ATOM     27  C   UNL     1       1.076  -7.926   2.999  0.00  0.00    +0.090 C 
BRANCH  27  28
ATOM     28  C   UNL     1       2.593  -8.120   3.045  0.00  0.00    -0.060 C 
BRANCH  28  29
ATOM     29  N   UNL     1       2.899  -9.454   3.581  0.00  0.00    +0.377 N 
ATOM     30  C   UNL     1       4.348  -9.687   3.514  0.00  0.00    -0.097 C 
ATOM     31  C   UNL     1       2.454  -9.534   4.979  0.00  0.00    -0.097 C 
ATOM     32  H   UNL     1       2.420 -10.154   3.035  0.00  0.00    -0.083 HD
ENDBRANCH  28  29
ENDBRANCH  27  28
ENDBRANCH  15  27
TORSDOF 7
