REMARK  Name = ZINC35990822
REMARK  10 active torsions:
REMARK  status: ('A' for Active; 'I' for Inactive)
REMARK    1  A    between atoms: C_1  and  C_2
REMARK    2  A    between atoms: C_2  and  N_3
REMARK    3  A    between atoms: C_4  and  C_24
REMARK    4  A    between atoms: C_5  and  C_19
REMARK    5  A    between atoms: C_6  and  C_11
REMARK    6  A    between atoms: C_19  and  O_21
REMARK    7  A    between atoms: O_21  and  C_22
REMARK    8  A    between atoms: C_22  and  C_23
REMARK    9  A    between atoms: C_24  and  N_25
REMARK   10  A    between atoms: C_29  and  C_32
REMARK                            x       y       z     vdW  Elec       q    Type
REMARK                         _______ _______ _______ _____ _____    ______ ____
ROOT
ATOM      1  N   UNL     1      -1.452  -0.330   0.170  0.00  0.00    -0.258 N 
ATOM      2  C   UNL     1      -2.134  -0.596   1.323  0.00  0.00    +0.041 C 
ATOM      3  C   UNL     1      -3.363  -1.155   1.292  0.00  0.00    +0.080 C 
ATOM      4  C   UNL     1      -3.958  -1.476  -0.064  0.00  0.00    +0.145 C 
ATOM      5  N   UNL     1      -3.141  -1.150  -1.245  0.00  0.00    -0.288 N 
ATOM      6  C   UNL     1      -1.931  -0.589  -1.053  0.00  0.00    +0.307 C 
ATOM      7  O   UNL     1      -1.250  -0.312  -2.021  0.00  0.00    -0.252 OA
ATOM      8  H   UNL     1      -3.467  -1.332  -2.140  0.00  0.00    +0.151 HD
ENDROOT
BRANCH   4   9
ATOM      9  C   UNL     1      -4.259  -2.952  -0.102  0.00  0.00    -0.004 A 
ATOM     10  C   UNL     1      -3.320  -3.837  -0.599  0.00  0.00    +0.008 A 
ATOM     11  C   UNL     1      -3.595  -5.191  -0.633  0.00  0.00    +0.020 A 
ATOM     12  C   UNL     1      -4.811  -5.662  -0.170  0.00  0.00    +0.042 A 
ATOM     13  C   UNL     1      -5.751  -4.777   0.327  0.00  0.00    +0.040 A 
ATOM     14  C   UNL     1      -5.473  -3.423   0.366  0.00  0.00    +0.048 A 
ATOM     15 CL   UNL     1      -6.649  -2.313   0.996  0.00  0.00    -0.083 Cl
ATOM     16 CL   UNL     1      -5.157  -7.362  -0.214  0.00  0.00    -0.083 Cl
ENDBRANCH   4   9
BRANCH   1  18
ATOM     17  C   UNL     1      -0.256   1.801   0.273  0.00  0.00    +0.025 C 
ATOM     18  C   UNL     1      -0.123   0.277   0.278  0.00  0.00    +0.111 C 
ENDBRANCH   1  18
BRANCH   3  19
ATOM     19  C   UNL     1      -4.071  -1.432   2.485  0.00  0.00    +0.339 C 
ATOM     20  O   UNL     1      -4.054  -2.553   2.956  0.00  0.00    -0.245 OA
BRANCH  19  21
ATOM     21  O   UNL     1      -4.765  -0.452   3.100  0.00  0.00    -0.462 OA
BRANCH  21  22
ATOM     22  C   UNL     1      -5.457  -0.802   4.301  0.00  0.00    +0.229 C 
ATOM     23  C   UNL     1      -6.181   0.429   4.850  0.00  0.00    +0.048 C 
ENDBRANCH  21  22
ENDBRANCH  19  21
ENDBRANCH   3  19
BRANCH   2  24
ATOM     24  C   UNL     1      -1.506  -0.261   2.651  0.00  0.00    +0.136 C 
BRANCH  24  25
ATOM     25  N   UNL     1      -0.334  -1.119   2.869  0.00  0.00    -0.300 NA
ATOM     26  C   UNL     1      -0.732  -2.526   3.022  0.00  0.00    +0.066 C 
ATOM     27  C   UNL     1       0.518  -3.392   3.186  0.00  0.00    -0.067 C 
ATOM     28  N   UNL     1       1.270  -2.947   4.367  0.00  0.00    +0.382 N 
ATOM     29  C   UNL     1       1.682  -1.548   4.189  0.00  0.00    -0.061 C 
ATOM     30  C   UNL     1       0.441  -0.667   4.032  0.00  0.00    +0.069 C 
ATOM     31  C   UNL     1       2.481  -1.092   5.412  0.00  0.00    -0.012 C 
ATOM     32  H   UNL     1       0.686  -3.023   5.186  0.00  0.00    -0.085 HD
ATOM     33  H   UNL     1       2.088  -3.526   4.483  0.00  0.00    -0.085 HD
ENDBRANCH  24  25
ENDBRANCH   2  24
TORSDOF 7
