REMARK  Name = ZINC51839837
REMARK  3 active torsions:
REMARK  status: ('A' for Active; 'I' for Inactive)
REMARK    1  A    between atoms: C_12  and  C_14
REMARK    2  A    between atoms: C_20  and  C_23
REMARK    3  A    between atoms: N_25  and  C_26
REMARK                            x       y       z     vdW  Elec       q    Type
REMARK                         _______ _______ _______ _____ _____    ______ ____
ROOT
ATOM      1  C   UNL     1       2.224   4.049  -0.581  0.00  0.00    +0.302 C 
ATOM      2  O   UNL     1       1.229   3.358  -0.514  0.00  0.00    -0.265 OA
ATOM      3  N   UNL     1       2.120   5.351  -0.916  0.00  0.00    -0.293 N 
ATOM      4  C   UNL     1       3.322   6.171  -1.115  0.00  0.00    +0.108 C 
ATOM      5  C   UNL     1       3.241   6.837  -2.493  0.00  0.00    +0.020 C 
ATOM      6  C   UNL     1       1.926   7.612  -2.604  0.00  0.00    +0.016 C 
ATOM      7  C   UNL     1       0.749   6.644  -2.466  0.00  0.00    +0.092 C 
ATOM      8  C   UNL     1       0.801   5.974  -1.095  0.00  0.00    +0.121 C 
ENDROOT
BRANCH   1  20
ATOM      9  C   UNL     1       6.969   1.245   0.580  0.00  0.00    +0.022 A 
ATOM     10  C   UNL     1       5.786   1.904   0.309  0.00  0.00    +0.025 A 
ATOM     11  C   UNL     1       5.202   2.713   1.277  0.00  0.00    +0.040 A 
ATOM     12  C   UNL     1       5.806   2.858   2.517  0.00  0.00    -0.025 A 
ATOM     13  C   UNL     1       6.993   2.197   2.780  0.00  0.00    +0.025 A 
ATOM     14  C   UNL     1       7.573   1.393   1.816  0.00  0.00    +0.041 A 
ATOM     15 CL   UNL     1       9.061   0.567   2.157  0.00  0.00    -0.084 Cl
ATOM     16  C   UNL     1       5.197   3.718   3.592  0.00  0.00    +0.038 C 
ATOM     17  C   UNL     1       4.223   4.727   2.984  0.00  0.00    +0.024 C 
ATOM     18  C   UNL     1       3.237   3.980   2.076  0.00  0.00    +0.114 C 
ATOM     19  N   UNL     1       4.005   3.376   0.980  0.00  0.00    -0.263 N 
ATOM     20  C   UNL     1       3.565   3.458  -0.292  0.00  0.00    +0.306 C 
ATOM     21  O   UNL     1       4.258   3.052  -1.202  0.00  0.00    -0.265 OA
ENDBRANCH   1  20
BRANCH   7  22
ATOM     22  C   UNL     1      -0.545   7.402  -2.609  0.00  0.00    +0.218 C 
ATOM     23  O   UNL     1      -0.529   8.599  -2.803  0.00  0.00    -0.275 OA
ATOM     24  N   UNL     1      -1.722   6.750  -2.522  0.00  0.00    -0.312 N 
ATOM     25  H   UNL     1      -1.735   5.792  -2.368  0.00  0.00    +0.149 HD
BRANCH  24  26
ATOM     26  C   UNL     1      -2.980   7.487  -2.662  0.00  0.00    +0.073 C 
ATOM     27  C   UNL     1      -4.104   7.157  -1.677  0.00  0.00    +0.024 C 
ATOM     28  C   UNL     1      -4.208   6.706  -3.136  0.00  0.00    +0.024 C 
ENDBRANCH  24  26
ENDBRANCH   7  22
TORSDOF 3
