REMARK  Name = ZINC34463223
REMARK  8 active torsions:
REMARK  status: ('A' for Active; 'I' for Inactive)
REMARK    1  A    between atoms: C_1  and  C_2
REMARK    2  A    between atoms: C_2  and  C_31
REMARK    3  A    between atoms: C_17  and  C_29
REMARK    4  A    between atoms: C_17  and  C_30
REMARK    5  A    between atoms: C_19  and  O_28
REMARK    6  A    between atoms: C_21  and  O_27
REMARK    7  A    between atoms: C_23  and  C_25
REMARK    8  A    between atoms: C_23  and  C_26
REMARK                            x       y       z     vdW  Elec       q    Type
REMARK                         _______ _______ _______ _____ _____    ______ ____
ROOT
ATOM      1  C   UNL     1      -0.592   0.083   1.219  0.00  0.00    +0.012 C 
ATOM      2  C   UNL     1      -0.297  -1.404   1.008  0.00  0.00    -0.021 C 
ATOM      3  C   UNL     1       0.327  -1.606  -0.376  0.00  0.00    +0.090 C 
ATOM      4  C   UNL     1       0.632  -3.080  -0.563  0.00  0.00    +0.225 C 
ATOM      5  O   UNL     1       0.245  -3.677  -1.538  0.00  0.00    -0.289 OA
ATOM      6  C   UNL     1       1.427  -3.772   0.499  0.00  0.00    +0.374 C 
ATOM      7  C   UNL     1       0.964  -3.359   1.860  0.00  0.00    +0.225 C 
ATOM      8  O   UNL     1       0.833  -4.169   2.745  0.00  0.00    -0.289 OA
ATOM      9  C   UNL     1       0.666  -1.890   2.094  0.00  0.00    +0.090 C 
ATOM     10  O   UNL     1       1.329  -5.231   0.344  0.00  0.00    -0.443 OA
ATOM     11  C   UNL     1       2.153  -6.065   1.005  0.00  0.00    +0.113 C 
ATOM     12  C   UNL     1       3.372  -6.068   0.572  0.00  0.00    +0.060 C 
ATOM     13  C   UNL     1       3.855  -5.252  -0.569  0.00  0.00    +0.060 C 
ATOM     14  C   UNL     1       3.582  -3.987  -0.690  0.00  0.00    +0.113 C 
ATOM     15  O   UNL     1       2.857  -3.510   0.333  0.00  0.00    -0.443 OA
ATOM     16  C   UNL     1       4.232  -3.214  -1.793  0.00  0.00    +0.081 C 
ATOM     17  C   UNL     1       5.221  -4.067  -2.578  0.00  0.00    -0.023 C 
ATOM     18  C   UNL     1       5.920  -5.155  -1.756  0.00  0.00    +0.077 C 
ATOM     19  C   UNL     1       4.851  -6.139  -1.264  0.00  0.00    +0.201 C 
ATOM     20  O   UNL     1       5.311  -7.071  -0.272  0.00  0.00    -0.309 OA
ATOM     21  C   UNL     1       4.604  -6.850   0.955  0.00  0.00    +0.201 C 
ATOM     22  C   UNL     1       4.075  -8.107   1.640  0.00  0.00    +0.077 C 
ATOM     23  C   UNL     1       3.019  -7.692   2.672  0.00  0.00    -0.023 C 
ATOM     24  C   UNL     1       1.766  -7.085   2.039  0.00  0.00    +0.081 C 
ATOM     25  C   UNL     1       2.613  -8.925   3.482  0.00  0.00    +0.011 C 
ATOM     26  C   UNL     1       3.638  -6.665   3.622  0.00  0.00    +0.011 C 
ATOM     27  C   UNL     1       4.474  -4.737  -3.733  0.00  0.00    +0.011 C 
ATOM     28  C   UNL     1       6.291  -3.147  -3.170  0.00  0.00    +0.011 C 
ATOM     29  C   UNL     1      -1.602  -2.198   1.094  0.00  0.00    +0.012 C 
ENDROOT
BRANCH  21  30
ATOM     30  O   UNL     1       5.410  -6.085   1.853  0.00  0.00    -0.361 OA
ATOM     31  H   UNL     1       5.706  -5.238   1.492  0.00  0.00    +0.213 HD
ENDBRANCH  21  30
BRANCH  19  32
ATOM     32  O   UNL     1       4.242  -6.813  -2.367  0.00  0.00    -0.361 OA
ATOM     33  H   UNL     1       3.489  -7.369  -2.122  0.00  0.00    +0.213 HD
ENDBRANCH  19  32
TORSDOF 2
