REMARK  Name = ZINC12863999
REMARK  9 active torsions:
REMARK  status: ('A' for Active; 'I' for Inactive)
REMARK    1  A    between atoms: C_1  and  C_2
REMARK    2  A    between atoms: C_5  and  C_8
REMARK    3  A    between atoms: C_8  and  C_10
REMARK    4  A    between atoms: C_8  and  C_33
REMARK    5  A    between atoms: C_10  and  C_11
REMARK    6  A    between atoms: C_11  and  N_69
REMARK    7  A    between atoms: C_12  and  C_13
REMARK    8  A    between atoms: C_12  and  N_69
REMARK    9  A    between atoms: C_25  and  C_32
REMARK                            x       y       z     vdW  Elec       q    Type
REMARK                         _______ _______ _______ _____ _____    ______ ____
ROOT
ATOM      1  N   UNL     1       5.141   4.609  -2.545  0.00  0.00    +0.380 N 
ATOM      2  H   UNL     1       4.397   5.315  -2.489  0.00  0.00    -0.086 HD
ATOM      3  H   UNL     1       4.998   4.027  -3.378  0.00  0.00    -0.086 HD
ENDROOT
BRANCH   1   4
ATOM      4  C   UNL     1       5.094   3.757  -1.342  0.00  0.00    -0.082 C 
BRANCH   4   5
ATOM      5  C   UNL     1       3.729   3.069  -1.268  0.00  0.00    -0.003 C 
BRANCH   5   6
ATOM      6  C   UNL     1       3.672   2.182  -0.023  0.00  0.00    +0.083 C 
BRANCH   6  11
ATOM      7  C   UNL     1      -1.293  -0.775   0.011  0.00  0.00    +0.044 C 
ATOM      8  C   UNL     1       0.002  -0.004   0.002  0.00  0.00    -0.050 A 
ATOM      9  C   UNL     1      -0.017   1.378   0.010  0.00  0.00    +0.003 A 
ATOM     10  C   UNL     1       1.171   2.086   0.002  0.00  0.00    +0.004 A 
ATOM     11  C   UNL     1       2.377   1.411  -0.015  0.00  0.00    -0.037 A 
ATOM     12  C   UNL     1       2.396   0.029  -0.022  0.00  0.00    +0.004 A 
ATOM     13  C   UNL     1       1.208  -0.679  -0.013  0.00  0.00    +0.003 A 
ENDBRANCH   6  11
BRANCH   6  14
ATOM     14  C   UNL     1       3.752   3.043   1.211  0.00  0.00    +0.112 A 
ATOM     15  C   UNL     1       4.703   2.973   2.159  0.00  0.00    +0.045 A 
ATOM     16  C   UNL     1       4.391   3.956   3.127  0.00  0.00    +0.041 A 
ATOM     17  C   UNL     1       3.267   4.568   2.712  0.00  0.00    +0.195 A 
ATOM     18  O   UNL     1       2.888   4.015   1.548  0.00  0.00    -0.467 OA
ENDBRANCH   6  14
ENDBRANCH   5   6
ENDBRANCH   4   5
ENDBRANCH   1   4
BRANCH   1  19
ATOM     19  C   UNL     1       6.448   5.286  -2.642  0.00  0.00    -0.068 C 
BRANCH  19  20
ATOM     20  C   UNL     1       6.467   6.162  -3.896  0.00  0.00    +0.087 C 
ATOM     21  C   UNL     1       7.863   6.831  -4.073  0.00  0.00    +0.042 C 
ATOM     22  C   UNL     1       8.087   6.919  -5.561  0.00  0.00    +0.016 C 
ATOM     23  C   UNL     1       9.171   7.947  -5.872  0.00  0.00    +0.021 C 
ATOM     24  C   UNL     1       9.409   8.014  -7.363  0.00  0.00    -0.073 C 
ATOM     25  C   UNL     1       8.880   7.129  -8.170  0.00  0.00    +0.008 C 
ATOM     26  C   UNL     1      10.278   9.132  -7.896  0.00  0.00    +0.030 C 
ATOM     27  C   UNL     1       9.760  10.463  -7.342  0.00  0.00    +0.005 C 
ATOM     28  C   UNL     1       9.685  10.390  -5.815  0.00  0.00    +0.007 C 
ATOM     29  C   UNL     1       8.674   9.322  -5.401  0.00  0.00    -0.022 C 
ATOM     30  C   UNL     1       8.546   9.277  -3.879  0.00  0.00    +0.052 C 
ATOM     31  C   UNL     1       7.568   8.211  -3.445  0.00  0.00    +0.181 C 
ATOM     32  O   UNL     1       6.198   8.486  -3.855  0.00  0.00    -0.461 OA
ATOM     33  C   UNL     1       5.510   7.328  -3.745  0.00  0.00    +0.309 C 
ATOM     34  O   UNL     1       4.320   7.237  -3.555  0.00  0.00    -0.251 OA
ATOM     35  C   UNL     1       7.312   9.633  -6.024  0.00  0.00    +0.012 C 
ENDBRANCH  19  20
ENDBRANCH   1  19
TORSDOF 7
