REMARK  Name = ZINC36500803
REMARK  16 active torsions:
REMARK  status: ('A' for Active; 'I' for Inactive)
REMARK    1  A    between atoms: C_1  and  C_2
REMARK    2  A    between atoms: C_2  and  C_3
REMARK    3  A    between atoms: C_2  and  C_4
REMARK    4  A    between atoms: C_2  and  C_5
REMARK    5  A    between atoms: C_5  and  C_6
REMARK    6  A    between atoms: C_6  and  C_7
REMARK    7  A    between atoms: C_6  and  C_8
REMARK    8  A    between atoms: C_6  and  N_9
REMARK    9  A    between atoms: C_10  and  C_12
REMARK   10  A    between atoms: C_12  and  C_14
REMARK   11  A    between atoms: C_12  and  N_20
REMARK   12  A    between atoms: N_20  and  C_21
REMARK   13  A    between atoms: C_21  and  C_22
REMARK   14  A    between atoms: C_27  and  C_29
REMARK   15  A    between atoms: C_33  and  O_36
REMARK   16  A    between atoms: C_34  and  O_35
REMARK                            x       y       z     vdW  Elec       q    Type
REMARK                         _______ _______ _______ _____ _____    ______ ____
ROOT
ATOM      1  C   UNL     1       5.073   0.047  -5.710  0.00  0.00    +0.193 C 
ENDROOT
BRANCH   1   2
ATOM      2  C   UNL     1       4.408  -1.291  -5.510  0.00  0.00    -0.018 A 
ATOM      3  C   UNL     1       5.047  -2.278  -4.783  0.00  0.00    +0.006 A 
ATOM      4  C   UNL     1       4.438  -3.505  -4.599  0.00  0.00    +0.000 A 
ATOM      5  C   UNL     1       3.189  -3.745  -5.142  0.00  0.00    +0.000 A 
ATOM      6  C   UNL     1       2.550  -2.757  -5.869  0.00  0.00    +0.000 A 
ATOM      7  C   UNL     1       3.158  -1.529  -6.049  0.00  0.00    +0.006 A 
ENDBRANCH   1   2
BRANCH   1   9
ATOM      8  N   UNL     1       3.387   1.175  -4.294  0.00  0.00    -0.308 N 
ATOM      9  C   UNL     1       4.688   0.973  -4.585  0.00  0.00    +0.239 C 
ATOM     10  O   UNL     1       5.548   1.536  -3.942  0.00  0.00    -0.273 OA
ATOM     11  H   UNL     1       2.702   0.669  -4.758  0.00  0.00    +0.149 HD
BRANCH   8  12
ATOM     12  C   UNL     1       3.009   2.157  -3.275  0.00  0.00    +0.030 C 
ATOM     13  C   UNL     1       3.870   3.412  -3.431  0.00  0.00    +0.031 C 
ATOM     14  C   UNL     1       3.228   1.558  -1.883  0.00  0.00    +0.031 C 
BRANCH  12  15
ATOM     15  C   UNL     1       1.534   2.526  -3.445  0.00  0.00    +0.031 C 
BRANCH  15  17
ATOM     16  C   UNL     1       0.934   1.275  -5.522  0.00  0.00    +0.010 C 
ATOM     17  C   UNL     1       1.210   2.660  -4.934  0.00  0.00    -0.036 C 
ATOM     18  C   UNL     1       2.399   3.294  -5.659  0.00  0.00    +0.010 C 
ATOM     19  C   UNL     1      -0.025   3.545  -5.109  0.00  0.00    +0.010 C 
ENDBRANCH  15  17
ENDBRANCH  12  15
ENDBRANCH   8  12
ENDBRANCH   1   9
BRANCH   1  20
ATOM     20  N   UNL     1       6.527  -0.127  -5.723  0.00  0.00    -0.275 N 
ATOM     21  C   UNL     1       7.135  -0.637  -6.813  0.00  0.00    +0.252 C 
ATOM     22  O   UNL     1       8.308  -0.953  -6.763  0.00  0.00    -0.270 OA
BRANCH  21  23
ATOM     23  C   UNL     1       6.377  -0.811  -8.067  0.00  0.00    +0.082 A 
ATOM     24  C   UNL     1       4.980  -0.835  -8.045  0.00  0.00    +0.017 A 
ATOM     25  C   UNL     1       4.275  -0.997  -9.218  0.00  0.00    +0.005 A 
ATOM     26  C   UNL     1       4.945  -1.138 -10.423  0.00  0.00    +0.049 A 
ATOM     27  C   UNL     1       6.329  -1.118 -10.460  0.00  0.00    +0.159 A 
ATOM     28  C   UNL     1       7.054  -0.949  -9.284  0.00  0.00    +0.171 A 
BRANCH  28  29
ATOM     29  O   UNL     1       8.411  -0.922  -9.318  0.00  0.00    -0.503 OA
ATOM     30  H   UNL     1       8.824  -1.790  -9.217  0.00  0.00    +0.292 HD
ENDBRANCH  28  29
BRANCH  27  31
ATOM     31  O   UNL     1       6.979  -1.258 -11.646  0.00  0.00    -0.503 OA
ATOM     32  H   UNL     1       7.151  -0.422 -12.101  0.00  0.00    +0.292 HD
ENDBRANCH  27  31
ENDBRANCH  21  23
BRANCH  20  33
ATOM     33  C   UNL     1       7.321   0.253  -4.552  0.00  0.00    +0.183 C 
BRANCH  33  34
ATOM     34  C   UNL     1       7.984   1.582  -4.804  0.00  0.00    +0.122 A 
ATOM     35  C   UNL     1       7.430   2.790  -4.597  0.00  0.00    +0.046 A 
ATOM     36  C   UNL     1       8.397   3.753  -4.963  0.00  0.00    +0.041 A 
ATOM     37  C   UNL     1       9.485   3.077  -5.373  0.00  0.00    +0.195 A 
ATOM     38  O   UNL     1       9.231   1.762  -5.269  0.00  0.00    -0.466 OA
ENDBRANCH  33  34
ENDBRANCH  20  33
ENDBRANCH   1  20
TORSDOF 11
