REMARK  Name = ZINC24108157
REMARK  14 active torsions:
REMARK  status: ('A' for Active; 'I' for Inactive)
REMARK    1  A    between atoms: C_1  and  C_2
REMARK    2  A    between atoms: C_2  and  C_3
REMARK    3  A    between atoms: C_6  and  C_9
REMARK    4  A    between atoms: C_11  and  C_14
REMARK    5  A    between atoms: C_14  and  S_15
REMARK    6  A    between atoms: S_15  and  C_16
REMARK    7  A    between atoms: C_19  and  C_28
REMARK    8  A    between atoms: N_20  and  C_21
REMARK    9  A    between atoms: C_21  and  C_22
REMARK   10  A    between atoms: C_28  and  C_30
REMARK   11  A    between atoms: C_28  and  N_32
REMARK   12  A    between atoms: C_30  and  C_31
REMARK   13  A    between atoms: N_32  and  C_33
REMARK   14  A    between atoms: N_32  and  C_34
REMARK                            x       y       z     vdW  Elec       q    Type
REMARK                         _______ _______ _______ _____ _____    ______ ____
ROOT
ATOM      1  C   UNL     1       1.702   1.313   1.143  0.00  0.00    +0.192 A 
ATOM      2  N   UNL     1       1.055   0.171   1.164  0.00  0.00    -0.123 NA
ATOM      3  N   UNL     1      -0.169   0.356   0.818  0.00  0.00    -0.135 NA
ATOM      4  C   UNL     1      -0.374   1.616   0.557  0.00  0.00    +0.121 A 
ATOM      5  N   UNL     1       0.810   2.271   0.754  0.00  0.00    -0.303 N 
ENDROOT
BRANCH   1   6
ATOM      6  S   UNL     1       3.401   1.562   1.540  0.00  0.00    -0.076 S 
BRANCH   6   7
ATOM      7  C   UNL     1       3.881  -0.135   1.946  0.00  0.00    +0.176 C 
BRANCH   7  10
ATOM      8  C   UNL     1       7.171  -0.120   3.392  0.00  0.00    +0.202 A 
ATOM      9  N   UNL     1       5.831  -0.011   3.531  0.00  0.00    -0.191 NA
ATOM     10  C   UNL     1       5.339  -0.167   2.328  0.00  0.00    +0.238 A 
ATOM     11  O   UNL     1       6.372  -0.354   1.501  0.00  0.00    -0.337 OA
ATOM     12  N   UNL     1       7.413  -0.324   2.123  0.00  0.00    -0.056 NA
BRANCH   8  16
ATOM     13  C   UNL     1      10.063   0.168   6.497  0.00  0.00    -0.048 A 
ATOM     14  C   UNL     1      10.471  -0.053   5.194  0.00  0.00    +0.004 A 
ATOM     15  C   UNL     1       9.537  -0.147   4.182  0.00  0.00    +0.012 A 
ATOM     16  C   UNL     1       8.181  -0.019   4.476  0.00  0.00    +0.022 A 
ATOM     17  C   UNL     1       7.776   0.208   5.790  0.00  0.00    +0.012 A 
ATOM     18  C   UNL     1       8.718   0.295   6.794  0.00  0.00    +0.004 A 
BRANCH  13  20
ATOM     19  C   UNL     1      11.523   1.728   7.756  0.00  0.00    +0.009 C 
ATOM     20  C   UNL     1      11.088   0.270   7.597  0.00  0.00    +0.032 C 
ENDBRANCH  13  20
ENDBRANCH   8  16
ENDBRANCH   7  10
ENDBRANCH   6   7
ENDBRANCH   1   6
BRANCH   5  21
ATOM     21  C   UNL     1       1.068   3.703   0.584  0.00  0.00    +0.160 C 
BRANCH  21  22
ATOM     22  C   UNL     1       0.806   4.418   1.884  0.00  0.00    -0.028 A 
ATOM     23  C   UNL     1      -0.454   4.919   2.156  0.00  0.00    +0.005 A 
ATOM     24  C   UNL     1      -0.696   5.571   3.350  0.00  0.00    +0.000 A 
ATOM     25  C   UNL     1       0.325   5.732   4.269  0.00  0.00    +0.000 A 
ATOM     26  C   UNL     1       1.586   5.236   3.995  0.00  0.00    +0.000 A 
ATOM     27  C   UNL     1       1.826   4.579   2.803  0.00  0.00    +0.005 A 
ENDBRANCH  21  22
ENDBRANCH   5  21
BRANCH   4  28
ATOM     28  C   UNL     1      -1.674   2.236   0.113  0.00  0.00    +0.000 C 
BRANCH  28  29
ATOM     29  N   UNL     1      -2.097   1.629  -1.156  0.00  0.00    +0.383 N 
ATOM     30  C   UNL     1      -1.184   1.998  -2.246  0.00  0.00    -0.096 C 
ATOM     31  C   UNL     1      -2.208   0.170  -1.032  0.00  0.00    -0.096 C 
ATOM     32  H   UNL     1      -3.094   2.024  -1.403  0.00  0.00    -0.082 HD
ENDBRANCH  28  29
BRANCH  28  33
ATOM     33  C   UNL     1      -2.745   1.990   1.178  0.00  0.00    -0.011 C 
ATOM     34  C   UNL     1      -4.031   2.722   0.786  0.00  0.00    +0.002 C 
ENDBRANCH  28  33
ENDBRANCH   4  28
TORSDOF 10
