REMARK  Name = ZINC01805641
REMARK  10 active torsions:
REMARK  status: ('A' for Active; 'I' for Inactive)
REMARK    1  A    between atoms: C_1  and  C_2
REMARK    2  A    between atoms: C_2  and  C_25
REMARK    3  A    between atoms: C_4  and  N_9
REMARK    4  A    between atoms: C_6  and  C_7
REMARK    5  A    between atoms: C_6  and  C_8
REMARK    6  A    between atoms: C_10  and  C_12
REMARK    7  A    between atoms: N_14  and  N_15
REMARK    8  A    between atoms: C_16  and  C_17
REMARK    9  A    between atoms: C_20  and  O_23
REMARK   10  A    between atoms: O_23  and  C_24
REMARK                            x       y       z     vdW  Elec       q    Type
REMARK                         _______ _______ _______ _____ _____    ______ ____
ROOT
ATOM      1  N   UNL     1      -2.293  -2.875   0.009  0.00  0.00    -0.305 N 
ATOM      2  C   UNL     1      -1.136  -2.185   0.001  0.00  0.00    +0.301 C 
ATOM      3  O   UNL     1      -0.076  -2.778  -0.012  0.00  0.00    -0.265 OA
ATOM      4  H   UNL     1      -3.140  -2.402   0.019  0.00  0.00    +0.149 HD
ENDROOT
BRANCH   1   8
ATOM      5  C   UNL     1      -2.652  -6.929   1.696  0.00  0.00    -0.010 C 
ATOM      6  C   UNL     1      -3.586  -6.394   0.604  0.00  0.00    -0.072 C 
ATOM      7  C   UNL     1      -3.569  -4.868   0.620  0.00  0.00    +0.009 C 
ATOM      8  C   UNL     1      -2.274  -4.343   0.000  0.00  0.00    +0.071 C 
ATOM      9  C   UNL     1      -2.191  -4.838  -1.444  0.00  0.00    +0.009 C 
ATOM     10  C   UNL     1      -2.189  -6.364  -1.483  0.00  0.00    -0.072 C 
ATOM     11  C   UNL     1      -0.816  -6.887  -1.046  0.00  0.00    -0.010 C 
ATOM     12  C   UNL     1      -2.394  -6.791  -2.954  0.00  0.00    -0.010 C 
ATOM     13  C   UNL     1      -5.018  -6.847   0.966  0.00  0.00    -0.010 C 
ATOM     14  N   UNL     1      -3.288  -7.011  -0.717  0.00  0.00    +0.386 N 
ATOM     15  H   UNL     1      -4.141  -6.969  -1.287  0.00  0.00    -0.084 HD
ATOM     16  H   UNL     1      -3.030  -7.992  -0.558  0.00  0.00    -0.084 HD
ENDBRANCH   1   8
BRANCH   2  17
ATOM     17  C   UNL     1      -1.156  -0.694   0.009  0.00  0.00    +0.318 C 
ATOM     18  O   UNL     1      -2.216  -0.101   0.023  0.00  0.00    -0.263 OA
ATOM     19  N   UNL     1       0.002  -0.004   0.002  0.00  0.00    -0.199 N 
ATOM     20  H   UNL     1       0.849  -0.478  -0.009  0.00  0.00    +0.178 HD
BRANCH  19  21
ATOM     21  N   UNL     1      -0.017   1.397   0.010  0.00  0.00    -0.187 NA
ATOM     22  C   UNL     1       1.099   2.062   0.003  0.00  0.00    +0.138 C 
BRANCH  22  23
ATOM     23  C   UNL     1       1.079   3.535   0.011  0.00  0.00    -0.005 A 
ATOM     24  C   UNL     1      -0.139   4.220   0.020  0.00  0.00    +0.013 A 
ATOM     25  C   UNL     1      -0.153   5.597   0.034  0.00  0.00    +0.046 A 
ATOM     26  C   UNL     1       1.042   6.306   0.026  0.00  0.00    +0.120 A 
ATOM     27  C   UNL     1       2.255   5.630   0.011  0.00  0.00    +0.046 A 
ATOM     28  C   UNL     1       2.279   4.252   0.003  0.00  0.00    +0.013 A 
BRANCH  26  29
ATOM     29  O   UNL     1       1.023   7.664   0.033  0.00  0.00    -0.495 OA
ATOM     30  C   UNL     1      -0.259   8.295   0.049  0.00  0.00    +0.277 C 
ENDBRANCH  26  29
ENDBRANCH  22  23
ENDBRANCH  19  21
ENDBRANCH   2  17
TORSDOF 5
