REMARK  Name = ZINC24347200
REMARK  8 active torsions:
REMARK  status: ('A' for Active; 'I' for Inactive)
REMARK    1  A    between atoms: C_1  and  C_2
REMARK    2  A    between atoms: C_2  and  C_25
REMARK    3  A    between atoms: N_5  and  C_9
REMARK    4  A    between atoms: C_9  and  C_10
REMARK    5  A    between atoms: C_10  and  C_12
REMARK    6  A    between atoms: C_10  and  O_24
REMARK    7  A    between atoms: C_12  and  O_13
REMARK    8  A    between atoms: O_13  and  C_14
REMARK                            x       y       z     vdW  Elec       q    Type
REMARK                         _______ _______ _______ _____ _____    ______ ____
ROOT
ATOM      1  C   UNL     1      -2.576   9.454   0.197  0.00  0.00    +0.152 C 
ENDROOT
BRANCH   1   6
ATOM      2  C   UNL     1      -6.090  12.138   1.782  0.00  0.00    +0.050 C 
ATOM      3  C   UNL     1      -5.920  10.748   1.165  0.00  0.00    +0.168 C 
ATOM      4  C   UNL     1      -4.560  10.174   1.511  0.00  0.00    +0.254 C 
ATOM      5  O   UNL     1      -4.128   9.928   2.616  0.00  0.00    -0.272 OA
ATOM      6  N   UNL     1      -3.931   9.994   0.333  0.00  0.00    -0.221 N 
ATOM      7  C   UNL     1      -4.694  10.375  -0.698  0.00  0.00    +0.310 C 
ATOM      8  O   UNL     1      -4.342  10.312  -1.859  0.00  0.00    -0.252 OA
ATOM      9  N   UNL     1      -5.897  10.832  -0.305  0.00  0.00    -0.279 N 
ATOM     10  H   UNL     1      -6.773  11.218  -0.848  0.00  0.00    +0.152 HD
BRANCH   3  11
ATOM     11  C   UNL     1      -7.018   9.825   1.630  0.00  0.00    +0.137 A 
ATOM     12  C   UNL     1      -8.224   9.686   1.052  0.00  0.00    +0.047 A 
ATOM     13  C   UNL     1      -8.932   8.724   1.809  0.00  0.00    +0.041 A 
ATOM     14  C   UNL     1      -8.115   8.333   2.804  0.00  0.00    +0.195 A 
ATOM     15  O   UNL     1      -6.955   8.999   2.687  0.00  0.00    -0.465 OA
ENDBRANCH   3  11
ENDBRANCH   1   6
BRANCH   1  16
ATOM     16  C   UNL     1      -2.644   7.931   0.065  0.00  0.00    +0.170 C 
BRANCH  16  17
ATOM     17  O   UNL     1      -3.311   7.588  -1.151  0.00  0.00    -0.387 OA
ATOM     18  H   UNL     1      -3.456   6.531  -1.419  0.00  0.00    +0.210 HD
ENDBRANCH  16  17
BRANCH  16  19
ATOM     19  C   UNL     1      -1.227   7.356   0.049  0.00  0.00    +0.262 C 
BRANCH  19  20
ATOM     20  O   UNL     1      -1.292   5.929   0.044  0.00  0.00    -0.489 OA
BRANCH  20  21
ATOM     21  C   UNL     1      -0.111   5.258   0.030  0.00  0.00    +0.128 A 
ATOM     22  C   UNL     1       1.071   5.944   0.021  0.00  0.00    +0.046 A 
ATOM     23  C   UNL     1       2.289   5.271   0.007  0.00  0.00    +0.004 A 
ATOM     24  C   UNL     1       2.340   3.911  -0.000  0.00  0.00    +0.009 A 
ATOM     25  C   UNL     1       1.147   3.168   0.008  0.00  0.00    -0.014 A 
ATOM     26  C   UNL     1      -0.096   3.848   0.023  0.00  0.00    +0.024 A 
ATOM     27  C   UNL     1      -1.288   3.106   0.030  0.00  0.00    +0.012 A 
ATOM     28  C   UNL     1      -1.235   1.746   0.017  0.00  0.00    +0.001 A 
ATOM     29  C   UNL     1      -0.013   1.076   0.008  0.00  0.00    +0.001 A 
ATOM     30  C   UNL     1       1.163   1.762   0.000  0.00  0.00    +0.008 A 
ENDBRANCH  20  21
ENDBRANCH  19  20
ENDBRANCH  16  19
ENDBRANCH   1  16
TORSDOF 7
