REMARK  Name = ZINC43285871
REMARK  7 active torsions:
REMARK  status: ('A' for Active; 'I' for Inactive)
REMARK    1  A    between atoms: C_1  and  C_2
REMARK    2  A    between atoms: C_2  and  C_4
REMARK    3  A    between atoms: C_2  and  N_22
REMARK    4  A    between atoms: C_4  and  C_6
REMARK    5  A    between atoms: C_4  and  N_12
REMARK    6  A    between atoms: C_15  and  C_18
REMARK    7  A    between atoms: N_20  and  C_21
REMARK                            x       y       z     vdW  Elec       q    Type
REMARK                         _______ _______ _______ _____ _____    ______ ____
ROOT
ATOM      1  C   UNL     1       0.742  -0.511   1.242  0.00  0.00    +0.079 C 
ENDROOT
BRANCH   1   2
ATOM      2  C   UNL     1       1.183  -1.950   1.311  0.00  0.00    +0.006 A 
ATOM      3  C   UNL     1       2.296  -2.528   0.796  0.00  0.00    +0.028 A 
ATOM      4  C   UNL     1       2.497  -3.883   0.986  0.00  0.00    +0.025 A 
ATOM      5  C   UNL     1       1.575  -4.593   1.682  0.00  0.00    +0.060 A 
ATOM      6  S   UNL     1       0.380  -3.335   2.101  0.00  0.00    -0.099 S 
ATOM      7 BR   UNL     1       4.034  -4.732   0.285  0.00  0.00    -0.050 Br
ENDBRANCH   1   2
BRANCH   1   8
ATOM      8  N   UNL     1       0.385  -0.043   2.587  0.00  0.00    -0.296 NA
ATOM      9  C   UNL     1      -0.815  -0.731   3.083  0.00  0.00    +0.085 C 
ATOM     10  C   UNL     1      -1.241  -0.117   4.418  0.00  0.00    +0.028 C 
ATOM     11  C   UNL     1      -0.097  -0.256   5.426  0.00  0.00    +0.077 C 
ATOM     12  C   UNL     1       1.153   0.427   4.865  0.00  0.00    +0.028 C 
ATOM     13  C   UNL     1       1.510  -0.202   3.516  0.00  0.00    +0.085 C 
BRANCH  11  14
ATOM     14  C   UNL     1      -0.488   0.399   6.726  0.00  0.00    +0.216 C 
ATOM     15  O   UNL     1      -1.575   0.926   6.836  0.00  0.00    -0.276 OA
ATOM     16  N   UNL     1       0.370   0.400   7.765  0.00  0.00    -0.318 N 
ATOM     17  C   UNL     1      -0.011   1.036   9.029  0.00  0.00    +0.128 C 
ATOM     18  H   UNL     1       1.239  -0.022   7.677  0.00  0.00    +0.148 HD
ENDBRANCH  11  14
ENDBRANCH   1   8
BRANCH   1  20
ATOM     19  C   UNL     1      -0.922   1.067   0.250  0.00  0.00    -0.012 C 
ATOM     20  C   UNL     1      -0.474  -0.394   0.321  0.00  0.00    -0.056 C 
BRANCH  20  21
ATOM     21  N   UNL     1      -0.117  -0.863  -1.025  0.00  0.00    +0.381 N 
ATOM     22  H   UNL     1       0.636  -0.298  -1.389  0.00  0.00    -0.090 HD
ATOM     23  H   UNL     1       0.178  -1.826  -0.978  0.00  0.00    -0.090 HD
ATOM     24  H   UNL     1      -0.919  -0.786  -1.632  0.00  0.00    -0.090 HD
ENDBRANCH  20  21
ENDBRANCH   1  20
TORSDOF 5
