REMARK  Name = ZINC14545083
REMARK  6 active torsions:
REMARK  status: ('A' for Active; 'I' for Inactive)
REMARK    1  A    between atoms: C_1  and  C_2
REMARK    2  A    between atoms: C_2  and  C_3
REMARK    3  A    between atoms: C_3  and  C_5
REMARK    4  A    between atoms: C_3  and  N_6
REMARK    5  A    between atoms: C_7  and  C_9
REMARK    6  A    between atoms: C_16  and  C_25
REMARK                            x       y       z     vdW  Elec       q    Type
REMARK                         _______ _______ _______ _____ _____    ______ ____
ROOT
ATOM      1  C   UNL     1       3.849  -2.062   0.414  0.00  0.00    +0.058 A 
ATOM      2  C   UNL     1       4.944  -2.829   0.021  0.00  0.00    +0.015 A 
ATOM      3  C   UNL     1       5.912  -2.285  -0.793  0.00  0.00    +0.001 A 
ATOM      4  C   UNL     1       5.799  -0.970  -1.216  0.00  0.00    +0.006 A 
ATOM      5  C   UNL     1       4.726  -0.196  -0.833  0.00  0.00    -0.019 A 
ATOM      6  C   UNL     1       3.721  -0.726  -0.018  0.00  0.00    +0.044 A 
ATOM      7  N   UNL     1       2.593  -0.007   0.397  0.00  0.00    -0.336 N 
ATOM      8  C   UNL     1       2.512   1.403  -0.015  0.00  0.00    +0.107 C 
ATOM      9  C   UNL     1       3.065   1.489  -1.422  0.00  0.00    +0.029 C 
ATOM     10  C   UNL     1       4.593   1.214  -1.261  0.00  0.00    +0.049 C 
ATOM     11  C   UNL     1       5.158   1.705  -2.542  0.00  0.00    -0.023 C 
ATOM     12  C   UNL     1       4.374   2.672  -3.006  0.00  0.00    -0.030 C 
ATOM     13  C   UNL     1       3.183   2.875  -2.067  0.00  0.00    +0.033 C 
ATOM     14  H   UNL     1       2.430  -0.104   1.388  0.00  0.00    +0.147 HD
ENDROOT
BRANCH   8  15
ATOM     15  C   UNL     1       1.076   1.861   0.002  0.00  0.00    -0.002 A 
ATOM     16  C   UNL     1      -0.013   1.076   0.008  0.00  0.00    +0.089 A 
ATOM     17  N   UNL     1      -1.144   1.846   0.017  0.00  0.00    -0.360 N 
ATOM     18  H   UNL     1      -2.051   1.503   0.019  0.00  0.00    +0.165 HD
ATOM     19  C   UNL     1      -0.802   3.180   0.027  0.00  0.00    +0.047 A 
ATOM     20  C   UNL     1       0.604   3.248   0.014  0.00  0.00    +0.005 A 
ATOM     21  C   UNL     1       1.241   4.490   0.015  0.00  0.00    +0.010 A 
ATOM     22  C   UNL     1       0.495   5.635   0.028  0.00  0.00    +0.001 A 
ATOM     23  C   UNL     1      -0.891   5.573   0.041  0.00  0.00    +0.002 A 
ATOM     24  C   UNL     1      -1.541   4.358   0.040  0.00  0.00    +0.026 A 
ENDBRANCH   8  15
BRANCH   1  26
ATOM     25  N   UNL     1       2.935  -3.929   1.702  0.00  0.00    -0.309 N 
ATOM     26  C   UNL     1       2.817  -2.652   1.287  0.00  0.00    +0.246 C 
ATOM     27  O   UNL     1       1.860  -1.986   1.632  0.00  0.00    -0.270 OA
ATOM     28  H   UNL     1       3.699  -4.460   1.427  0.00  0.00    +0.149 HD
BRANCH  25  29
ATOM     29  C   UNL     1       1.910  -4.514   2.569  0.00  0.00    +0.070 C 
ATOM     30  C   UNL     1       2.215  -4.166   4.027  0.00  0.00    +0.028 C 
BRANCH  29  32
ATOM     31  C   UNL     1       1.477  -6.386   0.971  0.00  0.00    +0.005 C 
ATOM     32  C   UNL     1       1.905  -6.035   2.398  0.00  0.00    +0.018 C 
ENDBRANCH  29  32
ENDBRANCH  25  29
ENDBRANCH   1  26
TORSDOF 4
