REMARK  Name = ZINC58467272
REMARK  12 active torsions:
REMARK  status: ('A' for Active; 'I' for Inactive)
REMARK    1  A    between atoms: C_1  and  N_2
REMARK    2  A    between atoms: N_2  and  S_3
REMARK    3  A    between atoms: S_3  and  C_6
REMARK    4  A    between atoms: C_6  and  C_7
REMARK    5  A    between atoms: C_10  and  C_13
REMARK    6  A    between atoms: C_13  and  N_14
REMARK    7  A    between atoms: N_17  and  C_18
REMARK    8  A    between atoms: C_18  and  C_19
REMARK    9  A    between atoms: C_19  and  C_21
REMARK   10  A    between atoms: C_19  and  N_26
REMARK   11  A    between atoms: N_26  and  C_27
REMARK   12  A    between atoms: N_26  and  C_28
REMARK                            x       y       z     vdW  Elec       q    Type
REMARK                         _______ _______ _______ _____ _____    ______ ____
ROOT
ATOM      1  N   UNL     1       3.297  -3.896   6.654  0.00  0.00    -0.295 N 
ATOM      2  C   UNL     1       3.893  -4.675   7.578  0.00  0.00    +0.300 C 
ATOM      3  O   UNL     1       3.418  -4.766   8.694  0.00  0.00    -0.253 OA
ATOM      4  N   UNL     1       5.015  -5.353   7.266  0.00  0.00    -0.301 N 
ATOM      5  H   UNL     1       3.676  -3.824   5.764  0.00  0.00    +0.151 HD
ATOM      6  H   UNL     1       5.394  -5.280   6.376  0.00  0.00    +0.150 HD
ENDROOT
BRANCH   1   7
ATOM      7  C   UNL     1       2.077  -3.159   6.993  0.00  0.00    +0.141 C 
BRANCH   7  11
ATOM      8  C   UNL     1       0.769  -0.926   3.595  0.00  0.00    -0.025 A 
ATOM      9  C   UNL     1       0.320  -2.219   3.787  0.00  0.00    +0.005 A 
ATOM     10  C   UNL     1       0.743  -2.942   4.886  0.00  0.00    +0.005 A 
ATOM     11  C   UNL     1       1.616  -2.372   5.794  0.00  0.00    -0.030 A 
ATOM     12  C   UNL     1       2.067  -1.079   5.601  0.00  0.00    +0.005 A 
ATOM     13  C   UNL     1       1.646  -0.357   4.499  0.00  0.00    +0.005 A 
BRANCH   8  14
ATOM     14  C   UNL     1       0.307  -0.137   2.396  0.00  0.00    +0.220 C 
BRANCH  14  15
ATOM     15  S   UNL     1       1.444  -0.422   1.011  0.00  0.00    +0.033 S 
ATOM     16  O   UNL     1       1.340  -1.766   0.561  0.00  0.00    -0.158 OA
ATOM     17  O   UNL     1       2.713   0.151   1.293  0.00  0.00    -0.158 OA
BRANCH  15  19
ATOM     18  C   UNL     1       0.807   1.948  -0.124  0.00  0.00    +0.127 C 
ATOM     19  N   UNL     1       0.836   0.487  -0.232  0.00  0.00    -0.197 NA
ATOM     20  H   UNL     1       0.499   0.053  -1.031  0.00  0.00    +0.147 HD
ENDBRANCH  15  19
ENDBRANCH  14  15
ENDBRANCH   8  14
ENDBRANCH   7  11
ENDBRANCH   1   7
BRANCH   4  21
ATOM     21  C   UNL     1       5.663  -6.199   8.271  0.00  0.00    +0.095 C 
BRANCH  21  22
ATOM     22  C   UNL     1       6.841  -6.939   7.633  0.00  0.00    -0.014 C 
BRANCH  22  23
ATOM     23  C   UNL     1       7.885  -5.942   7.201  0.00  0.00    -0.022 A 
ATOM     24  C   UNL     1       8.121  -5.434   5.966  0.00  0.00    +0.009 A 
ATOM     25  C   UNL     1       9.145  -4.520   5.802  0.00  0.00    +0.008 A 
ATOM     26  C   UNL     1       9.882  -4.158   6.880  0.00  0.00    +0.045 A 
ATOM     27  S   UNL     1       9.127  -5.117   8.183  0.00  0.00    -0.103 S 
ENDBRANCH  22  23
BRANCH  22  28
ATOM     28  N   UNL     1       7.425  -7.866   8.611  0.00  0.00    +0.382 N 
ATOM     29  C   UNL     1       6.416  -8.859   9.007  0.00  0.00    -0.096 C 
ATOM     30  C   UNL     1       8.576  -8.552   8.009  0.00  0.00    -0.096 C 
ATOM     31  H   UNL     1       7.727  -7.351   9.424  0.00  0.00    -0.082 HD
ENDBRANCH  22  28
ENDBRANCH  21  22
ENDBRANCH   4  21
TORSDOF 9
