REMARK  Name = ZINC39570934
REMARK  16 active torsions:
REMARK  status: ('A' for Active; 'I' for Inactive)
REMARK    1  A    between atoms: C_1  and  C_2
REMARK    2  A    between atoms: C_4  and  O_41
REMARK    3  A    between atoms: C_7  and  C_29
REMARK    4  A    between atoms: C_11  and  C_28
REMARK    5  A    between atoms: C_20  and  O_27
REMARK    6  A    between atoms: C_24  and  C_25
REMARK    7  A    between atoms: C_24  and  C_26
REMARK    8  A    between atoms: C_29  and  C_30
REMARK    9  A    between atoms: C_29  and  C_31
REMARK   10  A    between atoms: C_29  and  C_32
REMARK   11  A    between atoms: C_32  and  C_34
REMARK   12  A    between atoms: C_32  and  O_40
REMARK   13  A    between atoms: C_35  and  C_36
REMARK   14  A    between atoms: C_36  and  C_37
REMARK   15  A    between atoms: C_36  and  C_38
REMARK   16  A    between atoms: C_36  and  C_39
REMARK                            x       y       z     vdW  Elec       q    Type
REMARK                         _______ _______ _______ _____ _____    ______ ____
ROOT
ATOM      1  C   UNL     1       3.183   0.774  -0.545  0.00  0.00    +0.012 C 
ATOM      2  C   UNL     1       2.421  -0.572  -0.517  0.00  0.00    -0.019 C 
ATOM      3  C   UNL     1       3.510  -1.670  -0.563  0.00  0.00    +0.039 C 
ATOM      4  C   UNL     1       4.118  -1.609   0.866  0.00  0.00    +0.116 C 
ATOM      5  C   UNL     1       3.087  -0.862   1.752  0.00  0.00    +0.039 C 
ATOM      6  C   UNL     1       1.825  -0.838   0.878  0.00  0.00    -0.007 C 
ATOM      7  C   UNL     1       0.785   0.216   1.204  0.00  0.00    +0.083 C 
ATOM      8  C   UNL     1      -0.282   0.005   0.132  0.00  0.00    +0.141 C 
ATOM      9  O   UNL     1      -1.415  -0.264   0.431  0.00  0.00    -0.297 OA
ATOM     10  C   UNL     1       0.132   0.150  -1.314  0.00  0.00    +0.036 C 
ATOM     11  C   UNL     1       1.401  -0.620  -1.638  0.00  0.00    +0.013 C 
ATOM     12  C   UNL     1       1.191  -2.056  -2.083  0.00  0.00    +0.032 C 
ATOM     13  C   UNL     1      -0.191  -2.415  -2.516  0.00  0.00    -0.026 C 
ATOM     14  C   UNL     1      -1.173  -1.594  -2.600  0.00  0.00    -0.057 C 
ATOM     15  C   UNL     1      -1.033  -0.141  -2.232  0.00  0.00    +0.032 C 
ATOM     16  C   UNL     1      -1.058   0.704  -3.498  0.00  0.00    +0.048 C 
ATOM     17  C   UNL     1      -1.968   0.061  -4.551  0.00  0.00    +0.182 C 
ATOM     18  C   UNL     1      -3.029  -0.787  -3.890  0.00  0.00    +0.171 C 
ATOM     19  O   UNL     1      -4.201  -0.523  -3.983  0.00  0.00    -0.294 OA
ATOM     20  C   UNL     1      -2.551  -2.002  -3.099  0.00  0.00    +0.047 C 
ATOM     21  C   UNL     1      -3.494  -2.271  -1.925  0.00  0.00    +0.023 C 
ATOM     22  C   UNL     1      -2.490  -3.217  -4.022  0.00  0.00    +0.023 C 
ATOM     23  C   UNL     1       0.410   1.661  -1.498  0.00  0.00    +0.020 C 
ENDROOT
BRANCH   6  24
ATOM     24  C   UNL     1       1.162  -2.216   0.999  0.00  0.00    +0.001 C 
ATOM     25  C   UNL     1      -0.119  -2.240   0.163  0.00  0.00    +0.014 C 
ATOM     26  C   UNL     1       2.123  -3.291   0.491  0.00  0.00    +0.014 C 
BRANCH  24  27
ATOM     27  C   UNL     1       0.819  -2.489   2.465  0.00  0.00    +0.143 C 
BRANCH  27  28
ATOM     28  C   UNL     1      -0.018  -3.739   2.560  0.00  0.00    +0.001 C 
ATOM     29  C   UNL     1       0.364  -4.726   3.333  0.00  0.00    -0.023 C 
BRANCH  29  30
ATOM     30  C   UNL     1      -0.473  -5.975   3.428  0.00  0.00    -0.020 C 
ATOM     31  C   UNL     1      -1.704  -5.835   2.530  0.00  0.00    +0.015 C 
ATOM     32  C   UNL     1       0.355  -7.179   2.974  0.00  0.00    +0.015 C 
ATOM     33  C   UNL     1      -0.920  -6.181   4.877  0.00  0.00    +0.015 C 
ENDBRANCH  29  30
ENDBRANCH  27  28
BRANCH  27  34
ATOM     34  O   UNL     1       2.025  -2.666   3.211  0.00  0.00    -0.387 OA
ATOM     35  H   UNL     1       2.573  -3.400   2.905  0.00  0.00    +0.210 HD
ENDBRANCH  27  34
ENDBRANCH  24  27
ENDBRANCH   6  24
BRANCH  17  36
ATOM     36  O   UNL     1      -2.594   1.092  -5.316  0.00  0.00    -0.384 OA
ATOM     37  H   UNL     1      -3.188   0.765  -6.005  0.00  0.00    +0.210 HD
ENDBRANCH  17  36
BRANCH   4  38
ATOM     38  O   UNL     1       5.362  -0.911   0.851  0.00  0.00    -0.392 OA
ATOM     39  H   UNL     1       6.039  -1.326   0.300  0.00  0.00    +0.210 HD
ENDBRANCH   4  38
TORSDOF 7
