REMARK  Name = ZINC08566307
REMARK  7 active torsions:
REMARK  status: ('A' for Active; 'I' for Inactive)
REMARK    1  A    between atoms: C_1  and  O_2
REMARK    2  A    between atoms: O_2  and  C_3
REMARK    3  A    between atoms: C_5  and  C_10
REMARK    4  A    between atoms: C_8  and  O_9
REMARK    5  A    between atoms: C_13  and  C_24
REMARK    6  A    between atoms: C_19  and  N_23
REMARK    7  A    between atoms: C_20  and  C_21
REMARK                            x       y       z     vdW  Elec       q    Type
REMARK                         _______ _______ _______ _____ _____    ______ ____
ROOT
ATOM      1  C   UNL     1       2.446   0.499  -4.289  0.00  0.00    +0.102 C 
ATOM      2  C   UNL     1       1.856   0.020  -5.590  0.00  0.00    +0.054 A 
ATOM      3  C   UNL     1       0.563   0.197  -6.094  0.00  0.00    +0.100 A 
ATOM      4  N   UNL     1       0.501  -0.398  -7.271  0.00  0.00    -0.171 NA
ATOM      5  N   UNL     1       1.754  -0.968  -7.544  0.00  0.00    -0.246 N 
ATOM      6  H   UNL     1       1.992  -1.467  -8.342  0.00  0.00    +0.192 HD
ATOM      7  C   UNL     1       2.570  -0.700  -6.503  0.00  0.00    +0.223 A 
ATOM      8  O   UNL     1       3.869  -1.040  -6.313  0.00  0.00    -0.423 OA
ATOM      9  C   UNL     1       4.538  -0.420  -5.320  0.00  0.00    +0.200 C 
ATOM     10  C   UNL     1       3.941   0.311  -4.352  0.00  0.00    +0.098 C 
ENDROOT
BRANCH   1  13
ATOM     11  C   UNL     1       0.736  -0.402  -1.043  0.00  0.00    +0.162 A 
ATOM     12  C   UNL     1       1.257   0.336  -2.093  0.00  0.00    +0.054 A 
ATOM     13  C   UNL     1       1.880  -0.306  -3.148  0.00  0.00    -0.031 A 
ATOM     14  C   UNL     1       1.984  -1.684  -3.157  0.00  0.00    +0.008 A 
ATOM     15  C   UNL     1       1.466  -2.427  -2.112  0.00  0.00    +0.049 A 
ATOM     16  C   UNL     1       0.846  -1.789  -1.050  0.00  0.00    +0.158 A 
BRANCH  11  18
ATOM     17  C   UNL     1       0.048   1.654  -0.065  0.00  0.00    +0.277 C 
ATOM     18  O   UNL     1       0.124   0.228  -0.005  0.00  0.00    -0.491 OA
ENDBRANCH  11  18
BRANCH  16  19
ATOM     19  O   UNL     1       0.341  -2.518  -0.018  0.00  0.00    -0.503 OA
ATOM     20  H   UNL     1      -0.579  -2.788  -0.141  0.00  0.00    +0.292 HD
ENDBRANCH  16  19
ENDBRANCH   1  13
BRANCH   3  21
ATOM     21  C   UNL     1      -0.543   0.925  -5.424  0.00  0.00    +0.005 A 
ATOM     22  C   UNL     1      -0.311   2.138  -4.770  0.00  0.00    +0.030 A 
ATOM     23  C   UNL     1      -1.367   2.783  -4.161  0.00  0.00    +0.111 A 
ATOM     24  N   UNL     1      -2.582   2.268  -4.190  0.00  0.00    -0.263 NA
ATOM     25  C   UNL     1      -2.843   1.126  -4.796  0.00  0.00    +0.111 A 
ATOM     26  C   UNL     1      -1.845   0.419  -5.435  0.00  0.00    +0.030 A 
ENDBRANCH   3  21
BRANCH   9  27
ATOM     27  N   UNL     1       5.906  -0.538  -5.290  0.00  0.00    -0.328 N 
ATOM     28  H   UNL     1       6.363  -1.056  -5.971  0.00  0.00    +0.145 HD
ATOM     29  H   UNL     1       6.415  -0.103  -4.588  0.00  0.00    +0.145 HD
ENDBRANCH   9  27
BRANCH  10  30
ATOM     30  C   UNL     1       4.756   0.929  -3.350  0.00  0.00    +0.101 C 
ATOM     31  N   UNL     1       5.403   1.419  -2.555  0.00  0.00    -0.191 NA
ENDBRANCH  10  30
TORSDOF 6
