REMARK  Name = ZINC35745980
REMARK  14 active torsions:
REMARK  status: ('A' for Active; 'I' for Inactive)
REMARK    1  A    between atoms: C_1  and  C_2
REMARK    2  A    between atoms: C_2  and  C_3
REMARK    3  A    between atoms: C_2  and  C_4
REMARK    4  A    between atoms: C_4  and  O_5
REMARK    5  A    between atoms: O_5  and  C_6
REMARK    6  A    between atoms: C_6  and  C_7
REMARK    7  A    between atoms: C_7  and  C_9
REMARK    8  A    between atoms: C_7  and  O_36
REMARK    9  A    between atoms: C_9  and  N_10
REMARK   10  A    between atoms: N_10  and  C_11
REMARK   11  A    between atoms: N_10  and  C_17
REMARK   12  A    between atoms: C_11  and  C_12
REMARK   13  A    between atoms: C_17  and  C_18
REMARK   14  A    between atoms: C_24  and  C_29
REMARK                            x       y       z     vdW  Elec       q    Type
REMARK                         _______ _______ _______ _____ _____    ______ ____
ROOT
ATOM      1  C   UNL     1      -5.085  -6.891  -0.445  0.00  0.00    +0.159 C 
ENDROOT
BRANCH   1   2
ATOM      2  C   UNL     1      -5.694  -6.737   0.925  0.00  0.00    +0.125 A 
ATOM      3  N   UNL     1      -6.931  -7.242   1.166  0.00  0.00    -0.309 N 
ATOM      4  H   UNL     1      -7.406  -7.696   0.452  0.00  0.00    +0.170 HD
ATOM      5  C   UNL     1      -7.511  -7.126   2.375  0.00  0.00    +0.260 A 
ATOM      6  O   UNL     1      -8.622  -7.585   2.575  0.00  0.00    -0.267 OA
ATOM      7  C   UNL     1      -6.803  -6.455   3.422  0.00  0.00    +0.080 A 
ATOM      8  C   UNL     1      -7.211  -6.204   4.799  0.00  0.00    +0.004 A 
ATOM      9  C   UNL     1      -6.362  -5.540   5.620  0.00  0.00    +0.056 A 
ATOM     10  S   UNL     1      -4.954  -5.211   4.578  0.00  0.00    -0.076 S 
ATOM     11  C   UNL     1      -5.531  -5.965   3.080  0.00  0.00    +0.116 A 
ATOM     12  N   UNL     1      -5.021  -6.123   1.861  0.00  0.00    -0.225 NA
BRANCH   8  13
ATOM     13  C   UNL     1      -8.530  -6.667   5.291  0.00  0.00    -0.016 A 
ATOM     14  C   UNL     1      -9.686  -6.386   4.564  0.00  0.00    +0.010 A 
ATOM     15  C   UNL     1     -10.912  -6.819   5.027  0.00  0.00    +0.020 A 
ATOM     16  C   UNL     1     -10.995  -7.532   6.210  0.00  0.00    +0.041 A 
ATOM     17  C   UNL     1      -9.851  -7.814   6.936  0.00  0.00    +0.020 A 
ATOM     18  C   UNL     1      -8.619  -7.390   6.480  0.00  0.00    +0.010 A 
ATOM     19 CL   UNL     1     -12.540  -8.075   6.787  0.00  0.00    -0.084 Cl
ENDBRANCH   8  13
ENDBRANCH   1   2
BRANCH   1  20
ATOM     20  N   UNL     1      -3.803  -6.176  -0.494  0.00  0.00    -0.286 NA
BRANCH  20  21
ATOM     21  C   UNL     1      -4.012  -4.726  -0.601  0.00  0.00    +0.119 C 
BRANCH  21  22
ATOM     22  C   UNL     1      -2.680  -4.002  -0.399  0.00  0.00    +0.154 C 
BRANCH  22  23
ATOM     23  O   UNL     1      -2.159  -4.314   0.895  0.00  0.00    -0.388 OA
ATOM     24  H   UNL     1      -2.738  -4.055   1.625  0.00  0.00    +0.210 HD
ENDBRANCH  22  23
BRANCH  22  25
ATOM     25  C   UNL     1      -2.898  -2.492  -0.510  0.00  0.00    +0.192 C 
BRANCH  25  26
ATOM     26  O   UNL     1      -1.638  -1.821  -0.438  0.00  0.00    -0.377 OA
BRANCH  26  27
ATOM     27  C   UNL     1      -1.730  -0.399  -0.533  0.00  0.00    +0.163 C 
BRANCH  27  29
ATOM     28  C   UNL     1      -0.415   1.721  -0.671  0.00  0.00    +0.009 C 
ATOM     29  C   UNL     1      -0.329   0.210  -0.445  0.00  0.00    +0.009 C 
ATOM     30  C   UNL     1       0.260  -0.066   0.940  0.00  0.00    +0.009 C 
ENDBRANCH  27  29
ENDBRANCH  26  27
ENDBRANCH  25  26
ENDBRANCH  22  25
ENDBRANCH  21  22
ENDBRANCH  20  21
BRANCH  20  31
ATOM     31  C   UNL     1      -2.966  -6.670  -1.596  0.00  0.00    +0.159 C 
BRANCH  31  32
ATOM     32  C   UNL     1      -2.452  -8.046  -1.259  0.00  0.00    +0.119 A 
ATOM     33  C   UNL     1      -3.007  -9.209  -1.643  0.00  0.00    +0.046 A 
ATOM     34  C   UNL     1      -2.204 -10.242  -1.108  0.00  0.00    +0.041 A 
ATOM     35  C   UNL     1      -1.206  -9.649  -0.430  0.00  0.00    +0.195 A 
ATOM     36  O   UNL     1      -1.358  -8.318  -0.529  0.00  0.00    -0.467 OA
ENDBRANCH  31  32
ENDBRANCH  20  31
ENDBRANCH   1  20
TORSDOF 12
