REMARK  Name = ZINC40057962
REMARK  8 active torsions:
REMARK  status: ('A' for Active; 'I' for Inactive)
REMARK    1  A    between atoms: C_1  and  C_2
REMARK    2  A    between atoms: C_12  and  C_29
REMARK    3  A    between atoms: C_18  and  C_28
REMARK    4  A    between atoms: C_20  and  C_27
REMARK    5  A    between atoms: C_32  and  O_37
REMARK    6  A    between atoms: C_33  and  O_35
REMARK    7  A    between atoms: O_35  and  C_36
REMARK    8  A    between atoms: O_37  and  C_38
REMARK                            x       y       z     vdW  Elec       q    Type
REMARK                         _______ _______ _______ _____ _____    ______ ____
ROOT
ATOM      1  C   UNL     1      -0.018   1.503   0.010  0.00  0.00    +0.044 C 
ATOM      2  C   UNL     1       0.002  -0.004   0.002  0.00  0.00    -0.049 A 
ATOM      3  C   UNL     1       0.006  -0.698  -1.199  0.00  0.00    +0.005 A 
ATOM      4  C   UNL     1       0.024  -2.068  -1.235  0.00  0.00    +0.029 A 
ATOM      5  C   UNL     1       0.040  -2.822  -0.038  0.00  0.00    +0.080 A 
ATOM      6  C   UNL     1       0.036  -2.081   1.166  0.00  0.00    +0.041 A 
ATOM      7  C   UNL     1       0.023  -0.709   1.192  0.00  0.00    +0.020 A 
ATOM      8  S   UNL     1       0.059  -3.361   2.397  0.00  0.00    -0.052 S 
ATOM      9  C   UNL     1       0.072  -4.752   1.275  0.00  0.00    +0.169 A 
ATOM     10  N   UNL     1       0.059  -4.165   0.101  0.00  0.00    -0.224 NA
ATOM     11  N   UNL     1       0.092  -6.104   1.569  0.00  0.00    -0.232 N 
ATOM     12  C   UNL     1       0.108  -7.202   0.588  0.00  0.00    +0.152 C 
ATOM     13  C   UNL     1       0.124  -8.463   1.389  0.00  0.00    +0.072 A 
ATOM     14  C   UNL     1       0.134  -9.870   0.976  0.00  0.00    +0.199 A 
ATOM     15  O   UNL     1       0.307 -10.226  -0.176  0.00  0.00    -0.287 OA
ATOM     16  C   UNL     1      -0.085 -10.820   2.096  0.00  0.00    +0.067 A 
ATOM     17  C   UNL     1      -0.301 -12.174   1.842  0.00  0.00    -0.036 A 
ATOM     18  C   UNL     1      -0.507 -13.035   2.884  0.00  0.00    +0.007 A 
ATOM     19  C   UNL     1      -0.502 -12.565   4.190  0.00  0.00    -0.047 A 
ATOM     20  C   UNL     1      -0.289 -11.232   4.459  0.00  0.00    +0.050 A 
ATOM     21  C   UNL     1      -0.074 -10.334   3.413  0.00  0.00    +0.140 A 
ATOM     22  O   UNL     1       0.143  -9.030   3.701  0.00  0.00    -0.450 OA
ATOM     23  C   UNL     1       0.124  -8.117   2.711  0.00  0.00    +0.199 A 
ATOM     24  C   UNL     1       0.106  -6.647   2.803  0.00  0.00    +0.289 C 
ATOM     25  O   UNL     1       0.102  -6.015   3.841  0.00  0.00    -0.266 OA
ATOM     26  C   UNL     1      -0.733 -13.526   5.327  0.00  0.00    +0.044 C 
ATOM     27  C   UNL     1      -0.308 -12.686   0.424  0.00  0.00    +0.044 C 
ENDROOT
BRANCH  12  28
ATOM     28  C   UNL     1      -1.127  -7.148  -0.274  0.00  0.00    -0.018 A 
ATOM     29  C   UNL     1      -2.343  -6.799   0.285  0.00  0.00    +0.009 A 
ATOM     30  C   UNL     1      -3.479  -6.748  -0.501  0.00  0.00    +0.050 A 
ATOM     31  C   UNL     1      -3.401  -7.045  -1.852  0.00  0.00    +0.162 A 
ATOM     32  C   UNL     1      -2.177  -7.396  -2.414  0.00  0.00    +0.162 A 
ATOM     33  C   UNL     1      -1.041  -7.441  -1.622  0.00  0.00    +0.055 A 
BRANCH  32  34
ATOM     34  O   UNL     1      -2.095  -7.689  -3.740  0.00  0.00    -0.491 OA
ATOM     35  C   UNL     1      -0.806  -8.040  -4.248  0.00  0.00    +0.277 C 
ENDBRANCH  32  34
BRANCH  31  36
ATOM     36  O   UNL     1      -4.517  -6.996  -2.627  0.00  0.00    -0.491 OA
ATOM     37  C   UNL     1      -5.739  -6.629  -1.982  0.00  0.00    +0.277 C 
ENDBRANCH  31  36
ENDBRANCH  12  28
TORSDOF 3
