REMARK  Name = ZINC15142203
REMARK  9 active torsions:
REMARK  status: ('A' for Active; 'I' for Inactive)
REMARK    1  A    between atoms: C_1  and  C_2
REMARK    2  A    between atoms: N_7  and  S_9
REMARK    3  A    between atoms: S_9  and  C_12
REMARK    4  A    between atoms: C_15  and  N_21
REMARK    5  A    between atoms: C_16  and  N_18
REMARK    6  A    between atoms: C_26  and  C_27
REMARK    7  A    between atoms: C_26  and  N_66
REMARK    8  A    between atoms: C_30  and  O_33
REMARK    9  A    between atoms: O_33  and  C_34
REMARK                            x       y       z     vdW  Elec       q    Type
REMARK                         _______ _______ _______ _____ _____    ______ ____
ROOT
ATOM      1  C   UNL     1      -4.022   2.695  -7.079  0.00  0.00    +0.108 A 
ATOM      2  C   UNL     1      -2.776   2.111  -7.211  0.00  0.00    +0.030 A 
ATOM      3  C   UNL     1      -2.106   1.649  -6.094  0.00  0.00    +0.027 A 
ATOM      4  C   UNL     1      -2.691   1.763  -4.839  0.00  0.00    +0.060 A 
ATOM      5  C   UNL     1      -3.943   2.350  -4.711  0.00  0.00    +0.149 A 
ATOM      6  C   UNL     1      -4.605   2.814  -5.831  0.00  0.00    +0.063 A 
ENDROOT
BRANCH   4   7
ATOM      7  N   UNL     1      -2.019   1.292  -3.709  0.00  0.00    -0.332 N 
ATOM      8  C   UNL     1      -1.843  -0.166  -3.770  0.00  0.00    +0.086 C 
ATOM      9  C   UNL     1      -1.176  -0.650  -2.480  0.00  0.00    -0.059 C 
ATOM     10  C   UNL     1      -0.059   1.485  -2.255  0.00  0.00    -0.059 C 
ATOM     11  C   UNL     1      -0.726   1.970  -3.545  0.00  0.00    +0.086 C 
ATOM     12  N   UNL     1       0.133   0.022  -2.339  0.00  0.00    +0.384 N 
ATOM     13  H   UNL     1       0.709  -0.193  -3.161  0.00  0.00    -0.081 HD
BRANCH  12  14
ATOM     14  C   UNL     1       0.824  -0.467  -1.127  0.00  0.00    -0.043 C 
BRANCH  14  15
ATOM     15  C   UNL     1       2.235   0.061  -1.125  0.00  0.00    -0.064 A 
ATOM     16  C   UNL     1       3.244  -0.661  -1.734  0.00  0.00    +0.005 A 
ATOM     17  C   UNL     1       4.537  -0.176  -1.739  0.00  0.00    +0.046 A 
ATOM     18  C   UNL     1       4.826   1.032  -1.121  0.00  0.00    +0.120 A 
ATOM     19  C   UNL     1       3.813   1.753  -0.505  0.00  0.00    +0.046 A 
ATOM     20  C   UNL     1       2.520   1.266  -0.509  0.00  0.00    +0.005 A 
BRANCH  18  21
ATOM     21  O   UNL     1       6.098   1.509  -1.119  0.00  0.00    -0.495 OA
ATOM     22  C   UNL     1       7.090   0.714  -1.772  0.00  0.00    +0.277 C 
ENDBRANCH  18  21
ENDBRANCH  14  15
ENDBRANCH  12  14
ENDBRANCH   4   7
BRANCH   1  23
ATOM     23  S   UNL     1      -4.870   3.289  -8.505  0.00  0.00    +0.061 S 
ATOM     24  O   UNL     1      -4.352   2.567  -9.615  0.00  0.00    -0.153 OA
ATOM     25  O   UNL     1      -6.253   3.299  -8.181  0.00  0.00    -0.153 OA
BRANCH  23  31
ATOM     26  C   UNL     1      -1.158   6.573  -9.602  0.00  0.00    +0.009 C 
ATOM     27  C   UNL     1      -2.312   6.095  -8.719  0.00  0.00    +0.002 C 
ATOM     28  C   UNL     1      -3.086   7.306  -8.190  0.00  0.00    +0.006 C 
ATOM     29  C   UNL     1      -4.220   6.830  -7.280  0.00  0.00    +0.017 C 
ATOM     30  C   UNL     1      -5.188   5.955  -8.091  0.00  0.00    +0.109 C 
ATOM     31  N   UNL     1      -4.422   4.869  -8.718  0.00  0.00    -0.176 NA
ATOM     32  C   UNL     1      -3.255   5.212  -9.542  0.00  0.00    +0.112 C 
ENDBRANCH  23  31
ENDBRANCH   1  23
BRANCH   5  33
ATOM     33  N   UNL     1      -4.568   2.478  -3.375  0.00  0.00    +0.058 N 
ATOM     34  O   UNL     1      -5.705   2.902  -3.273  0.00  0.00    -0.126 OA
ATOM     35  O   UNL     1      -3.945   2.159  -2.378  0.00  0.00    -0.126 OA
ENDBRANCH   5  33
TORSDOF 7
