REMARK  Name = ZINC36586357
REMARK  13 active torsions:
REMARK  status: ('A' for Active; 'I' for Inactive)
REMARK    1  A    between atoms: C_1  and  C_2
REMARK    2  A    between atoms: C_2  and  C_3
REMARK    3  A    between atoms: C_2  and  C_4
REMARK    4  A    between atoms: C_2  and  N_5
REMARK    5  A    between atoms: C_6  and  C_8
REMARK    6  A    between atoms: C_8  and  C_10
REMARK    7  A    between atoms: C_8  and  N_24
REMARK    8  A    between atoms: N_24  and  C_34
REMARK    9  A    between atoms: C_25  and  C_27
REMARK   10  A    between atoms: C_30  and  O_33
REMARK   11  A    between atoms: C_34  and  C_35
REMARK   12  A    between atoms: C_34  and  C_36
REMARK   13  A    between atoms: C_34  and  C_37
REMARK                            x       y       z     vdW  Elec       q    Type
REMARK                         _______ _______ _______ _____ _____    ______ ____
ROOT
ATOM      1  C   UNL     1       2.630  -0.478  -1.336  0.00  0.00    +0.194 C 
ENDROOT
BRANCH   1   2
ATOM      2  C   UNL     1       1.734  -1.050  -2.404  0.00  0.00    -0.010 A 
ATOM      3  C   UNL     1       2.145  -1.033  -3.689  0.00  0.00    +0.015 A 
ATOM      4  C   UNL     1       1.341  -1.558  -4.727  0.00  0.00    -0.017 A 
ATOM      5  C   UNL     1       1.777  -1.536  -6.059  0.00  0.00    +0.008 A 
ATOM      6  C   UNL     1       0.981  -2.049  -7.041  0.00  0.00    +0.001 A 
ATOM      7  C   UNL     1      -0.261  -2.596  -6.740  0.00  0.00    +0.001 A 
ATOM      8  C   UNL     1      -0.714  -2.633  -5.452  0.00  0.00    +0.009 A 
ATOM      9  C   UNL     1       0.078  -2.115  -4.426  0.00  0.00    -0.010 A 
ATOM     10  C   UNL     1      -0.369  -2.134  -3.030  0.00  0.00    -0.010 A 
ATOM     11  C   UNL     1       0.483  -1.599  -2.037  0.00  0.00    -0.012 A 
ATOM     12  C   UNL     1       0.068  -1.617  -0.698  0.00  0.00    +0.009 A 
ATOM     13  C   UNL     1      -1.144  -2.152  -0.373  0.00  0.00    +0.001 A 
ATOM     14  C   UNL     1      -1.976  -2.683  -1.351  0.00  0.00    +0.001 A 
ATOM     15  C   UNL     1      -1.606  -2.669  -2.666  0.00  0.00    +0.009 A 
ENDBRANCH   1   2
BRANCH   1  17
ATOM     16  N   UNL     1       1.036   1.398  -1.093  0.00  0.00    -0.309 N 
ATOM     17  C   UNL     1       2.317   0.985  -1.149  0.00  0.00    +0.239 C 
ATOM     18  O   UNL     1       3.219   1.790  -1.050  0.00  0.00    -0.273 OA
ATOM     19  H   UNL     1       0.328   0.831  -1.436  0.00  0.00    +0.149 HD
BRANCH  16  21
ATOM     20  C   UNL     1       1.421   3.804  -1.305  0.00  0.00    +0.031 C 
ATOM     21  C   UNL     1       0.712   2.704  -0.512  0.00  0.00    +0.026 C 
ATOM     22  C   UNL     1       1.179   2.744   0.944  0.00  0.00    +0.031 C 
ATOM     23  C   UNL     1      -0.800   2.927  -0.570  0.00  0.00    +0.031 C 
ENDBRANCH  16  21
ENDBRANCH   1  17
BRANCH   1  24
ATOM     24  N   UNL     1       4.030  -0.630  -1.740  0.00  0.00    -0.277 N 
ATOM     25  C   UNL     1       4.566   0.212  -2.645  0.00  0.00    +0.248 C 
ATOM     26  O   UNL     1       5.661  -0.022  -3.119  0.00  0.00    -0.270 OA
BRANCH  25  27
ATOM     27  C   UNL     1       3.823   1.417  -3.062  0.00  0.00    +0.037 A 
ATOM     28  C   UNL     1       2.426   1.407  -3.082  0.00  0.00    +0.016 A 
ATOM     29  C   UNL     1       1.737   2.534  -3.471  0.00  0.00    +0.046 A 
ATOM     30  C   UNL     1       2.429   3.680  -3.845  0.00  0.00    +0.117 A 
ATOM     31  C   UNL     1       3.819   3.694  -3.826  0.00  0.00    +0.046 A 
ATOM     32  C   UNL     1       4.515   2.573  -3.433  0.00  0.00    +0.016 A 
BRANCH  30  33
ATOM     33  O   UNL     1       1.746   4.788  -4.228  0.00  0.00    -0.507 OA
ATOM     34  H   UNL     1       1.534   5.391  -3.502  0.00  0.00    +0.292 HD
ENDBRANCH  30  33
ENDBRANCH  25  27
BRANCH  24  35
ATOM     35  C   UNL     1       4.847  -1.698  -1.159  0.00  0.00    +0.030 C 
ATOM     36  C   UNL     1       3.983  -2.554  -0.230  0.00  0.00    +0.031 C 
ATOM     37  C   UNL     1       5.414  -2.573  -2.279  0.00  0.00    +0.031 C 
ATOM     38  C   UNL     1       5.998  -1.082  -0.361  0.00  0.00    +0.031 C 
ENDBRANCH  24  35
ENDBRANCH   1  24
TORSDOF 7
