REMARK  Name = ZINC31586140
REMARK  7 active torsions:
REMARK  status: ('A' for Active; 'I' for Inactive)
REMARK    1  A    between atoms: C_1  and  S_2
REMARK    2  A    between atoms: S_2  and  C_3
REMARK    3  A    between atoms: C_6  and  N_9
REMARK    4  A    between atoms: C_10  and  C_12
REMARK    5  A    between atoms: C_12  and  N_13
REMARK    6  A    between atoms: N_16  and  S_19
REMARK    7  A    between atoms: S_19  and  C_22
REMARK                            x       y       z     vdW  Elec       q    Type
REMARK                         _______ _______ _______ _____ _____    ______ ____
ROOT
ATOM      1  N   UNL     1       3.531   2.012   0.083  0.00  0.00    +0.387 N 
ATOM      2  C   UNL     1       3.579   2.701  -1.214  0.00  0.00    -0.061 C 
ATOM      3  C   UNL     1       4.581   3.858  -1.137  0.00  0.00    +0.091 C 
ATOM      4  N   UNL     1       5.870   3.330  -0.665  0.00  0.00    -0.180 NA
ATOM      5  C   UNL     1       5.881   2.512   0.557  0.00  0.00    +0.091 C 
ATOM      6  C   UNL     1       4.828   1.407   0.413  0.00  0.00    -0.061 C 
ATOM      7  H   UNL     1       3.306   2.764   0.853  0.00  0.00    -0.081 HD
ENDROOT
BRANCH   4   8
ATOM      8  S   UNL     1       7.271   3.647  -1.488  0.00  0.00    +0.067 S 
ATOM      9  O   UNL     1       7.049   4.843  -2.223  0.00  0.00    -0.152 OA
ATOM     10  O   UNL     1       8.331   3.515  -0.551  0.00  0.00    -0.152 OA
BRANCH   8  11
ATOM     11  C   UNL     1       7.482   2.361  -2.673  0.00  0.00    +0.144 A 
ATOM     12  C   UNL     1       7.042   2.299  -3.954  0.00  0.00    +0.037 A 
ATOM     13  C   UNL     1       7.329   1.177  -4.708  0.00  0.00    +0.025 A 
ATOM     14  C   UNL     1       8.042   0.170  -4.144  0.00  0.00    +0.057 A 
ATOM     15  S   UNL     1       8.338   0.803  -2.501  0.00  0.00    -0.062 S 
ATOM     16 BR   UNL     1       8.589  -1.473  -4.903  0.00  0.00    -0.043 Br
ENDBRANCH   8  11
ENDBRANCH   4   8
BRANCH   1  17
ATOM     17  C   UNL     1       2.460   1.006   0.105  0.00  0.00    +0.019 C 
BRANCH  17  19
ATOM     18  N   UNL     1      -0.011   0.966   0.007  0.00  0.00    -0.287 N 
ATOM     19  C   UNL     1       1.123   1.694   0.006  0.00  0.00    +0.201 C 
ATOM     20  O   UNL     1       1.067   2.903  -0.076  0.00  0.00    -0.278 OA
ATOM     21  H   UNL     1       0.041  -0.133   0.009  0.00  0.00    +0.155 HD
BRANCH  18  25
ATOM     22  C   UNL     1      -3.718   2.878   0.006  0.00  0.00    +0.008 A 
ATOM     23  C   UNL     1      -2.649   3.434  -0.686  0.00  0.00    +0.016 A 
ATOM     24  C   UNL     1      -1.423   2.800  -0.686  0.00  0.00    +0.024 A 
ATOM     25  C   UNL     1      -1.257   1.608   0.007  0.00  0.00    +0.033 A 
ATOM     26  C   UNL     1      -2.326   1.050   0.695  0.00  0.00    +0.024 A 
ATOM     27  C   UNL     1      -3.551   1.685   0.699  0.00  0.00    +0.016 A 
BRANCH  22  29
ATOM     28  C   UNL     1      -6.334   2.608   1.020  0.00  0.00    +0.090 C 
ATOM     29  S   UNL     1      -5.284   3.686   0.007  0.00  0.00    -0.129 S 
ENDBRANCH  22  29
ENDBRANCH  18  25
ENDBRANCH  17  19
ENDBRANCH   1  17
TORSDOF 6
