REMARK  Name = ZINC11866776
REMARK  5 active torsions:
REMARK  status: ('A' for Active; 'I' for Inactive)
REMARK    1  A    between atoms: C_6  and  O_7
REMARK    2  A    between atoms: O_7  and  C_8
REMARK    3  A    between atoms: C_13  and  C_14
REMARK    4  A    between atoms: C_17  and  O_21
REMARK    5  A    between atoms: C_19  and  O_20
REMARK                            x       y       z     vdW  Elec       q    Type
REMARK                         _______ _______ _______ _____ _____    ______ ____
ROOT
ATOM      1  C   UNL     1       1.072   1.894   0.001  0.00  0.00    +0.173 A 
ATOM      2  C   UNL     1      -0.011   1.094   0.145  0.00  0.00    +0.151 A 
ATOM      3  N   UNL     1      -1.118   1.881   0.099  0.00  0.00    -0.280 N 
ATOM      4  H   UNL     1      -2.065   1.567   0.172  0.00  0.00    +0.188 HD
ATOM      5  N   UNL     1      -0.702   3.207  -0.069  0.00  0.00    -0.170 NA
ATOM      6  C   UNL     1       0.613   3.222  -0.133  0.00  0.00    +0.138 A 
ENDROOT
BRANCH   6   7
ATOM      7  C   UNL     1       1.464   4.424  -0.312  0.00  0.00    +0.047 A 
ATOM      8  C   UNL     1       2.850   4.298  -0.357  0.00  0.00    +0.017 A 
ATOM      9  C   UNL     1       3.639   5.416  -0.530  0.00  0.00    +0.046 A 
ATOM     10  C   UNL     1       3.055   6.671  -0.649  0.00  0.00    +0.120 A 
ATOM     11  C   UNL     1       1.675   6.805  -0.600  0.00  0.00    +0.091 A 
ATOM     12  C   UNL     1       0.876   5.687  -0.432  0.00  0.00    +0.130 A 
BRANCH  12  13
ATOM     13  O   UNL     1      -0.476   5.817  -0.384  0.00  0.00    -0.506 OA
ATOM     14  H   UNL     1      -0.826   5.957   0.506  0.00  0.00    +0.292 HD
ENDBRANCH  12  13
BRANCH  10  15
ATOM     15  O   UNL     1       3.837   7.770  -0.813  0.00  0.00    -0.507 OA
ATOM     16  H   UNL     1       4.104   8.190   0.017  0.00  0.00    +0.292 HD
ENDBRANCH  10  15
ENDBRANCH   6   7
BRANCH   1  17
ATOM     17  O   UNL     1       2.373   1.490  -0.013  0.00  0.00    -0.452 OA
BRANCH  17  23
ATOM     18  C   UNL     1       2.399   1.805   2.345  0.00  0.00    +0.047 A 
ATOM     19  C   UNL     1       3.093   1.805   3.539  0.00  0.00    +0.018 A 
ATOM     20  C   UNL     1       4.444   1.508   3.555  0.00  0.00    +0.014 A 
ATOM     21  C   UNL     1       5.101   1.204   2.377  0.00  0.00    +0.018 A 
ATOM     22  C   UNL     1       4.410   1.198   1.181  0.00  0.00    +0.047 A 
ATOM     23  C   UNL     1       3.055   1.496   1.163  0.00  0.00    +0.129 A 
ATOM     24  I   UNL     1       5.495   1.516   5.367  0.00  0.00    -0.044 I 
ENDBRANCH  17  23
ENDBRANCH   1  17
TORSDOF 5
