REMARK  Name = ZINC20692693
REMARK  7 active torsions:
REMARK  status: ('A' for Active; 'I' for Inactive)
REMARK    1  A    between atoms: C_1  and  O_2
REMARK    2  A    between atoms: O_2  and  C_3
REMARK    3  A    between atoms: C_5  and  C_10
REMARK    4  A    between atoms: C_8  and  O_9
REMARK    5  A    between atoms: C_21  and  S_26
REMARK    6  A    between atoms: S_26  and  N_29
REMARK    7  A    between atoms: N_29  and  C_30
REMARK                            x       y       z     vdW  Elec       q    Type
REMARK                         _______ _______ _______ _____ _____    ______ ____
ROOT
ATOM      1  C   UNL     1       5.106   3.326  -0.034  0.00  0.00    +0.105 C 
ATOM      2  C   UNL     1       5.001   4.796  -0.395  0.00  0.00    +0.029 C 
ATOM      3  C   UNL     1       4.058   5.660   0.454  0.00  0.00    +0.033 C 
ATOM      4  C   UNL     1       3.630   6.729  -0.553  0.00  0.00    -0.030 C 
ATOM      5  C   UNL     1       3.725   6.253  -1.789  0.00  0.00    -0.023 C 
ATOM      6  C   UNL     1       4.208   4.839  -1.735  0.00  0.00    +0.049 C 
ATOM      7  C   UNL     1       5.059   4.239  -2.784  0.00  0.00    -0.018 A 
ATOM      8  C   UNL     1       5.059   4.690  -4.087  0.00  0.00    +0.034 A 
ATOM      9  C   UNL     1       5.864   4.086  -5.035  0.00  0.00    +0.106 A 
ATOM     10  C   UNL     1       6.673   3.023  -4.678  0.00  0.00    +0.030 A 
ATOM     11  C   UNL     1       6.685   2.567  -3.376  0.00  0.00    +0.025 A 
ATOM     12  C   UNL     1       5.885   3.172  -2.413  0.00  0.00    +0.031 A 
ATOM     13  N   UNL     1       5.941   2.715  -1.091  0.00  0.00    -0.336 N 
ATOM     14  H   UNL     1       6.621   1.886  -0.845  0.00  0.00    +0.147 HD
ENDROOT
BRANCH   1  17
ATOM     15  C   UNL     1       1.990   1.506  -1.151  0.00  0.00    +0.162 A 
ATOM     16  C   UNL     1       3.245   2.093  -1.163  0.00  0.00    +0.054 A 
ATOM     17  C   UNL     1       3.738   2.693  -0.020  0.00  0.00    -0.023 A 
ATOM     18  C   UNL     1       2.980   2.715   1.136  0.00  0.00    +0.009 A 
ATOM     19  C   UNL     1       1.724   2.136   1.153  0.00  0.00    +0.049 A 
ATOM     20  C   UNL     1       1.224   1.533   0.011  0.00  0.00    +0.158 A 
BRANCH  15  22
ATOM     21  C   UNL     1       2.346   0.921  -3.428  0.00  0.00    +0.277 C 
ATOM     22  O   UNL     1       1.505   0.910  -2.273  0.00  0.00    -0.491 OA
ENDBRANCH  15  22
BRANCH  20  23
ATOM     23  O   UNL     1      -0.011   0.963   0.026  0.00  0.00    -0.503 OA
ATOM     24  H   UNL     1      -0.615   0.985   0.945  0.00  0.00    +0.292 HD
ENDBRANCH  20  23
ENDBRANCH   1  17
BRANCH   9  25
ATOM     25  S   UNL     1       5.857   4.670  -6.697  0.00  0.00    +0.059 S 
ATOM     26  O   UNL     1       6.289   3.587  -7.510  0.00  0.00    -0.153 OA
ATOM     27  O   UNL     1       4.609   5.320  -6.894  0.00  0.00    -0.153 OA
BRANCH  25  28
ATOM     28  N   UNL     1       7.024   5.840  -6.810  0.00  0.00    -0.187 NA
ATOM     29  H   UNL     1       6.722   6.897  -6.859  0.00  0.00    +0.148 HD
BRANCH  28  30
ATOM     30  C   UNL     1       8.434   5.489  -6.625  0.00  0.00    +0.077 C 
ATOM     31  C   UNL     1       8.836   5.742  -5.171  0.00  0.00    +0.020 C 
ATOM     32  C   UNL     1      10.309   5.376  -4.978  0.00  0.00    +0.002 C 
ATOM     33  C   UNL     1      11.174   6.234  -5.904  0.00  0.00    +0.000 C 
ATOM     34  C   UNL     1      10.771   5.981  -7.358  0.00  0.00    +0.002 C 
ATOM     35  C   UNL     1       9.298   6.347  -7.551  0.00  0.00    +0.020 C 
ENDBRANCH  28  30
ENDBRANCH  25  28
ENDBRANCH   9  25
TORSDOF 6
