REMARK  Name = ZINC34388371
REMARK  9 active torsions:
REMARK  status: ('A' for Active; 'I' for Inactive)
REMARK    1  A    between atoms: C_1  and  C_2
REMARK    2  A    between atoms: C_2  and  C_3
REMARK    3  A    between atoms: C_3  and  C_5
REMARK    4  A    between atoms: C_3  and  C_6
REMARK    5  A    between atoms: C_6  and  C_39
REMARK    6  A    between atoms: C_11  and  C_14
REMARK    7  A    between atoms: C_17  and  C_20
REMARK    8  A    between atoms: C_21  and  C_22
REMARK    9  A    between atoms: N_30  and  C_33
REMARK                            x       y       z     vdW  Elec       q    Type
REMARK                         _______ _______ _______ _____ _____    ______ ____
ROOT
ATOM      1  C   UNL     1       0.630  -2.023  -1.329  0.00  0.00    +0.051 C 
ATOM      2  C   UNL     1       1.339  -2.546  -2.574  0.00  0.00    +0.086 C 
ATOM      3  C   UNL     1       0.666  -3.970  -2.599  0.00  0.00    +0.077 C 
ATOM      4  C   UNL     1      -0.763  -3.676  -2.432  0.00  0.00    -0.027 C 
ATOM      5  N   UNL     1      -0.788  -2.463  -1.536  0.00  0.00    +0.396 N 
ATOM      6  C   UNL     1       1.550  -4.704  -3.473  0.00  0.00    +0.225 C 
ATOM      7  O   UNL     1       1.255  -5.588  -4.248  0.00  0.00    -0.275 OA
ATOM      8  N   UNL     1       2.797  -4.183  -3.234  0.00  0.00    -0.239 N 
ATOM      9  C   UNL     1       2.762  -3.004  -2.518  0.00  0.00    +0.225 C 
ATOM     10  O   UNL     1       3.683  -2.453  -1.954  0.00  0.00    -0.275 OA
ATOM     11  H   UNL     1      -1.208  -2.693  -0.648  0.00  0.00    -0.083 HD
ATOM     12  H   UNL     1      -1.313  -1.727  -1.984  0.00  0.00    -0.083 HD
ENDROOT
BRANCH   4  13
ATOM     13  C   UNL     1      -1.400  -3.388  -3.767  0.00  0.00    -0.061 A 
ATOM     14  C   UNL     1      -1.251  -2.139  -4.345  0.00  0.00    +0.002 A 
ATOM     15  C   UNL     1      -1.831  -1.868  -5.566  0.00  0.00    +0.008 A 
ATOM     16  C   UNL     1      -2.570  -2.857  -6.220  0.00  0.00    -0.025 A 
ATOM     17  C   UNL     1      -2.716  -4.116  -5.630  0.00  0.00    +0.008 A 
ATOM     18  C   UNL     1      -2.126  -4.374  -4.411  0.00  0.00    +0.002 A 
BRANCH  16  19
ATOM     19  C   UNL     1      -3.193  -2.575  -7.526  0.00  0.00    +0.008 C 
ATOM     20  C   UNL     1      -3.902  -3.528  -8.151  0.00  0.00    +0.008 C 
BRANCH  20  21
ATOM     21  C   UNL     1      -4.526  -3.245  -9.457  0.00  0.00    -0.025 A 
ATOM     22  C   UNL     1      -4.375  -1.989 -10.049  0.00  0.00    +0.008 A 
ATOM     23  C   UNL     1      -4.961  -1.732 -11.271  0.00  0.00    +0.001 A 
ATOM     24  C   UNL     1      -5.696  -2.715 -11.911  0.00  0.00    +0.000 A 
ATOM     25  C   UNL     1      -5.849  -3.962 -11.330  0.00  0.00    +0.001 A 
ATOM     26  C   UNL     1      -5.265  -4.235 -10.111  0.00  0.00    +0.008 A 
ENDBRANCH  20  21
ENDBRANCH  16  19
ENDBRANCH   4  13
BRANCH   8  27
ATOM     27  C   UNL     1       4.039  -4.804  -3.702  0.00  0.00    +0.084 C 
ATOM     28  C   UNL     1       4.019  -4.895  -5.229  0.00  0.00    +0.023 C 
ATOM     29  C   UNL     1       5.316  -5.544  -5.718  0.00  0.00    +0.002 C 
ATOM     30  C   UNL     1       5.439  -6.949  -5.124  0.00  0.00    +0.000 C 
ATOM     31  C   UNL     1       5.458  -6.857  -3.597  0.00  0.00    +0.002 C 
ATOM     32  C   UNL     1       4.162  -6.208  -3.108  0.00  0.00    +0.023 C 
ENDBRANCH   8  27
BRANCH   1  33
ATOM     33  C   UNL     1       1.205  -2.647  -0.083  0.00  0.00    +0.347 C 
ATOM     34  O   UNL     1       0.501  -3.341   0.632  0.00  0.00    -0.248 OA
ATOM     35  O   UNL     1       2.373  -2.458   0.210  0.00  0.00    -0.248 OA
ENDBRANCH   1  33
BRANCH   1  36
ATOM     36  C   UNL     1       0.718  -0.497  -1.257  0.00  0.00    -0.014 C 
ATOM     37  C   UNL     1       2.187  -0.073  -1.207  0.00  0.00    +0.006 C 
BRANCH  36  39
ATOM     38  C   UNL     1      -0.019   1.526   0.010  0.00  0.00    +0.004 C 
ATOM     39  C   UNL     1       0.002  -0.004   0.002  0.00  0.00    -0.001 C 
ENDBRANCH  36  39
ENDBRANCH   1  36
TORSDOF 7
