REMARK  Name = ZINC36513262
REMARK  17 active torsions:
REMARK  status: ('A' for Active; 'I' for Inactive)
REMARK    1  A    between atoms: C_1  and  C_2
REMARK    2  A    between atoms: C_2  and  C_3
REMARK    3  A    between atoms: C_3  and  C_4
REMARK    4  A    between atoms: C_4  and  C_5
REMARK    5  A    between atoms: C_5  and  C_6
REMARK    6  A    between atoms: C_6  and  N_7
REMARK    7  A    between atoms: N_7  and  C_8
REMARK    8  A    between atoms: C_8  and  C_10
REMARK    9  A    between atoms: C_8  and  C_19
REMARK   10  A    between atoms: C_11  and  O_18
REMARK   11  A    between atoms: C_13  and  O_17
REMARK   12  A    between atoms: C_15  and  O_16
REMARK   13  A    between atoms: N_21  and  C_22
REMARK   14  A    between atoms: C_22  and  C_23
REMARK   15  A    between atoms: C_23  and  C_24
REMARK   16  A    between atoms: C_24  and  C_25
REMARK   17  A    between atoms: C_26  and  C_28
REMARK                            x       y       z     vdW  Elec       q    Type
REMARK                         _______ _______ _______ _____ _____    ______ ____
ROOT
ATOM      1  C   UNL     1      -2.567  -8.669  -4.702  0.00  0.00    +0.199 C 
ENDROOT
BRANCH   1   2
ATOM      2  C   UNL     1      -2.056  -8.106  -3.401  0.00  0.00    +0.065 A 
ATOM      3  C   UNL     1      -2.646  -8.481  -2.203  0.00  0.00    +0.129 A 
ATOM      4  C   UNL     1      -2.176  -7.962  -1.006  0.00  0.00    +0.091 A 
ATOM      5  C   UNL     1      -1.116  -7.069  -1.007  0.00  0.00    +0.124 A 
ATOM      6  C   UNL     1      -0.525  -6.694  -2.204  0.00  0.00    +0.091 A 
ATOM      7  C   UNL     1      -0.993  -7.216  -3.401  0.00  0.00    +0.129 A 
BRANCH   7   8
ATOM      8  O   UNL     1      -0.411  -6.852  -4.574  0.00  0.00    -0.506 OA
ATOM      9  H   UNL     1      -0.726  -6.008  -4.924  0.00  0.00    +0.292 HD
ENDBRANCH   7   8
BRANCH   5  10
ATOM     10  O   UNL     1      -0.656  -6.559   0.166  0.00  0.00    -0.507 OA
ATOM     11  H   UNL     1       0.045  -7.085   0.576  0.00  0.00    +0.292 HD
ENDBRANCH   5  10
BRANCH   3  12
ATOM     12  O   UNL     1      -3.685  -9.357  -2.203  0.00  0.00    -0.506 OA
ATOM     13  H   UNL     1      -3.425 -10.277  -2.057  0.00  0.00    +0.292 HD
ENDBRANCH   3  12
ENDBRANCH   1   2
BRANCH   1  14
ATOM     14  C   UNL     1      -3.833  -7.954  -5.097  0.00  0.00    +0.238 C 
ATOM     15  O   UNL     1      -4.181  -7.933  -6.258  0.00  0.00    -0.273 OA
ATOM     16  N   UNL     1      -4.579  -7.336  -4.159  0.00  0.00    -0.313 N 
ATOM     17  H   UNL     1      -4.321  -7.384  -3.225  0.00  0.00    +0.149 HD
BRANCH  16  18
ATOM     18  C   UNL     1      -5.779  -6.593  -4.550  0.00  0.00    +0.104 C 
BRANCH  18  19
ATOM     19  C   UNL     1      -6.436  -5.994  -3.305  0.00  0.00    +0.018 C 
BRANCH  19  20
ATOM     20  C   UNL     1      -7.690  -5.218  -3.713  0.00  0.00    -0.002 C 
ATOM     21  C   UNL     1      -8.347  -4.619  -2.468  0.00  0.00    +0.004 C 
ENDBRANCH  19  20
ENDBRANCH  18  19
ENDBRANCH  16  18
ENDBRANCH   1  14
BRANCH   1  22
ATOM     22  N   UNL     1      -1.556  -8.484  -5.745  0.00  0.00    -0.282 N 
ATOM     23  C   UNL     1      -1.683  -7.481  -6.636  0.00  0.00    +0.248 C 
ATOM     24  O   UNL     1      -1.160  -7.569  -7.730  0.00  0.00    -0.270 OA
BRANCH  23  25
ATOM     25  C   UNL     1      -2.458  -6.272  -6.283  0.00  0.00    +0.038 A 
ATOM     26  C   UNL     1      -2.970  -6.120  -4.994  0.00  0.00    +0.013 A 
ATOM     27  C   UNL     1      -3.693  -4.990  -4.670  0.00  0.00    +0.002 A 
ATOM     28  C   UNL     1      -3.910  -4.008  -5.620  0.00  0.00    +0.020 A 
ATOM     29  C   UNL     1      -3.405  -4.152  -6.901  0.00  0.00    +0.042 A 
ATOM     30  C   UNL     1      -2.676  -5.276  -7.236  0.00  0.00    +0.033 A 
ATOM     31 CL   UNL     1      -3.683  -2.915  -8.086  0.00  0.00    -0.084 Cl
ENDBRANCH  23  25
BRANCH  22  32
ATOM     32  C   UNL     1      -0.406  -9.389  -5.820  0.00  0.00    +0.109 C 
BRANCH  32  33
ATOM     33  C   UNL     1      -0.789 -10.634  -6.622  0.00  0.00    +0.019 C 
BRANCH  33  34
ATOM     34  C   UNL     1       0.412 -11.579  -6.700  0.00  0.00    +0.002 C 
BRANCH  34  35
ATOM     35  C   UNL     1       0.029 -12.825  -7.501  0.00  0.00    -0.000 C 
BRANCH  35  37
ATOM     36  C   UNL     1       0.847 -15.016  -8.381  0.00  0.00    +0.004 C 
ATOM     37  C   UNL     1       1.230 -13.770  -7.580  0.00  0.00    -0.003 C 
ENDBRANCH  35  37
ENDBRANCH  34  35
ENDBRANCH  33  34
ENDBRANCH  32  33
ENDBRANCH  22  32
ENDBRANCH   1  22
TORSDOF 15
