REMARK  Name = ZINC14467399
REMARK  7 active torsions:
REMARK  status: ('A' for Active; 'I' for Inactive)
REMARK    1  A    between atoms: C_1  and  C_2
REMARK    2  A    between atoms: C_2  and  C_3
REMARK    3  A    between atoms: C_2  and  N_4
REMARK    4  A    between atoms: N_4  and  S_5
REMARK    5  A    between atoms: S_5  and  C_8
REMARK    6  A    between atoms: C_21  and  C_24
REMARK    7  A    between atoms: C_29  and  O_30
REMARK                            x       y       z     vdW  Elec       q    Type
REMARK                         _______ _______ _______ _____ _____    ______ ____
ROOT
ATOM      1  C   UNL     1      -0.017   1.378   0.010  0.00  0.00    +0.106 A 
ATOM      2  C   UNL     1       1.172   2.086   0.002  0.00  0.00    +0.030 A 
ATOM      3  C   UNL     1       2.377   1.415  -0.006  0.00  0.00    +0.025 A 
ATOM      4  C   UNL     1       2.408   0.026  -0.006  0.00  0.00    +0.031 A 
ATOM      5  C   UNL     1       1.201  -0.683  -0.013  0.00  0.00    -0.018 A 
ATOM      6  C   UNL     1       0.002  -0.004   0.002  0.00  0.00    +0.034 A 
ATOM      7  C   UNL     1       1.277  -2.159  -0.057  0.00  0.00    +0.049 C 
ATOM      8  C   UNL     1       0.188  -3.019   0.473  0.00  0.00    -0.023 C 
ATOM      9  C   UNL     1       0.722  -4.146   0.928  0.00  0.00    -0.030 C 
ATOM     10  C   UNL     1       2.242  -4.109   0.764  0.00  0.00    +0.033 C 
ATOM     11  C   UNL     1       2.518  -2.600   0.777  0.00  0.00    +0.029 C 
ATOM     12  C   UNL     1       3.725  -2.110  -0.002  0.00  0.00    +0.109 C 
ATOM     13  N   UNL     1       3.643  -0.633   0.021  0.00  0.00    -0.336 N 
ATOM     14  H   UNL     1       4.460  -0.111   0.056  0.00  0.00    +0.147 HD
ENDROOT
BRANCH  12  15
ATOM     15  C   UNL     1       4.996  -2.571   0.663  0.00  0.00    +0.017 A 
ATOM     16  C   UNL     1       5.611  -1.771   1.607  0.00  0.00    +0.029 A 
ATOM     17  C   UNL     1       6.778  -2.194   2.219  0.00  0.00    +0.043 A 
ATOM     18  C   UNL     1       7.332  -3.417   1.886  0.00  0.00    +0.043 A 
ATOM     19  C   UNL     1       6.720  -4.220   0.942  0.00  0.00    +0.084 A 
ATOM     20  C   UNL     1       5.545  -3.800   0.332  0.00  0.00    +0.140 A 
ATOM     21 CL   UNL     1       7.415  -5.755   0.525  0.00  0.00    -0.080 Cl
ATOM     22 CL   UNL     1       7.549  -1.187   3.405  0.00  0.00    -0.083 Cl
BRANCH  20  23
ATOM     23  O   UNL     1       4.938  -4.590  -0.593  0.00  0.00    -0.505 OA
ATOM     24  H   UNL     1       5.236  -4.435  -1.499  0.00  0.00    +0.292 HD
ENDBRANCH  20  23
ENDBRANCH  12  15
BRANCH   1  25
ATOM     25  S   UNL     1      -1.554   2.239   0.022  0.00  0.00    +0.059 S 
ATOM     26  O   UNL     1      -1.303   3.527  -0.523  0.00  0.00    -0.153 OA
ATOM     27  O   UNL     1      -2.519   1.353  -0.529  0.00  0.00    -0.153 OA
BRANCH  25  28
ATOM     28  N   UNL     1      -1.974   2.469   1.607  0.00  0.00    -0.187 NA
ATOM     29  H   UNL     1      -2.765   2.039   1.967  0.00  0.00    +0.148 HD
BRANCH  28  31
ATOM     30  C   UNL     1      -1.732   4.739   2.486  0.00  0.00    +0.025 C 
ATOM     31  C   UNL     1      -1.150   3.324   2.466  0.00  0.00    +0.070 C 
ATOM     32  C   UNL     1      -1.138   2.757   3.887  0.00  0.00    +0.025 C 
ENDBRANCH  28  31
ENDBRANCH  25  28
ENDBRANCH   1  25
TORSDOF 5
