REMARK  Name = ZINC41153241
REMARK  3 active torsions:
REMARK  status: ('A' for Active; 'I' for Inactive)
REMARK    1  A    between atoms: C_4  and  C_7
REMARK    2  A    between atoms: C_7  and  C_8
REMARK    3  A    between atoms: C_8  and  N_9
REMARK                            x       y       z     vdW  Elec       q    Type
REMARK                         _______ _______ _______ _____ _____    ______ ____
ROOT
ATOM      1  N   UNL     1       5.703  -1.296   1.405  0.00  0.00    -0.328 N 
ATOM      2  C   UNL     1       6.191  -1.829   2.579  0.00  0.00    +0.131 A 
ATOM      3  C   UNL     1       7.306  -2.705   2.572  0.00  0.00    +0.038 A 
ATOM      4  C   UNL     1       7.957  -3.067   1.388  0.00  0.00    +0.013 A 
ATOM      5  C   UNL     1       9.025  -3.914   1.440  0.00  0.00    +0.001 A 
ATOM      6  C   UNL     1       9.475  -4.422   2.655  0.00  0.00    +0.002 A 
ATOM      7  C   UNL     1       8.862  -4.088   3.827  0.00  0.00    +0.026 A 
ATOM      8  C   UNL     1       7.762  -3.220   3.809  0.00  0.00    +0.052 A 
ATOM      9  N   UNL     1       7.125  -2.860   4.934  0.00  0.00    -0.327 N 
ATOM     10  C   UNL     1       6.092  -2.042   4.883  0.00  0.00    +0.198 A 
ATOM     11  N   UNL     1       5.634  -1.530   3.744  0.00  0.00    -0.201 NA
ATOM     12  N   UNL     1       5.462  -1.696   6.065  0.00  0.00    -0.298 N 
ATOM     13  C   UNL     1       6.013  -2.123   7.359  0.00  0.00    +0.127 C 
ATOM     14  C   UNL     1       6.224  -0.882   8.235  0.00  0.00    +0.127 C 
ATOM     15  N   UNL     1       4.992  -0.081   8.219  0.00  0.00    -0.297 N 
ATOM     16  C   UNL     1       4.442   0.346   6.926  0.00  0.00    +0.127 C 
ATOM     17  C   UNL     1       4.233  -0.890   6.049  0.00  0.00    +0.127 C 
ATOM     18  C   UNL     1       4.362   0.265   9.402  0.00  0.00    +0.218 A 
ATOM     19  N   UNL     1       4.885  -0.131  10.553  0.00  0.00    -0.223 NA
ATOM     20  C   UNL     1       4.308   0.183  11.701  0.00  0.00    +0.116 A 
ATOM     21  C   UNL     1       3.143   0.934  11.690  0.00  0.00    +0.039 A 
ATOM     22  C   UNL     1       2.623   1.332  10.468  0.00  0.00    +0.116 A 
ATOM     23  N   UNL     1       3.253   0.988   9.356  0.00  0.00    -0.223 NA
ATOM     24  H   UNL     1       6.120  -1.523   0.559  0.00  0.00    +0.147 HD
ATOM     25  H   UNL     1       7.426  -3.205   5.789  0.00  0.00    +0.169 HD
ENDROOT
BRANCH   1  26
ATOM     26  C   UNL     1       4.554  -0.388   1.435  0.00  0.00    +0.107 C 
BRANCH  26  27
ATOM     27  C   UNL     1       4.217   0.055   0.009  0.00  0.00    +0.054 C 
BRANCH  27  31
ATOM     28  C   UNL     1       0.867   2.704   0.093  0.00  0.00    +0.000 A 
ATOM     29  C   UNL     1       2.150   3.208   0.196  0.00  0.00    +0.000 A 
ATOM     30  C   UNL     1       3.234   2.351   0.169  0.00  0.00    +0.004 A 
ATOM     31  C   UNL     1       3.035   0.989   0.040  0.00  0.00    -0.046 A 
ATOM     32  C   UNL     1       1.752   0.484  -0.062  0.00  0.00    +0.004 A 
ATOM     33  C   UNL     1       0.668   1.342  -0.036  0.00  0.00    +0.000 A 
ENDBRANCH  27  31
ENDBRANCH  26  27
ENDBRANCH   1  26
TORSDOF 3
