REMARK  Name = ZINC01808788
REMARK  8 active torsions:
REMARK  status: ('A' for Active; 'I' for Inactive)
REMARK    1  A    between atoms: C_4  and  C_7
REMARK    2  A    between atoms: N_14  and  C_22
REMARK    3  A    between atoms: C_15  and  C_16
REMARK    4  A    between atoms: C_22  and  C_23
REMARK    5  A    between atoms: C_23  and  C_24
REMARK    6  A    between atoms: N_26  and  N_27
REMARK    7  A    between atoms: C_28  and  C_29
REMARK    8  A    between atoms: C_34  and  O_35
REMARK                            x       y       z     vdW  Elec       q    Type
REMARK                         _______ _______ _______ _____ _____    ______ ____
ROOT
ATOM      1  C   UNL     1       3.696  -0.686  -0.038  0.00  0.00    +0.015 A 
ATOM      2  C   UNL     1       4.699  -0.667  -1.113  0.00  0.00    +0.008 A 
ATOM      3  C   UNL     1       4.769  -0.034  -2.355  0.00  0.00    +0.010 A 
ATOM      4  C   UNL     1       5.864  -0.219  -3.151  0.00  0.00    +0.001 A 
ATOM      5  C   UNL     1       6.908  -1.033  -2.733  0.00  0.00    +0.002 A 
ATOM      6  C   UNL     1       6.859  -1.668  -1.512  0.00  0.00    +0.026 A 
ATOM      7  C   UNL     1       5.753  -1.493  -0.685  0.00  0.00    +0.050 A 
ATOM      8  N   UNL     1       5.425  -1.984   0.561  0.00  0.00    -0.339 N 
ATOM      9  C   UNL     1       4.201  -1.500   0.953  0.00  0.00    +0.058 A 
ENDROOT
BRANCH   1  13
ATOM     10  C   UNL     1      -0.017   1.379   0.010  0.00  0.00    +0.000 A 
ATOM     11  C   UNL     1       1.169   2.093   0.002  0.00  0.00    +0.001 A 
ATOM     12  C   UNL     1       2.377   1.429  -0.013  0.00  0.00    +0.008 A 
ATOM     13  C   UNL     1       2.403   0.034  -0.021  0.00  0.00    -0.015 A 
ATOM     14  C   UNL     1       1.204  -0.680  -0.013  0.00  0.00    +0.008 A 
ATOM     15  C   UNL     1       0.002  -0.004   0.002  0.00  0.00    +0.001 A 
ENDBRANCH   1  13
BRANCH   9  16
ATOM     16  C   UNL     1       3.530  -1.806   2.233  0.00  0.00    -0.001 A 
ATOM     17  C   UNL     1       3.496  -3.118   2.711  0.00  0.00    +0.010 A 
ATOM     18  C   UNL     1       2.868  -3.396   3.907  0.00  0.00    +0.001 A 
ATOM     19  C   UNL     1       2.272  -2.380   4.632  0.00  0.00    +0.000 A 
ATOM     20  C   UNL     1       2.302  -1.078   4.164  0.00  0.00    +0.001 A 
ATOM     21  C   UNL     1       2.932  -0.784   2.973  0.00  0.00    +0.010 A 
ENDBRANCH   9  16
BRANCH   8  22
ATOM     22  C   UNL     1       6.264  -2.886   1.354  0.00  0.00    +0.131 C 
BRANCH  22  23
ATOM     23  C   UNL     1       7.196  -2.063   2.247  0.00  0.00    +0.119 C 
BRANCH  23  24
ATOM     24  C   UNL     1       8.058  -2.991   3.063  0.00  0.00    +0.234 C 
ATOM     25  O   UNL     1       7.940  -4.192   2.942  0.00  0.00    -0.274 OA
ATOM     26  N   UNL     1       8.962  -2.486   3.926  0.00  0.00    -0.207 N 
ATOM     27  H   UNL     1       9.056  -1.526   4.023  0.00  0.00    +0.177 HD
BRANCH  26  28
ATOM     28  N   UNL     1       9.764  -3.349   4.685  0.00  0.00    -0.188 NA
ATOM     29  C   UNL     1      10.633  -2.862   5.517  0.00  0.00    +0.142 C 
BRANCH  29  30
ATOM     30  C   UNL     1      11.477  -3.770   6.314  0.00  0.00    +0.036 A 
ATOM     31  C   UNL     1      12.411  -3.251   7.215  0.00  0.00    +0.013 A 
ATOM     32  C   UNL     1      13.197  -4.106   7.959  0.00  0.00    +0.001 A 
ATOM     33  C   UNL     1      13.065  -5.476   7.817  0.00  0.00    +0.004 A 
ATOM     34  C   UNL     1      12.146  -6.002   6.929  0.00  0.00    +0.046 A 
ATOM     35  C   UNL     1      11.344  -5.158   6.178  0.00  0.00    +0.125 A 
BRANCH  35  36
ATOM     36  O   UNL     1      10.436  -5.674   5.310  0.00  0.00    -0.506 OA
ATOM     37  H   UNL     1      10.783  -5.819   4.419  0.00  0.00    +0.292 HD
ENDBRANCH  35  36
ENDBRANCH  29  30
ENDBRANCH  26  28
ENDBRANCH  23  24
ENDBRANCH  22  23
ENDBRANCH   8  22
TORSDOF 8
