REMARK  Name = ZINC09087677
REMARK  8 active torsions:
REMARK  status: ('A' for Active; 'I' for Inactive)
REMARK    1  A    between atoms: C_1  and  C_2
REMARK    2  A    between atoms: C_2  and  O_3
REMARK    3  A    between atoms: O_3  and  C_4
REMARK    4  A    between atoms: C_9  and  N_10
REMARK    5  A    between atoms: C_13  and  C_19
REMARK    6  A    between atoms: C_14  and  O_18
REMARK    7  A    between atoms: C_16  and  O_17
REMARK    8  A    between atoms: C_33  and  N_56
REMARK                            x       y       z     vdW  Elec       q    Type
REMARK                         _______ _______ _______ _____ _____    ______ ____
ROOT
ATOM      1  N   UNL     1       1.321   2.884   0.005  0.00  0.00    -0.227 N 
ATOM      2  C   UNL     1       2.539   3.466  -0.004  0.00  0.00    +0.267 A 
ATOM      3  O   UNL     1       2.646   4.683   0.002  0.00  0.00    -0.267 OA
ATOM      4  C   UNL     1       3.677   2.651  -0.019  0.00  0.00    +0.071 A 
ATOM      5  C   UNL     1       3.510   1.277  -0.025  0.00  0.00    +0.224 A 
ATOM      6  N   UNL     1       2.278   0.758  -0.010  0.00  0.00    -0.161 NA
ATOM      7  C   UNL     1       1.214   1.528  -0.001  0.00  0.00    +0.306 A 
ENDROOT
BRANCH   4   8
ATOM      8  C   UNL     1       5.056   3.257  -0.028  0.00  0.00    +0.021 C 
ATOM      9  C   UNL     1       5.282   4.026   1.252  0.00  0.00    +0.011 A 
ATOM     10  C   UNL     1       5.862   5.247   1.287  0.00  0.00    -0.022 A 
ATOM     11  C   UNL     1       5.903   5.662   2.671  0.00  0.00    +0.003 A 
ATOM     12  C   UNL     1       6.380   6.813   3.306  0.00  0.00    +0.010 A 
ATOM     13  C   UNL     1       6.251   6.868   4.672  0.00  0.00    +0.001 A 
ATOM     14  C   UNL     1       5.678   5.838   5.400  0.00  0.00    +0.002 A 
ATOM     15  C   UNL     1       5.198   4.688   4.798  0.00  0.00    +0.026 A 
ATOM     16  C   UNL     1       5.316   4.603   3.413  0.00  0.00    +0.047 A 
ATOM     17  N   UNL     1       4.954   3.633   2.522  0.00  0.00    -0.359 N 
ATOM     18  H   UNL     1       4.529   2.793   2.754  0.00  0.00    +0.166 HD
ATOM     19  C   UNL     1       6.347   5.972   0.057  0.00  0.00    +0.019 C 
ATOM     20  C   UNL     1       6.432   4.956  -1.090  0.00  0.00    -0.073 C 
ATOM     21  C   UNL     1       5.065   3.482  -2.441  0.00  0.00    -0.095 C 
ATOM     22  N   UNL     1       5.155   4.211  -1.159  0.00  0.00    +0.387 N 
ATOM     23  H   UNL     1       4.377   4.878  -1.100  0.00  0.00    -0.081 HD
ENDBRANCH   4   8
BRANCH   1  29
ATOM     24  C   UNL     1      -0.421   4.080  -1.178  0.00  0.00    +0.144 A 
ATOM     25  C   UNL     1      -1.564   4.864  -1.157  0.00  0.00    +0.048 A 
ATOM     26  C   UNL     1      -2.119   5.245   0.050  0.00  0.00    +0.004 A 
ATOM     27  C   UNL     1      -1.536   4.847   1.240  0.00  0.00    +0.002 A 
ATOM     28  C   UNL     1      -0.400   4.061   1.227  0.00  0.00    +0.030 A 
ATOM     29  C   UNL     1       0.165   3.678   0.020  0.00  0.00    +0.096 A 
BRANCH  24  30
ATOM     30  O   UNL     1       0.125   3.704  -2.364  0.00  0.00    -0.490 OA
BRANCH  30  32
ATOM     31  C   UNL     1       0.224   3.634  -4.778  0.00  0.00    +0.048 C 
ATOM     32  C   UNL     1      -0.530   4.153  -3.552  0.00  0.00    +0.226 C 
ENDBRANCH  30  32
ENDBRANCH  24  30
ENDBRANCH   1  29
BRANCH   7  33
ATOM     33  O   UNL     1      -0.011   0.963   0.007  0.00  0.00    -0.479 OA
ATOM     34  H   UNL     1       0.002  -0.004   0.002  0.00  0.00    +0.295 HD
ENDBRANCH   7  33
BRANCH   5  35
ATOM     35  O   UNL     1       4.591   0.462  -0.039  0.00  0.00    -0.492 OA
ATOM     36  H   UNL     1       4.373  -0.480  -0.042  0.00  0.00    +0.294 HD
ENDBRANCH   5  35
TORSDOF 6
