REMARK  Name = ZINC65062301
REMARK  11 active torsions:
REMARK  status: ('A' for Active; 'I' for Inactive)
REMARK    1  A    between atoms: C_1  and  C_2
REMARK    2  A    between atoms: C_2  and  N_3
REMARK    3  A    between atoms: N_6  and  C_9
REMARK    4  A    between atoms: C_9  and  C_10
REMARK    5  A    between atoms: C_10  and  C_11
REMARK    6  A    between atoms: C_11  and  N_12
REMARK    7  A    between atoms: C_13  and  C_15
REMARK    8  A    between atoms: C_15  and  C_17
REMARK    9  A    between atoms: C_15  and  C_18
REMARK   10  A    between atoms: N_21  and  S_24
REMARK   11  A    between atoms: S_24  and  C_27
REMARK                            x       y       z     vdW  Elec       q    Type
REMARK                         _______ _______ _______ _____ _____    ______ ____
ROOT
ATOM      1  C   UNL     1       5.063  -8.210  -5.700  0.00  0.00    +0.075 C 
ATOM      2  C   UNL     1       5.809  -8.622  -4.430  0.00  0.00    +0.017 C 
ENDROOT
BRANCH   1   3
ATOM      3  C   UNL     1       5.814  -8.734  -6.926  0.00  0.00    +0.003 C 
ATOM      4  C   UNL     1       5.069  -8.321  -8.197  0.00  0.00    +0.021 C 
ATOM      5  C   UNL     1       5.842  -8.817  -9.422  0.00  0.00    +0.110 C 
ATOM      6  N   UNL     1       6.056 -10.265  -9.292  0.00  0.00    -0.176 NA
ATOM      7  C   UNL     1       6.684 -10.779  -8.067  0.00  0.00    +0.110 C 
ATOM      8  C   UNL     1       5.901 -10.261  -6.857  0.00  0.00    +0.021 C 
BRANCH   6   9
ATOM      9  S   UNL     1       5.598 -11.298 -10.503  0.00  0.00    +0.067 S 
ATOM     10  O   UNL     1       5.404 -12.569  -9.899  0.00  0.00    -0.152 OA
ATOM     11  O   UNL     1       4.574 -10.637 -11.234  0.00  0.00    -0.152 OA
BRANCH   9  12
ATOM     12  C   UNL     1       6.971 -11.462 -11.595  0.00  0.00    +0.144 A 
ATOM     13  C   UNL     1       7.983 -12.362 -11.562  0.00  0.00    +0.038 A 
ATOM     14  C   UNL     1       8.965 -12.303 -12.534  0.00  0.00    +0.030 A 
ATOM     15  C   UNL     1       8.885 -11.344 -13.491  0.00  0.00    +0.080 A 
ATOM     16  S   UNL     1       7.384 -10.492 -13.035  0.00  0.00    -0.057 S 
ATOM     17 CL   UNL     1       9.959 -11.032 -14.819  0.00  0.00    -0.076 Cl
ENDBRANCH   9  12
ENDBRANCH   6   9
ENDBRANCH   1   3
BRANCH   1  19
ATOM     18  N   UNL     1       4.354  -6.023  -4.788  0.00  0.00    -0.315 N 
ATOM     19  C   UNL     1       4.977  -6.707  -5.768  0.00  0.00    +0.216 C 
ATOM     20  O   UNL     1       5.469  -6.114  -6.704  0.00  0.00    -0.276 OA
ATOM     21  H   UNL     1       3.961  -6.498  -4.040  0.00  0.00    +0.149 HD
BRANCH  18  22
ATOM     22  C   UNL     1       4.271  -4.562  -4.854  0.00  0.00    +0.105 C 
BRANCH  22  23
ATOM     23  C   UNL     1       3.520  -4.038  -3.629  0.00  0.00    +0.034 C 
BRANCH  23  24
ATOM     24  C   UNL     1       3.433  -2.512  -3.697  0.00  0.00    +0.086 C 
BRANCH  24  28
ATOM     25  N   UNL     1       0.690  -0.478  -1.207  0.00  0.00    +0.381 N 
ATOM     26  C   UNL     1       2.100  -0.069  -1.160  0.00  0.00    -0.063 C 
ATOM     27  C   UNL     1       2.812  -0.546  -2.427  0.00  0.00    +0.066 C 
ATOM     28  N   UNL     1       2.711  -2.009  -2.521  0.00  0.00    -0.306 NA
ATOM     29  C   UNL     1       1.305  -2.435  -2.544  0.00  0.00    +0.066 C 
ATOM     30  C   UNL     1       0.605  -1.943  -1.275  0.00  0.00    -0.063 C 
ATOM     31  H   UNL     1       0.251  -0.077  -2.022  0.00  0.00    -0.082 HD
BRANCH  25  33
ATOM     32  C   UNL     1      -0.019   1.526   0.010  0.00  0.00    -0.017 C 
ATOM     33  C   UNL     1       0.002  -0.004   0.002  0.00  0.00    -0.082 C 
ENDBRANCH  25  33
ENDBRANCH  24  28
ENDBRANCH  23  24
ENDBRANCH  22  23
ENDBRANCH  18  22
ENDBRANCH   1  19
TORSDOF 9
