REMARK  Name = ZINC39430375
REMARK  9 active torsions:
REMARK  status: ('A' for Active; 'I' for Inactive)
REMARK    1  A    between atoms: C_1  and  C_2
REMARK    2  A    between atoms: C_4  and  C_9
REMARK    3  A    between atoms: C_5  and  C_8
REMARK    4  A    between atoms: C_9  and  C_10
REMARK    5  A    between atoms: C_10  and  N_11
REMARK    6  A    between atoms: N_11  and  C_12
REMARK    7  A    between atoms: C_12  and  C_13
REMARK    8  A    between atoms: N_15  and  C_27
REMARK    9  A    between atoms: C_17  and  C_18
REMARK                            x       y       z     vdW  Elec       q    Type
REMARK                         _______ _______ _______ _____ _____    ______ ____
ROOT
ATOM      1  C   UNL     1      -2.305  -1.954  -6.386  0.00  0.00    -0.019 A 
ATOM      2  C   UNL     1      -3.387  -1.243  -6.771  0.00  0.00    +0.116 A 
ATOM      3  N   UNL     1      -3.383  -1.182  -8.129  0.00  0.00    -0.239 N 
ATOM      4  N   UNL     1      -2.260  -1.880  -8.591  0.00  0.00    -0.166 NA
ATOM      5  C   UNL     1      -1.606  -2.342  -7.546  0.00  0.00    +0.095 A 
ENDROOT
BRANCH   5   6
ATOM      6  C   UNL     1      -0.353  -3.136  -7.583  0.00  0.00    +0.006 A 
ATOM      7  C   UNL     1      -0.207  -4.249  -6.758  0.00  0.00    +0.014 A 
ATOM      8  C   UNL     1       0.959  -4.987  -6.794  0.00  0.00    +0.050 A 
ATOM      9  C   UNL     1       1.988  -4.623  -7.649  0.00  0.00    +0.166 A 
ATOM     10  C   UNL     1       1.847  -3.510  -8.476  0.00  0.00    +0.167 A 
ATOM     11  C   UNL     1       0.678  -2.772  -8.448  0.00  0.00    +0.059 A 
ATOM     12  O   UNL     1       2.988  -3.367  -9.213  0.00  0.00    -0.453 OA
ATOM     13  C   UNL     1       3.984  -4.157  -8.536  0.00  0.00    +0.466 C 
ATOM     14  O   UNL     1       3.217  -5.176  -7.868  0.00  0.00    -0.453 OA
ENDBRANCH   5   6
BRANCH   3  15
ATOM     15  C   UNL     1      -4.336  -0.534  -8.926  0.00  0.00    +0.065 A 
ATOM     16  C   UNL     1      -5.403   0.129  -8.335  0.00  0.00    +0.028 A 
ATOM     17  C   UNL     1      -6.340   0.766  -9.124  0.00  0.00    +0.002 A 
ATOM     18  C   UNL     1      -6.217   0.744 -10.502  0.00  0.00    +0.000 A 
ATOM     19  C   UNL     1      -5.155   0.084 -11.093  0.00  0.00    +0.002 A 
ATOM     20  C   UNL     1      -4.211  -0.549 -10.309  0.00  0.00    +0.028 A 
ENDBRANCH   3  15
BRANCH   1  21
ATOM     21  C   UNL     1      -1.913  -2.272  -4.966  0.00  0.00    -0.043 C 
BRANCH  21  22
ATOM     22  N   UNL     1      -0.807  -1.395  -4.556  0.00  0.00    +0.382 N 
ATOM     23  H   UNL     1      -1.105  -0.433  -4.606  0.00  0.00    -0.085 HD
ATOM     24  H   UNL     1      -0.020  -1.537  -5.170  0.00  0.00    -0.085 HD
BRANCH  22  25
ATOM     25  C   UNL     1      -0.415  -1.715  -3.176  0.00  0.00    -0.078 C 
BRANCH  25  26
ATOM     26  C   UNL     1       0.736  -0.802  -2.749  0.00  0.00    +0.016 C 
BRANCH  26  29
ATOM     27  C   UNL     1       0.680   0.911   0.050  0.00  0.00    +0.039 C 
ATOM     28  C   UNL     1       0.530  -0.609  -0.044  0.00  0.00    +0.153 C 
ATOM     29  C   UNL     1       1.138  -1.130  -1.334  0.00  0.00    -0.023 C 
ATOM     30  C   UNL     1       2.112  -1.946  -0.924  0.00  0.00    +0.061 C 
ATOM     31  N   UNL     1       2.169  -1.984   0.426  0.00  0.00    -0.159 NA
ATOM     32  N   UNL     1       1.330  -1.277   0.997  0.00  0.00    -0.180 NA
ATOM     33  C   UNL     1       3.023  -2.719  -1.842  0.00  0.00    +0.067 C 
ENDBRANCH  26  29
ENDBRANCH  25  26
ENDBRANCH  22  25
ENDBRANCH  21  22
ENDBRANCH   1  21
TORSDOF 7
