REMARK  Name = ZINC64656994
REMARK  7 active torsions:
REMARK  status: ('A' for Active; 'I' for Inactive)
REMARK    1  A    between atoms: C_7  and  C_10
REMARK    2  A    between atoms: C_10  and  C_11
REMARK    3  A    between atoms: C_11  and  N_12
REMARK    4  A    between atoms: C_13  and  C_15
REMARK    5  A    between atoms: C_15  and  C_16
REMARK    6  A    between atoms: C_16  and  N_17
REMARK    7  A    between atoms: C_21  and  C_22
REMARK                            x       y       z     vdW  Elec       q    Type
REMARK                         _______ _______ _______ _____ _____    ______ ____
ROOT
ATOM      1  C   UNL     1      -1.587  -6.505  -4.632  0.00  0.00    +0.115 C 
ENDROOT
BRANCH   1   3
ATOM      2  N   UNL     1      -0.280  -4.463  -4.144  0.00  0.00    -0.315 N 
ATOM      3  C   UNL     1      -0.597  -5.438  -5.019  0.00  0.00    +0.215 C 
ATOM      4  O   UNL     1      -0.084  -5.456  -6.118  0.00  0.00    -0.276 OA
ATOM      5  H   UNL     1      -0.690  -4.449  -3.265  0.00  0.00    +0.149 HD
BRANCH   2   6
ATOM      6  C   UNL     1       0.683  -3.425  -4.520  0.00  0.00    +0.108 C 
BRANCH   6   7
ATOM      7  C   UNL     1       0.863  -2.449  -3.355  0.00  0.00    +0.052 C 
BRANCH   7  14
ATOM      8  C   UNL     1       0.356   1.768  -5.091  0.00  0.00    +0.001 A 
ATOM      9  C   UNL     1       1.569   2.436  -5.307  0.00  0.00    +0.002 A 
ATOM     10  C   UNL     1       2.767   1.882  -5.026  0.00  0.00    +0.026 A 
ATOM     11  C   UNL     1       2.843   0.567  -4.489  0.00  0.00    +0.043 A 
ATOM     12  N   UNL     1       3.865  -0.176  -4.140  0.00  0.00    -0.380 N 
ATOM     13  C   UNL     1       3.361  -1.460  -3.642  0.00  0.00    +0.144 C 
ATOM     14  C   UNL     1       1.854  -1.382  -3.743  0.00  0.00    -0.040 C 
ATOM     15  C   UNL     1       1.575  -0.160  -4.251  0.00  0.00    -0.001 A 
ATOM     16  C   UNL     1       0.315   0.515  -4.584  0.00  0.00    +0.010 A 
ATOM     17  H   UNL     1       4.798   0.080  -4.202  0.00  0.00    +0.160 HD
ENDBRANCH   7  14
ENDBRANCH   6   7
ENDBRANCH   2   6
ENDBRANCH   1   3
BRANCH   1  18
ATOM     18  C   UNL     1      -1.767  -7.481  -5.796  0.00  0.00    +0.124 C 
BRANCH  18  19
ATOM     19  N   UNL     1      -2.730  -8.519  -5.420  0.00  0.00    -0.255 N 
ATOM     20  C   UNL     1      -2.295  -9.623  -4.838  0.00  0.00    +0.258 C 
ATOM     21  O   UNL     1      -1.114  -9.802  -4.606  0.00  0.00    -0.269 OA
ATOM     22  C   UNL     1      -3.317 -10.631  -4.484  0.00  0.00    +0.077 C 
ATOM     23  C   UNL     1      -3.170 -11.840  -3.888  0.00  0.00    +0.028 C 
ATOM     24  S   UNL     1      -4.802  -9.817  -5.057  0.00  0.00    -0.061 S 
ATOM     25  C   UNL     1      -4.041  -8.323  -5.670  0.00  0.00    +0.121 C 
ATOM     26  S   UNL     1      -4.792  -6.970  -6.402  0.00  0.00    -0.027 S 
BRANCH  23  27
ATOM     27  C   UNL     1      -4.312 -12.761  -3.800  0.00  0.00    -0.022 A 
ATOM     28  C   UNL     1      -5.497 -12.479  -4.490  0.00  0.00    +0.008 A 
ATOM     29  C   UNL     1      -6.564 -13.348  -4.404  0.00  0.00    +0.002 A 
ATOM     30  C   UNL     1      -6.467 -14.496  -3.637  0.00  0.00    +0.020 A 
ATOM     31  C   UNL     1      -5.298 -14.783  -2.950  0.00  0.00    +0.042 A 
ATOM     32  C   UNL     1      -4.219 -13.926  -3.032  0.00  0.00    +0.028 A 
ATOM     33 CL   UNL     1      -5.189 -16.225  -1.991  0.00  0.00    -0.084 Cl
ENDBRANCH  23  27
ENDBRANCH  18  19
ENDBRANCH   1  18
TORSDOF 7
