REMARK  Name = ZINC63857816
REMARK  7 active torsions:
REMARK  status: ('A' for Active; 'I' for Inactive)
REMARK    1  A    between atoms: C_7  and  C_10
REMARK    2  A    between atoms: C_10  and  C_11
REMARK    3  A    between atoms: C_11  and  C_13
REMARK    4  A    between atoms: C_11  and  N_28
REMARK    5  A    between atoms: N_15  and  N_16
REMARK    6  A    between atoms: C_17  and  C_18
REMARK    7  A    between atoms: C_29  and  C_31
REMARK                            x       y       z     vdW  Elec       q    Type
REMARK                         _______ _______ _______ _____ _____    ______ ____
ROOT
ATOM      1  C   UNL     1       0.457  -3.653  -1.462  0.00  0.00    +0.165 C 
ENDROOT
BRANCH   1   2
ATOM      2  C   UNL     1      -0.385  -4.904  -1.452  0.00  0.00    +0.253 C 
ATOM      3  O   UNL     1      -1.575  -4.836  -1.679  0.00  0.00    -0.272 OA
ATOM      4  N   UNL     1       0.185  -6.097  -1.193  0.00  0.00    -0.205 N 
ATOM      5  H   UNL     1       1.136  -6.151  -1.011  0.00  0.00    +0.177 HD
BRANCH   4   6
ATOM      6  N   UNL     1      -0.597  -7.260  -1.184  0.00  0.00    -0.188 NA
ATOM      7  C   UNL     1      -0.049  -8.409  -0.934  0.00  0.00    +0.138 C 
BRANCH   7   8
ATOM      8  C   UNL     1      -0.872  -9.632  -0.925  0.00  0.00    -0.002 A 
ATOM      9  C   UNL     1      -2.241  -9.557  -1.191  0.00  0.00    +0.013 A 
ATOM     10  C   UNL     1      -3.008 -10.703  -1.180  0.00  0.00    +0.050 A 
ATOM     11  C   UNL     1      -2.425 -11.933  -0.906  0.00  0.00    +0.162 A 
ATOM     12  C   UNL     1      -1.061 -12.015  -0.643  0.00  0.00    +0.163 A 
ATOM     13  C   UNL     1      -0.284 -10.870  -0.656  0.00  0.00    +0.059 A 
ATOM     14  O   UNL     1      -0.473 -13.215  -0.380  0.00  0.00    -0.485 OA
ATOM     15  C   UNL     1      -1.343 -14.292  -0.014  0.00  0.00    +0.270 C 
ATOM     16  C   UNL     1      -2.525 -14.308  -0.993  0.00  0.00    +0.270 C 
ATOM     17  O   UNL     1      -3.203 -13.050  -0.898  0.00  0.00    -0.485 OA
ENDBRANCH   7   8
ENDBRANCH   4   6
ENDBRANCH   1   2
BRANCH   1  18
ATOM     18  N   UNL     1      -0.238  -2.603  -2.210  0.00  0.00    -0.299 N 
ATOM     19  C   UNL     1      -1.451  -2.176  -1.805  0.00  0.00    +0.251 C 
ATOM     20  O   UNL     1      -1.969  -2.664  -0.818  0.00  0.00    -0.270 OA
ATOM     21  H   UNL     1       0.175  -2.214  -2.997  0.00  0.00    +0.150 HD
BRANCH  19  22
ATOM     22  C   UNL     1      -2.146  -1.125  -2.554  0.00  0.00    +0.074 A 
ATOM     23  C   UNL     1      -3.381  -0.547  -2.306  0.00  0.00    +0.021 A 
ATOM     24  C   UNL     1      -3.774   0.426  -3.193  0.00  0.00    +0.008 A 
ATOM     25  C   UNL     1      -2.953   0.749  -4.223  0.00  0.00    +0.046 A 
ATOM     26  S   UNL     1      -1.619  -0.252  -4.016  0.00  0.00    -0.092 S 
ENDBRANCH  19  22
ENDBRANCH   1  18
BRANCH   1  27
ATOM     27  C   UNL     1       0.691  -3.186  -0.024  0.00  0.00    +0.065 C 
BRANCH  27  34
ATOM     28  C   UNL     1      -0.016   1.348   0.009  0.00  0.00    +0.001 A 
ATOM     29  C   UNL     1       1.166   2.101   0.002  0.00  0.00    +0.002 A 
ATOM     30  C   UNL     1       2.391   1.535  -0.013  0.00  0.00    +0.026 A 
ATOM     31  C   UNL     1       2.529   0.120  -0.022  0.00  0.00    +0.043 A 
ATOM     32  N   UNL     1       3.587  -0.654  -0.037  0.00  0.00    -0.380 N 
ATOM     33  C   UNL     1       3.143  -2.053  -0.041  0.00  0.00    +0.144 C 
ATOM     34  C   UNL     1       1.631  -2.008  -0.025  0.00  0.00    -0.039 C 
ATOM     35  C   UNL     1       1.295  -0.698  -0.014  0.00  0.00    -0.001 A 
ATOM     36  C   UNL     1       0.002  -0.004   0.002  0.00  0.00    +0.010 A 
ATOM     37  H   UNL     1       4.509  -0.353  -0.045  0.00  0.00    +0.160 HD
ENDBRANCH  27  34
ENDBRANCH   1  27
TORSDOF 7
