REMARK  Name = ZINC12372020
REMARK  10 active torsions:
REMARK  status: ('A' for Active; 'I' for Inactive)
REMARK    1  A    between atoms: C_1  and  C_2
REMARK    2  A    between atoms: C_3  and  C_23
REMARK    3  A    between atoms: C_6  and  N_10
REMARK    4  A    between atoms: C_7  and  C_8
REMARK    5  A    between atoms: C_11  and  C_13
REMARK    6  A    between atoms: C_13  and  S_14
REMARK    7  A    between atoms: S_14  and  C_15
REMARK    8  A    between atoms: C_18  and  C_22
REMARK    9  A    between atoms: C_19  and  C_21
REMARK   10  A    between atoms: C_23  and  C_24
REMARK                            x       y       z     vdW  Elec       q    Type
REMARK                         _______ _______ _______ _____ _____    ______ ____
ROOT
ATOM      1  C   UNL     1      -0.013   1.086   0.008  0.00  0.00    +0.047 C 
ATOM      2  C   UNL     1      -0.718   1.572   1.248  0.00  0.00    -0.010 A 
ATOM      3  C   UNL     1      -0.155   1.840   2.437  0.00  0.00    +0.026 A 
ATOM      4  N   UNL     1      -1.123   2.259   3.312  0.00  0.00    -0.345 N 
ATOM      5  H   UNL     1      -0.965   2.512   4.235  0.00  0.00    +0.167 HD
ATOM      6  C   UNL     1      -2.334   2.268   2.699  0.00  0.00    +0.121 A 
ATOM      7  C   UNL     1      -2.153   1.850   1.388  0.00  0.00    +0.094 A 
ENDROOT
BRANCH   6   8
ATOM      8  N   UNL     1      -3.540   2.636   3.279  0.00  0.00    -0.270 N 
ATOM      9  C   UNL     1      -3.575   3.030   4.567  0.00  0.00    +0.229 C 
ATOM     10  O   UNL     1      -2.553   3.062   5.220  0.00  0.00    -0.275 OA
ATOM     11  H   UNL     1      -4.357   2.610   2.757  0.00  0.00    +0.156 HD
BRANCH   9  12
ATOM     12  C   UNL     1      -4.884   3.429   5.197  0.00  0.00    +0.173 C 
BRANCH  12  13
ATOM     13  S   UNL     1      -4.604   3.904   6.921  0.00  0.00    -0.079 S 
BRANCH  13  14
ATOM     14  C   UNL     1      -6.251   4.311   7.398  0.00  0.00    +0.167 A 
ATOM     15  N   UNL     1      -6.641   4.739   8.630  0.00  0.00    -0.337 N 
ATOM     16  H   UNL     1      -6.051   4.877   9.426  0.00  0.00    +0.168 HD
ATOM     17  C   UNL     1      -8.001   4.945   8.573  0.00  0.00    +0.036 A 
ATOM     18  C   UNL     1      -8.393   4.633   7.326  0.00  0.00    +0.060 A 
ATOM     19  N   UNL     1      -7.311   4.249   6.627  0.00  0.00    -0.227 NA
ATOM     20  C   UNL     1      -9.804   4.701   6.801  0.00  0.00    +0.067 C 
ATOM     21  C   UNL     1      -8.883   5.424   9.697  0.00  0.00    +0.065 C 
ENDBRANCH  13  14
ENDBRANCH  12  13
ENDBRANCH   9  12
ENDBRANCH   6   8
BRANCH   7  22
ATOM     22  C   UNL     1      -3.160   1.715   0.379  0.00  0.00    +0.103 C 
ATOM     23  N   UNL     1      -3.958   1.607  -0.422  0.00  0.00    -0.191 NA
ENDBRANCH   7  22
BRANCH   3  24
ATOM     24  C   UNL     1       1.310   1.702   2.759  0.00  0.00    +0.088 C 
BRANCH  24  25
ATOM     25  C   UNL     1       2.035   2.958   2.347  0.00  0.00    -0.042 A 
ATOM     26  C   UNL     1       2.567   3.063   1.076  0.00  0.00    +0.004 A 
ATOM     27  C   UNL     1       3.228   4.216   0.696  0.00  0.00    +0.000 A 
ATOM     28  C   UNL     1       3.366   5.260   1.591  0.00  0.00    +0.000 A 
ATOM     29  C   UNL     1       2.839   5.153   2.865  0.00  0.00    +0.000 A 
ATOM     30  C   UNL     1       2.174   4.002   3.243  0.00  0.00    +0.004 A 
ENDBRANCH  24  25
ENDBRANCH   3  24
TORSDOF 7
