REMARK  Name = ZINC22457123
REMARK  4 active torsions:
REMARK  status: ('A' for Active; 'I' for Inactive)
REMARK    1  A    between atoms: C_1  and  C_2
REMARK    2  A    between atoms: C_5  and  N_9
REMARK    3  A    between atoms: C_7  and  C_8
REMARK    4  A    between atoms: C_26  and  C_31
REMARK                            x       y       z     vdW  Elec       q    Type
REMARK                         _______ _______ _______ _____ _____    ______ ____
ROOT
ATOM      1  N   UNL     1       1.558   4.781   0.022  0.00  0.00    -0.297 N 
ATOM      2  C   UNL     1       0.725   3.664   0.025  0.00  0.00    +0.156 A 
ATOM      3  C   UNL     1       1.140   2.275  -0.002  0.00  0.00    +0.080 A 
ATOM      4  C   UNL     1      -0.019   1.503   0.015  0.00  0.00    +0.061 A 
ATOM      5  N   UNL     1      -1.056   2.343   0.051  0.00  0.00    -0.201 N 
ATOM      6  N   UNL     1      -0.590   3.665   0.053  0.00  0.00    -0.148 NA
ATOM      7  C   UNL     1      -2.392   1.965   0.080  0.00  0.00    +0.230 A 
ATOM      8  N   UNL     1      -3.450   2.827   0.117  0.00  0.00    -0.322 N 
ATOM      9  H   UNL     1      -3.274   3.913   0.126  0.00  0.00    +0.169 HD
ATOM     10  C   UNL     1      -4.602   2.062   0.135  0.00  0.00    +0.068 A 
ATOM     11  C   UNL     1      -5.956   2.362   0.171  0.00  0.00    +0.028 A 
ATOM     12  C   UNL     1      -6.885   1.343   0.180  0.00  0.00    +0.002 A 
ATOM     13  C   UNL     1      -6.474   0.018   0.152  0.00  0.00    +0.002 A 
ATOM     14  C   UNL     1      -5.135  -0.299   0.116  0.00  0.00    +0.030 A 
ATOM     15  C   UNL     1      -4.181   0.722   0.107  0.00  0.00    +0.091 A 
ATOM     16  N   UNL     1      -2.824   0.731   0.069  0.00  0.00    -0.211 NA
ATOM     17  C   UNL     1       0.001  -0.004   0.000  0.00  0.00    +0.068 C 
ATOM     18  C   UNL     1       1.373  -0.494   0.470  0.00  0.00    +0.068 C 
ATOM     19  C   UNL     1       2.493   0.172  -0.336  0.00  0.00    +0.091 C 
ATOM     20  C   UNL     1       2.474   1.666  -0.042  0.00  0.00    +0.169 C 
ATOM     21  O   UNL     1       3.488   2.305   0.144  0.00  0.00    -0.292 OA
ATOM     22  H   UNL     1       2.649   4.654   0.090  0.00  0.00    +0.154 HD
ENDROOT
BRANCH   1  27
ATOM     23  C   UNL     1      -0.673   9.982  -0.342  0.00  0.00    +0.044 C 
ATOM     24  C   UNL     1      -0.081   8.600  -0.245  0.00  0.00    -0.047 A 
ATOM     25  C   UNL     1      -0.774   7.515  -0.748  0.00  0.00    +0.005 A 
ATOM     26  C   UNL     1      -0.232   6.248  -0.666  0.00  0.00    +0.023 A 
ATOM     27  C   UNL     1       1.008   6.062  -0.067  0.00  0.00    +0.033 A 
ATOM     28  C   UNL     1       1.702   7.155   0.437  0.00  0.00    +0.027 A 
ATOM     29  C   UNL     1       1.156   8.420   0.347  0.00  0.00    -0.046 A 
ATOM     30  C   UNL     1       1.909   9.606   0.894  0.00  0.00    +0.044 C 
ENDBRANCH   1  27
BRANCH  18  31
ATOM     31  C   UNL     1       1.455  -1.988   0.291  0.00  0.00    +0.109 A 
ATOM     32  C   UNL     1       1.662  -2.888   1.269  0.00  0.00    +0.045 A 
ATOM     33  C   UNL     1       1.665  -4.163   0.659  0.00  0.00    +0.041 A 
ATOM     34  C   UNL     1       1.459  -3.966  -0.656  0.00  0.00    +0.195 A 
ATOM     35  O   UNL     1       1.327  -2.648  -0.872  0.00  0.00    -0.468 OA
ENDBRANCH  18  31
TORSDOF 2
