REMARK  Name = ZINC65421757
REMARK  5 active torsions:
REMARK  status: ('A' for Active; 'I' for Inactive)
REMARK    1  A    between atoms: C_1  and  O_2
REMARK    2  A    between atoms: O_2  and  C_3
REMARK    3  A    between atoms: C_3  and  C_4
REMARK    4  A    between atoms: C_4  and  C_6
REMARK    5  A    between atoms: C_4  and  N_12
REMARK                            x       y       z     vdW  Elec       q    Type
REMARK                         _______ _______ _______ _____ _____    ______ ____
ROOT
ATOM      1  N   UNL     1      -0.447  -2.482   1.235  0.00  0.00    -0.304 N 
ATOM      2  C   UNL     1      -1.155  -2.798   2.363  0.00  0.00    +0.196 A 
ATOM      3  N   UNL     1      -0.485  -3.120   3.502  0.00  0.00    -0.295 N 
ATOM      4  H   UNL     1       0.485  -3.126   3.510  0.00  0.00    +0.172 HD
ATOM      5  C   UNL     1      -1.175  -3.432   4.622  0.00  0.00    +0.256 A 
ATOM      6  O   UNL     1      -0.595  -3.724   5.655  0.00  0.00    -0.267 OA
ATOM      7  C   UNL     1      -2.578  -3.410   4.564  0.00  0.00    +0.036 A 
ATOM      8  C   UNL     1      -3.194  -3.085   3.402  0.00  0.00    +0.051 A 
ATOM      9  N   UNL     1      -2.474  -2.779   2.324  0.00  0.00    -0.221 NA
ATOM     10  C   UNL     1      -4.707  -3.067   3.333  0.00  0.00    +0.037 C 
ATOM     11  C   UNL     1      -5.208  -4.511   3.443  0.00  0.00    -0.076 C 
ATOM     12  N   UNL     1      -5.339  -4.913   4.832  0.00  0.00    +0.380 N 
ATOM     13  C   UNL     1      -4.089  -5.092   5.551  0.00  0.00    -0.078 C 
ATOM     14  C   UNL     1      -3.398  -3.745   5.791  0.00  0.00    +0.023 C 
ATOM     15  H   UNL     1       0.523  -2.493   1.252  0.00  0.00    +0.150 HD
ATOM     16  H   UNL     1      -5.884  -4.214   5.315  0.00  0.00    -0.086 HD
ATOM     17  H   UNL     1      -5.849  -5.783   4.863  0.00  0.00    -0.086 HD
ENDROOT
BRANCH   1  18
ATOM     18  C   UNL     1      -1.154  -2.126   0.002  0.00  0.00    +0.147 C 
BRANCH  18  19
ATOM     19  C   UNL     1      -0.287  -2.456  -1.187  0.00  0.00    +0.064 A 
ATOM     20  C   UNL     1      -0.876  -2.718  -2.409  0.00  0.00    +0.025 A 
ATOM     21  C   UNL     1      -0.070  -3.019  -3.496  0.00  0.00    +0.003 A 
ATOM     22  C   UNL     1       1.305  -3.047  -3.311  0.00  0.00    +0.020 A 
ATOM     23  C   UNL     1       1.821  -2.774  -2.059  0.00  0.00    +0.111 A 
ATOM     24  N   UNL     1       1.024  -2.485  -1.049  0.00  0.00    -0.258 NA
ENDBRANCH  18  19
BRANCH  18  25
ATOM     25  C   UNL     1      -1.466  -0.629   0.006  0.00  0.00    +0.188 C 
BRANCH  25  27
ATOM     26  C   UNL     1      -0.425   1.530  -0.031  0.00  0.00    +0.194 C 
ATOM     27  O   UNL     1      -0.245   0.113  -0.032  0.00  0.00    -0.381 OA
ENDBRANCH  25  27
ENDBRANCH  18  25
ENDBRANCH   1  18
TORSDOF 4
