REMARK  Name = ZINC11970373
REMARK  9 active torsions:
REMARK  status: ('A' for Active; 'I' for Inactive)
REMARK    1  A    between atoms: C_1  and  C_2
REMARK    2  A    between atoms: C_6  and  C_8
REMARK    3  A    between atoms: C_10  and  C_15
REMARK    4  A    between atoms: C_15  and  C_17
REMARK    5  A    between atoms: C_19  and  C_22
REMARK    6  A    between atoms: C_22  and  N_23
REMARK    7  A    between atoms: C_24  and  C_26
REMARK    8  A    between atoms: C_26  and  C_27
REMARK    9  A    between atoms: C_30  and  C_36
REMARK                            x       y       z     vdW  Elec       q    Type
REMARK                         _______ _______ _______ _____ _____    ______ ____
ROOT
ATOM      1  C   UNL     1       5.220   6.240   2.153  0.00  0.00    +0.044 C 
ATOM      2  C   UNL     1       4.427   4.976   1.940  0.00  0.00    -0.049 A 
ATOM      3  C   UNL     1       3.348   4.973   1.072  0.00  0.00    +0.010 A 
ATOM      4  C   UNL     1       2.620   3.820   0.875  0.00  0.00    -0.001 A 
ATOM      5  C   UNL     1       2.947   2.648   1.542  0.00  0.00    +0.132 A 
ATOM      6  C   UNL     1       4.042   2.654   2.418  0.00  0.00    +0.027 A 
ATOM      7  C   UNL     1       4.775   3.821   2.609  0.00  0.00    +0.015 A 
ATOM      8  O   UNL     1       2.091   1.641   1.221  0.00  0.00    -0.486 OA
ATOM      9  C   UNL     1       1.416   1.966  -0.007  0.00  0.00    +0.195 C 
ATOM     10  C   UNL     1       1.418   3.513   0.001  0.00  0.00    +0.085 C 
ENDROOT
BRANCH   6  11
ATOM     11  C   UNL     1       4.420   1.414   3.141  0.00  0.00    +0.021 A 
ATOM     12  C   UNL     1       4.327   1.361   4.527  0.00  0.00    +0.022 A 
ATOM     13  C   UNL     1       4.679   0.189   5.200  0.00  0.00    +0.018 A 
ATOM     14  C   UNL     1       5.132  -0.921   4.476  0.00  0.00    +0.014 A 
ATOM     15  C   UNL     1       5.227  -0.858   3.103  0.00  0.00    +0.039 A 
ATOM     16  C   UNL     1       4.875   0.300   2.430  0.00  0.00    +0.131 A 
ATOM     17  F   UNL     1       4.970   0.353   1.084  0.00  0.00    -0.205 F 
BRANCH  13  18
ATOM     18  C   UNL     1       4.578   0.122   6.665  0.00  0.00    +0.160 C 
ATOM     19  O   UNL     1       4.792  -0.924   7.241  0.00  0.00    -0.292 OA
ATOM     20  C   UNL     1       4.208   1.353   7.452  0.00  0.00    +0.091 C 
ENDBRANCH  13  18
ENDBRANCH   6  11
BRANCH   9  21
ATOM     21  C   UNL     1      -0.015   1.425   0.001  0.00  0.00    +0.149 C 
BRANCH  21  22
ATOM     22  N   UNL     1       0.016  -0.039  -0.007  0.00  0.00    -0.312 N 
ATOM     23  C   UNL     1      -1.137  -0.738  -0.001  0.00  0.00    +0.215 C 
ATOM     24  O   UNL     1      -2.200  -0.154   0.010  0.00  0.00    -0.276 OA
ATOM     25  H   UNL     1       0.866  -0.506  -0.016  0.00  0.00    +0.149 HD
BRANCH  23  26
ATOM     26  C   UNL     1      -1.105  -2.244  -0.009  0.00  0.00    +0.118 C 
BRANCH  26  27
ATOM     27  C   UNL     1      -2.536  -2.785  -0.001  0.00  0.00    +0.082 C 
ATOM     28  C   UNL     1      -2.506  -4.313   0.108  0.00  0.00    +0.044 C 
ATOM     29  C   UNL     1      -3.941  -4.838  -0.002  0.00  0.00    +0.071 C 
ATOM     30  N   UNL     1      -4.538  -4.348  -1.245  0.00  0.00    -0.324 N 
ATOM     31  C   UNL     1      -4.158  -3.182  -1.789  0.00  0.00    +0.131 C 
ATOM     32  S   UNL     1      -4.912  -2.666  -3.237  0.00  0.00    -0.019 S 
ATOM     33  N   UNL     1      -3.210  -2.405  -1.245  0.00  0.00    -0.323 N 
ATOM     34  C   UNL     1      -4.761  -4.341   1.190  0.00  0.00    +0.028 C 
ATOM     35  H   UNL     1      -5.224  -4.876  -1.684  0.00  0.00    +0.148 HD
ATOM     36  H   UNL     1      -2.965  -1.576  -1.683  0.00  0.00    +0.148 HD
ENDBRANCH  26  27
ENDBRANCH  23  26
ENDBRANCH  21  22
ENDBRANCH   9  21
TORSDOF 6
