REMARK  Name = ZINC08568271
REMARK  11 active torsions:
REMARK  status: ('A' for Active; 'I' for Inactive)
REMARK    1  A    between atoms: C_1  and  C_2
REMARK    2  A    between atoms: C_2  and  C_3
REMARK    3  A    between atoms: C_3  and  C_4
REMARK    4  A    between atoms: C_11  and  N_36
REMARK    5  A    between atoms: C_12  and  C_34
REMARK    6  A    between atoms: C_13  and  C_15
REMARK    7  A    between atoms: C_18  and  O_32
REMARK    8  A    between atoms: C_19  and  C_21
REMARK    9  A    between atoms: C_21  and  S_22
REMARK   10  A    between atoms: S_22  and  C_23
REMARK   11  A    between atoms: O_32  and  C_33
REMARK                            x       y       z     vdW  Elec       q    Type
REMARK                         _______ _______ _______ _____ _____    ______ ____
ROOT
ATOM      1  C   UNL     1      -4.608   0.382   1.683  0.00  0.00    -0.034 A 
ATOM      2  C   UNL     1      -3.902  -0.029   0.567  0.00  0.00    +0.008 A 
ATOM      3  C   UNL     1      -2.589   0.364   0.395  0.00  0.00    +0.046 A 
ATOM      4  C   UNL     1      -1.975   1.163   1.348  0.00  0.00    +0.124 A 
ATOM      5  C   UNL     1      -2.684   1.574   2.467  0.00  0.00    +0.005 A 
ATOM      6  C   UNL     1      -3.999   1.183   2.632  0.00  0.00    +0.012 A 
ENDROOT
BRANCH   1  16
ATOM      7  C   UNL     1      -5.728  -2.423   2.908  0.00  0.00    +0.071 A 
ATOM      8  C   UNL     1      -6.125  -1.548   1.906  0.00  0.00    +0.049 A 
ATOM      9  C   UNL     1      -6.642  -2.286   0.879  0.00  0.00    +0.222 A 
ATOM     10  N   UNL     1      -6.566  -3.580   1.231  0.00  0.00    -0.246 N 
ATOM     11  H   UNL     1      -6.868  -4.358   0.680  0.00  0.00    +0.192 HD
ATOM     12  N   UNL     1      -5.990  -3.645   2.509  0.00  0.00    -0.176 NA
ATOM     13  O   UNL     1      -7.125  -1.723  -0.257  0.00  0.00    -0.423 OA
ATOM     14  C   UNL     1      -7.340  -0.392  -0.252  0.00  0.00    +0.200 C 
ATOM     15  C   UNL     1      -6.869   0.443   0.702  0.00  0.00    +0.098 C 
ATOM     16  C   UNL     1      -6.042  -0.043   1.866  0.00  0.00    +0.101 C 
BRANCH  14  17
ATOM     17  N   UNL     1      -8.080   0.147  -1.274  0.00  0.00    -0.328 N 
ATOM     18  H   UNL     1      -8.431  -0.426  -1.973  0.00  0.00    +0.145 HD
ATOM     19  H   UNL     1      -8.252   1.101  -1.298  0.00  0.00    +0.145 HD
ENDBRANCH  14  17
BRANCH  15  20
ATOM     20  C   UNL     1      -7.167   1.841   0.605  0.00  0.00    +0.101 C 
ATOM     21  N   UNL     1      -7.403   2.949   0.527  0.00  0.00    -0.191 NA
ENDBRANCH  15  20
BRANCH   7  22
ATOM     22  C   UNL     1      -5.104  -2.037   4.225  0.00  0.00    +0.057 C 
BRANCH  22  24
ATOM     23  C   UNL     1      -5.571  -1.428   6.602  0.00  0.00    +0.004 C 
ATOM     24  C   UNL     1      -6.204  -1.820   5.266  0.00  0.00    +0.003 C 
ENDBRANCH  22  24
ENDBRANCH   7  22
ENDBRANCH   1  16
BRANCH   4  25
ATOM     25  O   UNL     1      -0.682   1.547   1.184  0.00  0.00    -0.495 OA
ATOM     26  C   UNL     1      -0.013   1.086   0.008  0.00  0.00    +0.277 C 
ENDBRANCH   4  25
BRANCH   5  27
ATOM     27  C   UNL     1      -2.022   2.447   3.501  0.00  0.00    +0.117 C 
BRANCH  27  28
ATOM     28  S   UNL     1      -2.277   4.188   3.074  0.00  0.00    -0.062 S 
BRANCH  28  29
ATOM     29  C   UNL     1      -1.425   4.959   4.410  0.00  0.00    +0.258 A 
ATOM     30  N   UNL     1      -0.822   4.322   5.382  0.00  0.00    -0.203 NA
ATOM     31  C   UNL     1      -0.272   5.237   6.228  0.00  0.00    +0.110 A 
ATOM     32  C   UNL     1       0.472   5.136   7.404  0.00  0.00    +0.031 A 
ATOM     33  C   UNL     1       0.889   6.280   8.048  0.00  0.00    +0.002 A 
ATOM     34  C   UNL     1       0.575   7.529   7.534  0.00  0.00    +0.004 A 
ATOM     35  C   UNL     1      -0.160   7.642   6.371  0.00  0.00    +0.048 A 
ATOM     36  C   UNL     1      -0.588   6.502   5.711  0.00  0.00    +0.156 A 
ATOM     37  O   UNL     1      -1.304   6.287   4.583  0.00  0.00    -0.431 OA
ENDBRANCH  28  29
ENDBRANCH  27  28
ENDBRANCH   5  27
TORSDOF 9
