REMARK  Name = ZINC42361103
REMARK  7 active torsions:
REMARK  status: ('A' for Active; 'I' for Inactive)
REMARK    1  A    between atoms: C_1  and  N_2
REMARK    2  A    between atoms: N_2  and  C_3
REMARK    3  A    between atoms: N_2  and  C_10
REMARK    4  A    between atoms: C_3  and  C_4
REMARK    5  A    between atoms: C_10  and  C_12
REMARK    6  A    between atoms: C_10  and  C_14
REMARK    7  A    between atoms: C_12  and  N_13
REMARK                            x       y       z     vdW  Elec       q    Type
REMARK                         _______ _______ _______ _____ _____    ______ ____
ROOT
ATOM      1  C   UNL     1      -1.211  -0.602  -0.638  0.00  0.00    +0.070 C 
ENDROOT
BRANCH   1   2
ATOM      2  C   UNL     1      -1.927   0.041  -1.798  0.00  0.00    -0.018 A 
ATOM      3  C   UNL     1      -1.345   1.101  -2.467  0.00  0.00    +0.006 A 
ATOM      4  C   UNL     1      -2.002   1.691  -3.531  0.00  0.00    +0.000 A 
ATOM      5  C   UNL     1      -3.241   1.221  -3.926  0.00  0.00    +0.001 A 
ATOM      6  C   UNL     1      -3.823   0.161  -3.257  0.00  0.00    +0.015 A 
ATOM      7  C   UNL     1      -3.164  -0.433  -2.196  0.00  0.00    +0.022 A 
ATOM      8 BR   UNL     1      -3.957  -1.889  -1.285  0.00  0.00    -0.050 Br
ENDBRANCH   1   2
BRANCH   1  10
ATOM      9  C   UNL     1       0.418   1.091  -0.053  0.00  0.00    +0.105 C 
ATOM     10  N   UNL     1       0.209  -0.226  -0.670  0.00  0.00    -0.296 NA
BRANCH  10  11
ATOM     11  C   UNL     1       1.039  -1.249  -0.021  0.00  0.00    +0.120 C 
BRANCH  11  12
ATOM     12  C   UNL     1       2.479  -1.055  -0.421  0.00  0.00    -0.025 A 
ATOM     13  C   UNL     1       2.986  -1.684  -1.543  0.00  0.00    +0.028 A 
ATOM     14  C   UNL     1       4.287  -1.488  -1.875  0.00  0.00    +0.055 A 
ATOM     15  S   UNL     1       4.836  -0.387  -0.581  0.00  0.00    -0.090 S 
ATOM     16  C   UNL     1       3.295  -0.258   0.311  0.00  0.00    +0.051 A 
ATOM     17 BR   UNL     1       5.265  -2.197  -3.330  0.00  0.00    -0.043 Br
ENDBRANCH  11  12
ENDBRANCH  10  11
ENDBRANCH   1  10
BRANCH   1  18
ATOM     18  C   UNL     1      -1.835  -0.126   0.675  0.00  0.00    -0.063 C 
BRANCH  18  19
ATOM     19  N   UNL     1      -1.202  -0.826   1.800  0.00  0.00    +0.379 N 
ATOM     20  H   UNL     1      -1.179  -1.817   1.611  0.00  0.00    -0.090 HD
ATOM     21  H   UNL     1      -0.260  -0.485   1.921  0.00  0.00    -0.090 HD
ATOM     22  H   UNL     1      -1.732  -0.657   2.642  0.00  0.00    -0.090 HD
ENDBRANCH  18  19
ENDBRANCH   1  18
TORSDOF 6
