REMARK  Name = ZINC21343995
REMARK  9 active torsions:
REMARK  status: ('A' for Active; 'I' for Inactive)
REMARK    1  A    between atoms: C_1  and  C_2
REMARK    2  A    between atoms: C_5  and  C_8
REMARK    3  A    between atoms: C_8  and  N_9
REMARK    4  A    between atoms: C_16  and  C_19
REMARK    5  A    between atoms: C_16  and  O_30
REMARK    6  A    between atoms: C_19  and  C_20
REMARK    7  A    between atoms: C_20  and  C_22
REMARK    8  A    between atoms: C_24  and  C_29
REMARK    9  A    between atoms: C_27  and  C_28
REMARK                            x       y       z     vdW  Elec       q    Type
REMARK                         _______ _______ _______ _____ _____    ______ ____
ROOT
ATOM      1  N   UNL     1      -3.177   0.495   0.799  0.00  0.00    -0.264 N 
ATOM      2  C   UNL     1      -1.811   0.780   0.800  0.00  0.00    +0.043 A 
ATOM      3  C   UNL     1      -0.706  -0.057   0.932  0.00  0.00    +0.025 A 
ATOM      4  C   UNL     1       0.570   0.467   0.896  0.00  0.00    +0.017 A 
ATOM      5  C   UNL     1       0.761   1.828   0.733  0.00  0.00    +0.018 A 
ATOM      6  C   UNL     1      -0.333   2.667   0.606  0.00  0.00    +0.024 A 
ATOM      7  C   UNL     1      -1.606   2.145   0.643  0.00  0.00    +0.016 A 
ATOM      8  C   UNL     1      -2.977   2.772   0.536  0.00  0.00    +0.175 C 
ATOM      9  C   UNL     1      -3.928   1.598   0.643  0.00  0.00    +0.257 C 
ATOM     10  O   UNL     1      -5.139   1.647   0.604  0.00  0.00    -0.272 OA
ATOM     11 BR   UNL     1       2.513   2.540   0.685  0.00  0.00    -0.050 Br
ENDROOT
BRANCH   8  12
ATOM     12  O   UNL     1      -3.136   3.415  -0.730  0.00  0.00    -0.374 OA
ATOM     13  H   UNL     1      -4.081   3.924  -0.974  0.00  0.00    +0.211 HD
ENDBRANCH   8  12
BRANCH   1  14
ATOM     14  C   UNL     1      -3.730  -0.854   0.951  0.00  0.00    +0.148 C 
BRANCH  14  19
ATOM     15  C   UNL     1      -4.601  -1.957   6.556  0.00  0.00    +0.044 C 
ATOM     16  C   UNL     1      -4.374  -1.669   5.094  0.00  0.00    -0.050 A 
ATOM     17  C   UNL     1      -5.378  -1.093   4.339  0.00  0.00    +0.003 A 
ATOM     18  C   UNL     1      -5.169  -0.829   2.998  0.00  0.00    +0.005 A 
ATOM     19  C   UNL     1      -3.957  -1.141   2.413  0.00  0.00    -0.030 A 
ATOM     20  C   UNL     1      -2.955  -1.723   3.167  0.00  0.00    +0.005 A 
ATOM     21  C   UNL     1      -3.161  -1.982   4.508  0.00  0.00    +0.003 A 
ENDBRANCH  14  19
ENDBRANCH   1  14
BRANCH   8  22
ATOM     22  C   UNL     1      -3.202   3.767   1.676  0.00  0.00    +0.129 C 
BRANCH  22  23
ATOM     23  C   UNL     1      -4.616   4.285   1.619  0.00  0.00    +0.167 C 
ATOM     24  O   UNL     1      -5.369   3.897   0.752  0.00  0.00    -0.292 OA
BRANCH  23  25
ATOM     25  C   UNL     1      -5.082   5.262   2.616  0.00  0.00    +0.021 A 
ATOM     26  C   UNL     1      -4.260   5.618   3.690  0.00  0.00    +0.015 A 
ATOM     27  C   UNL     1      -4.704   6.534   4.620  0.00  0.00    -0.050 A 
ATOM     28  C   UNL     1      -5.960   7.101   4.493  0.00  0.00    +0.003 A 
ATOM     29  C   UNL     1      -6.780   6.755   3.433  0.00  0.00    +0.004 A 
ATOM     30  C   UNL     1      -6.347   5.844   2.491  0.00  0.00    -0.040 A 
ATOM     31  C   UNL     1      -7.239   5.473   1.334  0.00  0.00    +0.044 C 
ATOM     32  C   UNL     1      -3.819   6.918   5.778  0.00  0.00    +0.044 C 
ENDBRANCH  23  25
ENDBRANCH  22  23
ENDBRANCH   8  22
TORSDOF 6
