REMARK  Name = ZINC44925977
REMARK  6 active torsions:
REMARK  status: ('A' for Active; 'I' for Inactive)
REMARK    1  A    between atoms: C_1  and  C_2
REMARK    2  A    between atoms: C_2  and  C_4
REMARK    3  A    between atoms: C_2  and  N_11
REMARK    4  A    between atoms: N_11  and  C_12
REMARK    5  A    between atoms: C_12  and  C_14
REMARK    6  A    between atoms: C_12  and  C_15
REMARK                            x       y       z     vdW  Elec       q    Type
REMARK                         _______ _______ _______ _____ _____    ______ ____
ROOT
ATOM      1  N   UNL     1       0.713  -0.491   1.192  0.00  0.00    +0.390 N 
ATOM      2  H   UNL     1       0.798  -1.495   1.145  0.00  0.00    -0.084 HD
ATOM      3  H   UNL     1       1.632  -0.076   1.228  0.00  0.00    -0.084 HD
ENDROOT
BRANCH   1   5
ATOM      4  C   UNL     1      -0.019   1.526   0.010  0.00  0.00    -0.009 C 
ATOM      5  C   UNL     1       0.002  -0.004   0.002  0.00  0.00    -0.043 C 
BRANCH   5   6
ATOM      6  C   UNL     1       0.707  -0.490  -1.238  0.00  0.00    -0.062 A 
ATOM      7  C   UNL     1       2.089  -0.511  -1.284  0.00  0.00    +0.003 A 
ATOM      8  C   UNL     1       2.736  -0.956  -2.421  0.00  0.00    +0.014 A 
ATOM      9  C   UNL     1       2.002  -1.382  -3.513  0.00  0.00    +0.013 A 
ATOM     10  C   UNL     1       0.620  -1.361  -3.466  0.00  0.00    +0.014 A 
ATOM     11  C   UNL     1      -0.027  -0.920  -2.327  0.00  0.00    +0.003 A 
ATOM     12  I   UNL     1       2.982  -2.057  -5.237  0.00  0.00    -0.044 I 
ENDBRANCH   5   6
ENDBRANCH   1   5
BRANCH   1  13
ATOM     13  C   UNL     1      -0.040  -0.119   2.398  0.00  0.00    -0.001 C 
ATOM     14  C   UNL     1      -1.385  -0.847   2.404  0.00  0.00    -0.006 C 
BRANCH  13  15
ATOM     15  C   UNL     1       0.748  -0.509   3.622  0.00  0.00    +0.163 A 
ATOM     16  N   UNL     1       0.947   0.231   4.703  0.00  0.00    -0.113 NA
ATOM     17  N   UNL     1       1.668  -0.458   5.520  0.00  0.00    -0.021 NA
ATOM     18  N   UNL     1       1.927  -1.601   4.988  0.00  0.00    -0.021 NA
ATOM     19  N   UNL     1       1.370  -1.661   3.827  0.00  0.00    -0.113 NA
ENDBRANCH  13  15
ENDBRANCH   1  13
TORSDOF 4
