REMARK  Name = ZINC40011357
REMARK  7 active torsions:
REMARK  status: ('A' for Active; 'I' for Inactive)
REMARK    1  A    between atoms: C_1  and  C_2
REMARK    2  A    between atoms: C_9  and  C_14
REMARK    3  A    between atoms: C_14  and  N_15
REMARK    4  A    between atoms: N_15  and  C_16
REMARK    5  A    between atoms: C_16  and  C_17
REMARK    6  A    between atoms: C_20  and  O_23
REMARK    7  A    between atoms: O_23  and  C_24
REMARK                            x       y       z     vdW  Elec       q    Type
REMARK                         _______ _______ _______ _____ _____    ______ ____
ROOT
ATOM      1  N   UNL     1      -0.970  -6.380   2.970  0.00  0.00    -0.280 N 
ATOM      2  C   UNL     1      -1.520  -7.118   1.987  0.00  0.00    +0.305 C 
ATOM      3  O   UNL     1      -1.631  -8.322   2.119  0.00  0.00    -0.252 OA
ATOM      4  N   UNL     1      -1.948  -6.523   0.856  0.00  0.00    -0.285 N 
ATOM      5  C   UNL     1      -2.072  -5.073   0.644  0.00  0.00    +0.109 C 
ATOM      6  C   UNL     1      -2.622  -4.864  -0.782  0.00  0.00    +0.020 C 
ATOM      7  C   UNL     1      -3.312  -6.219  -1.091  0.00  0.00    +0.020 C 
ATOM      8  C   UNL     1      -2.364  -7.218  -0.377  0.00  0.00    +0.109 C 
ENDROOT
BRANCH   1   9
ATOM      9  C   UNL     1      -0.848  -4.928   2.815  0.00  0.00    +0.126 C 
BRANCH   9  18
ATOM     10  C   UNL     1       1.116   0.771  -1.016  0.00  0.00    +0.044 C 
ATOM     11  C   UNL     1       1.020  -0.711  -0.760  0.00  0.00    -0.050 A 
ATOM     12  C   UNL     1       1.115  -1.597  -1.833  0.00  0.00    +0.005 A 
ATOM     13  C   UNL     1       1.038  -2.945  -1.680  0.00  0.00    +0.024 A 
ATOM     14  C   UNL     1       0.857  -3.510  -0.404  0.00  0.00    +0.040 A 
ATOM     15  N   UNL     1       0.784  -4.833  -0.266  0.00  0.00    -0.284 N 
ATOM     16  C   UNL     1       0.614  -5.429   0.902  0.00  0.00    +0.226 C 
ATOM     17  O   UNL     1       0.554  -6.643   0.966  0.00  0.00    -0.275 OA
ATOM     18  C   UNL     1       0.494  -4.596   2.159  0.00  0.00    +0.116 C 
ATOM     19  C   UNL     1       0.577  -3.090   2.007  0.00  0.00    -0.003 C 
ATOM     20  C   UNL     1       0.754  -2.598   0.748  0.00  0.00    -0.007 A 
ATOM     21  C   UNL     1       0.850  -1.157   0.512  0.00  0.00    +0.012 A 
ATOM     22  H   UNL     1       0.859  -5.386  -1.060  0.00  0.00    +0.155 HD
ENDBRANCH   9  18
ENDBRANCH   1   9
BRANCH   1  23
ATOM     23  C   UNL     1      -0.494  -7.028   4.195  0.00  0.00    +0.144 C 
BRANCH  23  24
ATOM     24  C   UNL     1      -1.612  -7.080   5.203  0.00  0.00    -0.030 A 
ATOM     25  C   UNL     1      -1.788  -6.036   6.093  0.00  0.00    +0.009 A 
ATOM     26  C   UNL     1      -2.812  -6.081   7.019  0.00  0.00    +0.046 A 
ATOM     27  C   UNL     1      -3.665  -7.174   7.055  0.00  0.00    +0.120 A 
ATOM     28  C   UNL     1      -3.487  -8.220   6.161  0.00  0.00    +0.046 A 
ATOM     29  C   UNL     1      -2.465  -8.168   5.234  0.00  0.00    +0.009 A 
BRANCH  27  30
ATOM     30  O   UNL     1      -4.673  -7.221   7.965  0.00  0.00    -0.495 OA
ATOM     31  C   UNL     1      -5.513  -8.377   7.945  0.00  0.00    +0.277 C 
ENDBRANCH  27  30
ENDBRANCH  23  24
ENDBRANCH   1  23
TORSDOF 5
