REMARK  Name = ZINC23635432
REMARK  6 active torsions:
REMARK  status: ('A' for Active; 'I' for Inactive)
REMARK    1  A    between atoms: C_1  and  C_2
REMARK    2  A    between atoms: C_2  and  C_4
REMARK    3  A    between atoms: C_2  and  S_16
REMARK    4  A    between atoms: S_16  and  C_17
REMARK    5  A    between atoms: N_27  and  C_28
REMARK    6  A    between atoms: C_28  and  C_29
REMARK                            x       y       z     vdW  Elec       q    Type
REMARK                         _______ _______ _______ _____ _____    ______ ____
ROOT
ATOM      1  C   UNL     1      -2.469  -0.387   2.043  0.00  0.00    +0.173 A 
ATOM      2  N   UNL     1      -2.853  -0.592   3.279  0.00  0.00    -0.223 NA
ATOM      3  C   UNL     1      -2.391  -1.642   3.998  0.00  0.00    +0.080 A 
ATOM      4  C   UNL     1      -2.799  -1.863   5.316  0.00  0.00    +0.048 A 
ATOM      5  C   UNL     1      -2.302  -2.945   6.008  0.00  0.00    +0.043 A 
ATOM      6  C   UNL     1      -1.400  -3.819   5.411  0.00  0.00    +0.021 A 
ATOM      7  C   UNL     1      -0.987  -3.624   4.123  0.00  0.00    +0.017 A 
ATOM      8  C   UNL     1      -1.474  -2.537   3.399  0.00  0.00    +0.065 A 
ATOM      9  C   UNL     1      -1.065  -2.284   2.011  0.00  0.00    +0.263 A 
ATOM     10  O   UNL     1      -0.282  -3.021   1.440  0.00  0.00    -0.267 OA
ATOM     11  N   UNL     1      -1.587  -1.201   1.391  0.00  0.00    -0.280 N 
ATOM     12 CL   UNL     1      -2.807  -3.221   7.646  0.00  0.00    -0.083 Cl
ENDROOT
BRANCH   1  13
ATOM     13  S   UNL     1      -3.122   1.005   1.181  0.00  0.00    -0.077 S 
BRANCH  13  15
ATOM     14  C   UNL     1      -5.318   0.715   2.779  0.00  0.00    +0.027 C 
ATOM     15  C   UNL     1      -4.189   1.699   2.468  0.00  0.00    +0.117 C 
BRANCH  15  16
ATOM     16  C   UNL     1      -4.776   3.001   1.986  0.00  0.00    +0.124 A 
ATOM     17  N   UNL     1      -4.888   3.200   0.646  0.00  0.00    -0.309 N 
ATOM     18  H   UNL     1      -4.550   2.424  -0.056  0.00  0.00    +0.170 HD
ATOM     19  C   UNL     1      -5.414   4.349   0.163  0.00  0.00    +0.259 A 
ATOM     20  O   UNL     1      -5.524   4.540  -1.035  0.00  0.00    -0.267 OA
ATOM     21  C   UNL     1      -5.841   5.362   1.139  0.00  0.00    +0.065 A 
ATOM     22  C   UNL     1      -6.389   6.581   0.746  0.00  0.00    +0.015 A 
ATOM     23  C   UNL     1      -6.772   7.495   1.703  0.00  0.00    +0.001 A 
ATOM     24  C   UNL     1      -6.616   7.209   3.054  0.00  0.00    +0.002 A 
ATOM     25  C   UNL     1      -6.076   6.011   3.464  0.00  0.00    +0.028 A 
ATOM     26  C   UNL     1      -5.681   5.069   2.512  0.00  0.00    +0.078 A 
ATOM     27  N   UNL     1      -5.144   3.876   2.871  0.00  0.00    -0.233 NA
ENDBRANCH  15  16
ENDBRANCH  13  15
ENDBRANCH   1  13
BRANCH  11  28
ATOM     28  C   UNL     1      -1.208  -0.902   0.008  0.00  0.00    +0.201 C 
BRANCH  28  29
ATOM     29  C   UNL     1       0.002  -0.004   0.002  0.00  0.00    +0.125 A 
ATOM     30  C   UNL     1       1.284  -0.412  -0.012  0.00  0.00    +0.046 A 
ATOM     31  C   UNL     1       2.084   0.754  -0.014  0.00  0.00    +0.041 A 
ATOM     32  C   UNL     1       1.244   1.804  -0.000  0.00  0.00    +0.195 A 
ATOM     33  O   UNL     1      -0.016   1.339   0.009  0.00  0.00    -0.466 OA
ENDBRANCH  28  29
ENDBRANCH  11  28
TORSDOF 5
