REMARK  Name = ZINC43079862
REMARK  6 active torsions:
REMARK  status: ('A' for Active; 'I' for Inactive)
REMARK    1  A    between atoms: N_7  and  C_8
REMARK    2  A    between atoms: C_9  and  C_15
REMARK    3  A    between atoms: N_17  and  C_25
REMARK    4  A    between atoms: C_25  and  C_26
REMARK    5  A    between atoms: C_26  and  C_27
REMARK    6  A    between atoms: C_27  and  N_28
REMARK                            x       y       z     vdW  Elec       q    Type
REMARK                         _______ _______ _______ _____ _____    ______ ____
ROOT
ATOM      1  C   UNL     1       4.891   3.200  -2.456  0.00  0.00    +0.014 A 
ATOM      2  C   UNL     1       3.920   3.029  -3.398  0.00  0.00    +0.095 A 
ATOM      3  N   UNL     1       4.471   2.541  -4.542  0.00  0.00    -0.346 N 
ATOM      4  C   UNL     1       5.832   2.377  -4.386  0.00  0.00    +0.051 A 
ATOM      5  C   UNL     1       6.159   2.785  -3.082  0.00  0.00    +0.008 A 
ATOM      6  C   UNL     1       7.481   2.732  -2.644  0.00  0.00    +0.012 A 
ATOM      7  C   UNL     1       8.464   2.281  -3.497  0.00  0.00    +0.016 A 
ATOM      8  C   UNL     1       8.143   1.881  -4.787  0.00  0.00    +0.020 A 
ATOM      9  C   UNL     1       6.838   1.920  -5.230  0.00  0.00    +0.041 A 
ATOM     10 BR   UNL     1       9.507   1.266  -5.943  0.00  0.00    -0.050 Br
ENDROOT
BRANCH   1  12
ATOM     11  C   UNL     1       4.176   3.026  -0.021  0.00  0.00    +0.122 C 
ATOM     12  C   UNL     1       4.710   3.707  -1.085  0.00  0.00    +0.075 C 
ATOM     13  C   UNL     1       5.067   5.053  -0.581  0.00  0.00    +0.253 C 
ATOM     14  O   UNL     1       5.568   5.946  -1.234  0.00  0.00    -0.270 OA
ATOM     15  N   UNL     1       4.742   5.118   0.722  0.00  0.00    -0.247 N 
ATOM     16  C   UNL     1       4.203   3.954   1.123  0.00  0.00    +0.268 C 
ATOM     17  O   UNL     1       3.805   3.706   2.245  0.00  0.00    -0.268 OA
ATOM     18  H   UNL     1       4.875   5.893   1.290  0.00  0.00    +0.158 HD
BRANCH  11  25
ATOM     19  C   UNL     1      -0.017   1.382   0.010  0.00  0.00    +0.022 A 
ATOM     20  C   UNL     1       1.177   2.083   0.002  0.00  0.00    +0.030 A 
ATOM     21  C   UNL     1       2.365   1.361  -0.013  0.00  0.00    +0.072 A 
ATOM     22  C   UNL     1       2.308  -0.046  -0.020  0.00  0.00    +0.089 A 
ATOM     23  C   UNL     1       3.701  -0.502  -0.036  0.00  0.00    +0.048 A 
ATOM     24  C   UNL     1       4.477   0.594  -0.037  0.00  0.00    +0.094 A 
ATOM     25  N   UNL     1       3.697   1.718  -0.024  0.00  0.00    -0.309 N 
ATOM     26  N   UNL     1       1.136  -0.672  -0.013  0.00  0.00    -0.253 NA
ATOM     27  C   UNL     1       0.002  -0.004   0.002  0.00  0.00    +0.111 A 
ENDBRANCH  11  25
ENDBRANCH   1  12
BRANCH   3  28
ATOM     28  C   UNL     1       3.726   2.235  -5.766  0.00  0.00    +0.123 C 
BRANCH  28  29
ATOM     29  C   UNL     1       3.357   0.750  -5.780  0.00  0.00    +0.043 C 
BRANCH  29  30
ATOM     30  C   UNL     1       2.579   0.430  -7.058  0.00  0.00    +0.124 C 
BRANCH  30  31
ATOM     31  N   UNL     1       2.226  -0.992  -7.071  0.00  0.00    -0.338 N 
ATOM     32  C   UNL     1       2.978  -2.011  -7.591  0.00  0.00    +0.104 A 
ATOM     33  C   UNL     1       2.284  -3.147  -7.392  0.00  0.00    +0.101 A 
ATOM     34  N   UNL     1       1.140  -2.832  -6.768  0.00  0.00    -0.352 N 
ATOM     35  C   UNL     1       1.101  -1.542  -6.568  0.00  0.00    +0.173 A 
ATOM     36  H   UNL     1       0.452  -3.462  -6.504  0.00  0.00    +0.166 HD
ENDBRANCH  30  31
ENDBRANCH  29  30
ENDBRANCH  28  29
ENDBRANCH   3  28
TORSDOF 6
