REMARK  Name = ZINC64363739
REMARK  8 active torsions:
REMARK  status: ('A' for Active; 'I' for Inactive)
REMARK    1  A    between atoms: C_1  and  C_2
REMARK    2  A    between atoms: C_5  and  C_29
REMARK    3  A    between atoms: C_8  and  C_10
REMARK    4  A    between atoms: C_12  and  C_23
REMARK    5  A    between atoms: C_33  and  O_37
REMARK    6  A    between atoms: C_34  and  O_35
REMARK    7  A    between atoms: O_35  and  C_36
REMARK    8  A    between atoms: O_37  and  C_38
REMARK                            x       y       z     vdW  Elec       q    Type
REMARK                         _______ _______ _______ _____ _____    ______ ____
ROOT
ATOM      1  C   UNL     1      -4.895  -0.655   0.062  0.00  0.00    +0.152 C 
ATOM      2  C   UNL     1      -4.979   0.846   0.259  0.00  0.00    -0.014 C 
ATOM      3  C   UNL     1      -5.617   1.583  -0.743  0.00  0.00    +0.002 A 
ATOM      4  C   UNL     1      -5.739   2.984  -0.640  0.00  0.00    +0.030 A 
ATOM      5  C   UNL     1      -6.365   3.678  -1.630  0.00  0.00    +0.042 A 
ATOM      6  C   UNL     1      -6.890   3.030  -2.748  0.00  0.00    +0.022 A 
ATOM      7  C   UNL     1      -6.803   1.680  -2.902  0.00  0.00    +0.025 A 
ATOM      8  C   UNL     1      -6.169   0.900  -1.919  0.00  0.00    +0.041 A 
ATOM      9  N   UNL     1      -6.084  -0.426  -2.073  0.00  0.00    -0.284 N 
ATOM     10  C   UNL     1      -5.506  -1.225  -1.198  0.00  0.00    +0.230 C 
ATOM     11  O   UNL     1      -5.465  -2.423  -1.406  0.00  0.00    -0.274 OA
ATOM     12 CL   UNL     1      -6.513   5.402  -1.499  0.00  0.00    -0.084 Cl
ATOM     13  H   UNL     1      -6.467  -0.820  -2.872  0.00  0.00    +0.155 HD
ENDROOT
BRANCH   1  20
ATOM     14  C   UNL     1       0.005   1.325   0.096  0.00  0.00    +0.111 C 
ATOM     15  C   UNL     1      -0.027  -0.182   0.113  0.00  0.00    +0.232 C 
ATOM     16  O   UNL     1       1.010  -0.811   0.130  0.00  0.00    -0.274 OA
ATOM     17  N   UNL     1      -1.208  -0.831   0.109  0.00  0.00    -0.185 N 
ATOM     18  C   UNL     1      -1.385  -2.292   0.130  0.00  0.00    +0.140 C 
ATOM     19  C   UNL     1      -2.918  -2.463   0.114  0.00  0.00    +0.083 C 
ATOM     20  C   UNL     1      -3.439  -1.044   0.086  0.00  0.00    +0.055 C 
ATOM     21  N   UNL     1      -2.465  -0.229   0.091  0.00  0.00    -0.185 NA
BRANCH  18  22
ATOM     22  C   UNL     1      -0.764  -2.920  -1.091  0.00  0.00    +0.021 A 
ATOM     23  C   UNL     1      -0.482  -2.144  -2.200  0.00  0.00    +0.009 A 
ATOM     24  C   UNL     1       0.088  -2.717  -3.322  0.00  0.00    +0.004 A 
ATOM     25  C   UNL     1       0.378  -4.069  -3.340  0.00  0.00    +0.049 A 
ATOM     26  C   UNL     1       0.097  -4.852  -2.232  0.00  0.00    +0.162 A 
ATOM     27  C   UNL     1      -0.471  -4.274  -1.101  0.00  0.00    +0.166 A 
BRANCH  27  28
ATOM     28  O   UNL     1      -0.743  -5.038  -0.009  0.00  0.00    -0.491 OA
ATOM     29  C   UNL     1      -2.033  -5.650   0.050  0.00  0.00    +0.277 C 
ENDBRANCH  27  28
BRANCH  26  30
ATOM     30  O   UNL     1       0.381  -6.182  -2.248  0.00  0.00    -0.491 OA
ATOM     31  C   UNL     1       0.969  -6.705  -3.442  0.00  0.00    +0.277 C 
ENDBRANCH  26  30
ENDBRANCH  18  22
ENDBRANCH   1  20
BRANCH   2  32
ATOM     32  C   UNL     1      -4.435   1.474   1.407  0.00  0.00    -0.020 A 
ATOM     33  C   UNL     1      -3.396   2.410   1.276  0.00  0.00    +0.008 A 
ATOM     34  C   UNL     1      -2.875   3.014   2.399  0.00  0.00    +0.001 A 
ATOM     35  C   UNL     1      -3.372   2.702   3.654  0.00  0.00    +0.000 A 
ATOM     36  C   UNL     1      -4.397   1.780   3.794  0.00  0.00    +0.001 A 
ATOM     37  C   UNL     1      -4.936   1.169   2.684  0.00  0.00    +0.008 A 
ENDBRANCH   2  32
TORSDOF 5
