REMARK  Name = ZINC01642925
REMARK  4 active torsions:
REMARK  status: ('A' for Active; 'I' for Inactive)
REMARK    1  A    between atoms: C_11  and  C_21
REMARK    2  A    between atoms: C_23  and  O_29
REMARK    3  A    between atoms: C_24  and  O_28
REMARK    4  A    between atoms: C_25  and  O_27
REMARK                            x       y       z     vdW  Elec       q    Type
REMARK                         _______ _______ _______ _____ _____    ______ ____
ROOT
ATOM      1  C   UNL     1       3.998   2.166  -0.021  0.00  0.00    +0.001 A 
ATOM      2  C   UNL     1       3.155   3.265  -0.014  0.00  0.00    +0.002 A 
ATOM      3  C   UNL     1       1.776   3.138  -0.003  0.00  0.00    +0.026 A 
ATOM      4  C   UNL     1       1.262   1.843  -0.000  0.00  0.00    +0.047 A 
ATOM      5  C   UNL     1       2.131   0.722  -0.009  0.00  0.00    +0.003 A 
ATOM      6  C   UNL     1       3.520   0.879  -0.018  0.00  0.00    +0.010 A 
ATOM      7  C   UNL     1       1.276  -0.450  -0.005  0.00  0.00    -0.015 A 
ATOM      8  C   UNL     1       0.002  -0.004   0.002  0.00  0.00    +0.046 A 
ATOM      9  N   UNL     1      -0.017   1.365   0.009  0.00  0.00    -0.356 N 
ATOM     10  H   UNL     1      -0.817   1.913   0.017  0.00  0.00    +0.166 HD
ATOM     11  C   UNL     1      -1.208  -0.915  -0.009  0.00  0.00    +0.157 C 
ATOM     12  N   UNL     1      -0.699  -2.285   0.172  0.00  0.00    -0.248 N 
ATOM     13  C   UNL     1       0.536  -2.769  -0.481  0.00  0.00    +0.122 C 
ATOM     14  C   UNL     1       1.702  -1.897  -0.000  0.00  0.00    +0.063 C 
ATOM     15  C   UNL     1       0.697  -4.195   0.077  0.00  0.00    +0.256 C 
ATOM     16  O   UNL     1      -0.472  -4.379   0.927  0.00  0.00    -0.448 OA
ATOM     17  C   UNL     1      -1.213  -3.264   0.917  0.00  0.00    +0.404 C 
ATOM     18  O   UNL     1      -2.257  -3.154   1.529  0.00  0.00    -0.226 OA
ENDROOT
BRANCH  11  19
ATOM     19  C   UNL     1      -2.136  -0.556   1.123  0.00  0.00    -0.014 A 
ATOM     20  C   UNL     1      -1.868  -1.004   2.403  0.00  0.00    +0.055 A 
ATOM     21  C   UNL     1      -2.716  -0.670   3.449  0.00  0.00    +0.162 A 
ATOM     22  C   UNL     1      -3.843   0.105   3.206  0.00  0.00    +0.201 A 
ATOM     23  C   UNL     1      -4.112   0.549   1.917  0.00  0.00    +0.162 A 
ATOM     24  C   UNL     1      -3.256   0.216   0.878  0.00  0.00    +0.055 A 
BRANCH  23  25
ATOM     25  O   UNL     1      -5.214   1.308   1.674  0.00  0.00    -0.503 OA
ATOM     26  H   UNL     1      -6.003   0.796   1.450  0.00  0.00    +0.292 HD
ENDBRANCH  23  25
BRANCH  22  27
ATOM     27  O   UNL     1      -4.681   0.429   4.228  0.00  0.00    -0.501 OA
ATOM     28  H   UNL     1      -5.394  -0.209   4.369  0.00  0.00    +0.292 HD
ENDBRANCH  22  27
BRANCH  21  29
ATOM     29  O   UNL     1      -2.448  -1.107   4.708  0.00  0.00    -0.503 OA
ATOM     30  H   UNL     1      -2.841  -1.965   4.920  0.00  0.00    +0.292 HD
ENDBRANCH  21  29
ENDBRANCH  11  19
TORSDOF 4
