REMARK  Name = ZINC01421389
REMARK  7 active torsions:
REMARK  status: ('A' for Active; 'I' for Inactive)
REMARK    1  A    between atoms: C_6  and  C_7
REMARK    2  A    between atoms: C_7  and  O_8
REMARK    3  A    between atoms: O_8  and  C_9
REMARK    4  A    between atoms: C_14  and  C_15
REMARK    5  A    between atoms: C_20  and  O_29
REMARK    6  A    between atoms: C_24  and  N_28
REMARK    7  A    between atoms: C_25  and  C_26
REMARK                            x       y       z     vdW  Elec       q    Type
REMARK                         _______ _______ _______ _____ _____    ______ ____
ROOT
ATOM      1  C   UNL     1      -2.506   0.963   0.021  0.00  0.00    +0.101 C 
ATOM      2  C   UNL     1      -1.222   1.749   0.017  0.00  0.00    +0.008 A 
ATOM      3  C   UNL     1      -0.013   1.076   0.008  0.00  0.00    +0.012 A 
ATOM      4  C   UNL     1       1.175   1.780   0.000  0.00  0.00    +0.046 A 
ATOM      5  C   UNL     1       1.159   3.168   0.007  0.00  0.00    +0.120 A 
ATOM      6  C   UNL     1      -0.050   3.844   0.021  0.00  0.00    +0.092 A 
ATOM      7  C   UNL     1      -1.244   3.134   0.029  0.00  0.00    +0.138 A 
ATOM      8  O   UNL     1      -2.418   3.812   0.042  0.00  0.00    -0.441 OA
ATOM      9  C   UNL     1      -3.550   3.195  -0.346  0.00  0.00    +0.199 C 
ATOM     10  C   UNL     1      -3.656   1.845  -0.373  0.00  0.00    +0.098 C 
ENDROOT
BRANCH   1  16
ATOM     11  C   UNL     1      -2.851  -0.957   1.597  0.00  0.00    +0.125 A 
ATOM     12  C   UNL     1      -3.071  -1.461   2.871  0.00  0.00    +0.047 A 
ATOM     13  C   UNL     1      -3.199  -0.598   3.941  0.00  0.00    +0.019 A 
ATOM     14  C   UNL     1      -3.104   0.768   3.745  0.00  0.00    +0.018 A 
ATOM     15  C   UNL     1      -2.880   1.273   2.477  0.00  0.00    +0.023 A 
ATOM     16  C   UNL     1      -2.750   0.413   1.403  0.00  0.00    +0.008 A 
ATOM     17 BR   UNL     1      -3.282   1.948   5.212  0.00  0.00    -0.050 Br
BRANCH  11  18
ATOM     18  O   UNL     1      -2.730  -1.804   0.541  0.00  0.00    -0.487 OA
BRANCH  18  19
ATOM     19  C   UNL     1      -2.844  -3.202   0.815  0.00  0.00    +0.264 C 
BRANCH  19  25
ATOM     20  C   UNL     1      -3.793  -4.280  -1.235  0.00  0.00    +0.008 A 
ATOM     21  C   UNL     1      -3.647  -4.989  -2.413  0.00  0.00    +0.020 A 
ATOM     22  C   UNL     1      -2.391  -5.406  -2.817  0.00  0.00    +0.041 A 
ATOM     23  C   UNL     1      -1.282  -5.110  -2.044  0.00  0.00    +0.020 A 
ATOM     24  C   UNL     1      -1.429  -4.397  -0.869  0.00  0.00    +0.008 A 
ATOM     25  C   UNL     1      -2.684  -3.980  -0.466  0.00  0.00    -0.010 A 
ATOM     26 CL   UNL     1      -2.207  -6.301  -4.293  0.00  0.00    -0.084 Cl
ENDBRANCH  19  25
ENDBRANCH  18  19
ENDBRANCH  11  18
ENDBRANCH   1  16
BRANCH   9  27
ATOM     27  N   UNL     1      -4.631   3.956  -0.716  0.00  0.00    -0.328 N 
ATOM     28  H   UNL     1      -5.455   3.525  -0.992  0.00  0.00    +0.145 HD
ATOM     29  H   UNL     1      -4.571   4.924  -0.702  0.00  0.00    +0.145 HD
ENDBRANCH   9  27
BRANCH  10  30
ATOM     30  C   UNL     1      -4.890   1.247  -0.787  0.00  0.00    +0.101 C 
ATOM     31  N   UNL     1      -5.869   0.772  -1.115  0.00  0.00    -0.191 NA
ENDBRANCH  10  30
BRANCH   5  32
ATOM     32  O   UNL     1       2.328   3.862   0.000  0.00  0.00    -0.507 OA
ATOM     33  H   UNL     1       2.658   4.067  -0.885  0.00  0.00    +0.292 HD
ENDBRANCH   5  32
TORSDOF 7
