REMARK  Name = ZINC35586467
REMARK  7 active torsions:
REMARK  status: ('A' for Active; 'I' for Inactive)
REMARK    1  A    between atoms: C_1  and  C_2
REMARK    2  A    between atoms: C_2  and  C_3
REMARK    3  A    between atoms: C_3  and  N_4
REMARK    4  A    between atoms: N_4  and  C_5
REMARK    5  A    between atoms: C_5  and  C_7
REMARK    6  A    between atoms: C_5  and  C_14
REMARK    7  A    between atoms: C_7  and  C_8
REMARK                            x       y       z     vdW  Elec       q    Type
REMARK                         _______ _______ _______ _____ _____    ______ ____
ROOT
ATOM      1  C   UNL     1       1.324  -2.468  -2.544  0.00  0.00    -0.033 C 
ENDROOT
BRANCH   1   2
ATOM      2  C   UNL     1       1.248  -3.973  -2.517  0.00  0.00    -0.048 A 
ATOM      3  C   UNL     1       0.328  -4.604  -1.701  0.00  0.00    +0.003 A 
ATOM      4  C   UNL     1       0.259  -5.984  -1.675  0.00  0.00    +0.000 A 
ATOM      5  C   UNL     1       1.111  -6.734  -2.466  0.00  0.00    +0.001 A 
ATOM      6  C   UNL     1       2.031  -6.104  -3.282  0.00  0.00    +0.014 A 
ATOM      7  C   UNL     1       2.096  -4.722  -3.312  0.00  0.00    +0.015 A 
ATOM      8  I   UNL     1       3.485  -3.766  -4.555  0.00  0.00    -0.044 I 
ENDBRANCH   1   2
BRANCH   1   9
ATOM      9  N   UNL     1       0.818  -1.929  -1.275  0.00  0.00    +0.384 N 
ATOM     10  H   UNL     1       1.320  -2.350  -0.507  0.00  0.00    -0.085 HD
ATOM     11  H   UNL     1      -0.165  -2.138  -1.189  0.00  0.00    -0.085 HD
BRANCH   9  12
ATOM     12  C   UNL     1       1.015  -0.474  -1.248  0.00  0.00    -0.082 C 
BRANCH  12  14
ATOM     13  C   UNL     1       0.625   1.613   0.069  0.00  0.00    +0.002 C 
ATOM     14  C   UNL     1       0.421   0.098   0.041  0.00  0.00    -0.022 C 
ENDBRANCH  12  14
ENDBRANCH   9  12
ENDBRANCH   1   9
BRANCH   1  15
ATOM     15  C   UNL     1       0.473  -1.936  -3.699  0.00  0.00    +0.061 C 
BRANCH  15  16
ATOM     16  C   UNL     1      -0.961  -2.356  -3.501  0.00  0.00    +0.083 A 
ATOM     17  N   UNL     1      -1.523  -3.441  -4.008  0.00  0.00    -0.350 N 
ATOM     18  H   UNL     1      -1.084  -4.100  -4.568  0.00  0.00    +0.166 HD
ATOM     19  C   UNL     1      -2.812  -3.474  -3.610  0.00  0.00    +0.101 A 
ATOM     20  C   UNL     1      -3.026  -2.383  -2.849  0.00  0.00    +0.101 A 
ATOM     21  N   UNL     1      -1.863  -1.701  -2.787  0.00  0.00    -0.350 N 
ATOM     22  H   UNL     1      -1.715  -0.873  -2.305  0.00  0.00    +0.166 HD
ENDBRANCH  15  16
ENDBRANCH   1  15
TORSDOF 6
