REMARK  Name = ZINC21698922
REMARK  10 active torsions:
REMARK  status: ('A' for Active; 'I' for Inactive)
REMARK    1  A    between atoms: C_1  and  N_2
REMARK    2  A    between atoms: N_2  and  C_3
REMARK    3  A    between atoms: N_2  and  C_25
REMARK    4  A    between atoms: C_3  and  C_4
REMARK    5  A    between atoms: C_9  and  N_10
REMARK    6  A    between atoms: N_10  and  C_11
REMARK    7  A    between atoms: C_11  and  C_12
REMARK    8  A    between atoms: N_17  and  C_18
REMARK    9  A    between atoms: C_18  and  C_19
REMARK   10  A    between atoms: C_19  and  C_20
REMARK                            x       y       z     vdW  Elec       q    Type
REMARK                         _______ _______ _______ _____ _____    ______ ____
ROOT
ATOM      1  N   UNL     1      -0.698   1.558   1.213  0.00  0.00    -0.335 N 
ATOM      2  H   UNL     1      -1.602   2.179   1.124  0.00  0.00    +0.147 HD
ENDROOT
BRANCH   1   8
ATOM      3  C   UNL     1      -0.854   1.668   3.619  0.00  0.00    -0.043 A 
ATOM      4  C   UNL     1      -0.363   1.331   4.866  0.00  0.00    +0.003 A 
ATOM      5  C   UNL     1       0.773   0.551   4.976  0.00  0.00    +0.000 A 
ATOM      6  C   UNL     1       1.422   0.104   3.839  0.00  0.00    +0.002 A 
ATOM      7  C   UNL     1       0.933   0.432   2.590  0.00  0.00    +0.023 A 
ATOM      8  C   UNL     1      -0.205   1.221   2.475  0.00  0.00    +0.029 A 
BRANCH   3   9
ATOM      9  C   UNL     1      -2.091   2.519   3.500  0.00  0.00    -0.041 C 
BRANCH   9  11
ATOM     10  C   UNL     1      -3.540   0.781   4.363  0.00  0.00    -0.095 C 
ATOM     11  N   UNL     1      -3.251   1.661   3.223  0.00  0.00    +0.382 N 
ATOM     12  H   UNL     1      -3.002   1.025   2.360  0.00  0.00    -0.081 HD
BRANCH  11  13
ATOM     13  C   UNL     1      -4.428   2.465   2.866  0.00  0.00    -0.069 C 
ATOM     14  C   UNL     1      -4.851   3.310   4.070  0.00  0.00    -0.015 C 
ATOM     15  C   UNL     1      -6.077   4.147   3.699  0.00  0.00    -0.002 C 
ATOM     16  C   UNL     1      -7.225   3.220   3.297  0.00  0.00    -0.000 C 
ATOM     17  C   UNL     1      -6.802   2.376   2.094  0.00  0.00    -0.002 C 
ATOM     18  C   UNL     1      -5.576   1.538   2.464  0.00  0.00    -0.015 C 
ENDBRANCH  11  13
ENDBRANCH   9  11
ENDBRANCH   3   9
ENDBRANCH   1   8
BRANCH   1  19
ATOM     19  C   UNL     1      -0.013   1.086   0.008  0.00  0.00    +0.198 C 
BRANCH  19  20
ATOM     20  C   UNL     1      -0.742   1.585  -1.213  0.00  0.00    +0.237 C 
ATOM     21  O   UNL     1      -1.736   2.268  -1.089  0.00  0.00    -0.274 OA
ATOM     22  N   UNL     1      -0.288   1.272  -2.443  0.00  0.00    -0.239 N 
ATOM     23  C   UNL     1      -0.940   1.719  -3.535  0.00  0.00    +0.306 C 
ATOM     24  O   UNL     1      -1.937   2.403  -3.410  0.00  0.00    -0.252 OA
ATOM     25  N   UNL     1      -0.487   1.406  -4.765  0.00  0.00    -0.299 N 
ATOM     26  H   UNL     1       0.614   0.653  -2.556  0.00  0.00    +0.159 HD
ATOM     27  H   UNL     1       0.415   0.786  -4.878  0.00  0.00    +0.150 HD
BRANCH  25  28
ATOM     28  C   UNL     1      -1.196   1.891  -5.952  0.00  0.00    +0.111 C 
BRANCH  28  29
ATOM     29  C   UNL     1      -0.480   1.398  -7.211  0.00  0.00    +0.061 C 
BRANCH  29  30
ATOM     30  C   UNL     1      -1.208   1.897  -8.432  0.00  0.00    -0.009 A 
ATOM     31  C   UNL     1      -1.029   3.050  -9.121  0.00  0.00    +0.011 A 
ATOM     32  C   UNL     1      -1.820   3.301 -10.226  0.00  0.00    +0.008 A 
ATOM     33  C   UNL     1      -2.759   2.390 -10.582  0.00  0.00    +0.045 A 
ATOM     34  S   UNL     1      -2.538   1.127  -9.341  0.00  0.00    -0.102 S 
ENDBRANCH  29  30
ENDBRANCH  28  29
ENDBRANCH  25  28
ENDBRANCH  19  20
ENDBRANCH   1  19
TORSDOF 9
