REMARK  Name = ZINC16612773
REMARK  12 active torsions:
REMARK  status: ('A' for Active; 'I' for Inactive)
REMARK    1  A    between atoms: C_1  and  C_2
REMARK    2  A    between atoms: C_2  and  C_3
REMARK    3  A    between atoms: C_3  and  C_5
REMARK    4  A    between atoms: C_3  and  N_6
REMARK    5  A    between atoms: C_7  and  C_9
REMARK    6  A    between atoms: C_9  and  N_10
REMARK    7  A    between atoms: N_12  and  C_28
REMARK    8  A    between atoms: C_21  and  C_23
REMARK    9  A    between atoms: C_23  and  C_24
REMARK   10  A    between atoms: C_24  and  C_25
REMARK   11  A    between atoms: C_24  and  C_26
REMARK   12  A    between atoms: C_24  and  C_27
REMARK                            x       y       z     vdW  Elec       q    Type
REMARK                         _______ _______ _______ _____ _____    ______ ____
ROOT
ATOM      1  N   UNL     1       3.718   5.055   1.530  0.00  0.00    -0.275 N 
ATOM      2  C   UNL     1       3.052   3.767   1.302  0.00  0.00    +0.217 C 
ATOM      3  N   UNL     1       2.353   3.888   0.001  0.00  0.00    -0.300 N 
ATOM      4  C   UNL     1       2.101   5.340  -0.109  0.00  0.00    +0.115 C 
ATOM      5  C   UNL     1       3.176   5.993   0.725  0.00  0.00    +0.241 C 
ATOM      6  O   UNL     1       3.497   7.162   0.680  0.00  0.00    -0.273 OA
ATOM      7  C   UNL     1       0.720   5.674   0.447  0.00  0.00    +0.054 C 
ATOM      8  C   UNL     1       0.492   7.188   0.370  0.00  0.00    +0.110 C 
ATOM      9  N   UNL     1       0.723   7.630  -1.012  0.00  0.00    -0.301 N 
ATOM     10  C   UNL     1       1.999   7.296  -1.658  0.00  0.00    +0.110 C 
ATOM     11  C   UNL     1       2.216   5.781  -1.565  0.00  0.00    +0.054 C 
ATOM     12  C   UNL     1      -0.219   8.330  -1.675  0.00  0.00    +0.216 C 
ATOM     13  O   UNL     1      -0.017   8.689  -2.816  0.00  0.00    -0.276 OA
ENDROOT
BRANCH   3  14
ATOM     14  C   UNL     1       1.155   3.171   0.008  0.00  0.00    +0.032 A 
ATOM     15  C   UNL     1       0.264   3.294  -1.050  0.00  0.00    +0.023 A 
ATOM     16  C   UNL     1      -0.920   2.583  -1.040  0.00  0.00    +0.002 A 
ATOM     17  C   UNL     1      -1.222   1.754   0.024  0.00  0.00    +0.000 A 
ATOM     18  C   UNL     1      -0.335   1.625   1.077  0.00  0.00    +0.002 A 
ATOM     19  C   UNL     1       0.851   2.333   1.073  0.00  0.00    +0.023 A 
ENDBRANCH   3  14
BRANCH   1  20
ATOM     20  C   UNL     1       4.806   5.287   2.484  0.00  0.00    +0.205 C 
BRANCH  20  22
ATOM     21  N   UNL     1       5.046   5.945   4.856  0.00  0.00    -0.311 N 
ATOM     22  C   UNL     1       4.227   5.681   3.818  0.00  0.00    +0.231 C 
ATOM     23  O   UNL     1       3.025   5.761   3.959  0.00  0.00    -0.274 OA
ATOM     24  H   UNL     1       6.008   5.882   4.743  0.00  0.00    +0.149 HD
BRANCH  21  25
ATOM     25  C   UNL     1       4.484   6.329   6.153  0.00  0.00    +0.070 C 
ATOM     26  C   UNL     1       4.126   5.070   6.946  0.00  0.00    +0.028 C 
BRANCH  25  28
ATOM     27  C   UNL     1       5.779   8.464   6.202  0.00  0.00    +0.005 C 
ATOM     28  C   UNL     1       5.514   7.147   6.934  0.00  0.00    +0.018 C 
ENDBRANCH  25  28
ENDBRANCH  21  25
ENDBRANCH  20  22
ENDBRANCH   1  20
BRANCH  12  29
ATOM     29  C   UNL     1      -1.524   8.665  -1.000  0.00  0.00    +0.102 C 
BRANCH  29  30
ATOM     30  C   UNL     1      -2.408   9.458  -1.964  0.00  0.00    -0.029 C 
ATOM     31  C   UNL     1      -2.682   8.618  -3.213  0.00  0.00    +0.011 C 
ATOM     32  C   UNL     1      -3.733   9.799  -1.278  0.00  0.00    +0.011 C 
ATOM     33  C   UNL     1      -1.695  10.751  -2.365  0.00  0.00    +0.011 C 
ENDBRANCH  29  30
ENDBRANCH  12  29
TORSDOF 7
