REMARK  Name = ZINC37357814
REMARK  9 active torsions:
REMARK  status: ('A' for Active; 'I' for Inactive)
REMARK    1  A    between atoms: C_1  and  N_2
REMARK    2  A    between atoms: N_2  and  C_3
REMARK    3  A    between atoms: N_2  and  C_4
REMARK    4  A    between atoms: C_4  and  C_5
REMARK    5  A    between atoms: C_5  and  N_6
REMARK    6  A    between atoms: C_14  and  C_29
REMARK    7  A    between atoms: C_16  and  N_28
REMARK    8  A    between atoms: N_17  and  C_21
REMARK    9  A    between atoms: C_21  and  C_22
REMARK                            x       y       z     vdW  Elec       q    Type
REMARK                         _______ _______ _______ _____ _____    ______ ____
ROOT
ATOM      1  N   UNL     1      -1.791  -2.856  -2.018  0.00  0.00    -0.301 NA
ATOM      2  C   UNL     1      -2.911  -2.303  -2.790  0.00  0.00    +0.103 C 
ATOM      3  C   UNL     1      -4.232  -2.686  -2.114  0.00  0.00    +0.123 C 
ATOM      4  N   UNL     1      -4.260  -4.146  -1.936  0.00  0.00    -0.297 N 
ATOM      5  C   UNL     1      -3.106  -4.790  -1.291  0.00  0.00    +0.123 C 
ATOM      6  C   UNL     1      -1.829  -4.325  -2.000  0.00  0.00    +0.103 C 
ATOM      7  C   UNL     1      -5.343  -4.893  -2.364  0.00  0.00    +0.220 A 
ATOM      8  N   UNL     1      -5.314  -6.208  -2.171  0.00  0.00    -0.214 NA
ATOM      9  C   UNL     1      -6.310  -6.999  -2.550  0.00  0.00    +0.089 A 
ATOM     10  C   UNL     1      -7.431  -6.410  -3.178  0.00  0.00    +0.086 A 
ATOM     11  C   UNL     1      -8.633  -6.868  -3.703  0.00  0.00    +0.126 A 
ATOM     12  N   UNL     1      -9.302  -5.801  -4.174  0.00  0.00    -0.244 N 
ATOM     13  N   UNL     1      -8.552  -4.638  -3.966  0.00  0.00    -0.149 NA
ATOM     14  C   UNL     1      -7.422  -4.948  -3.371  0.00  0.00    +0.188 A 
ATOM     15  N   UNL     1      -6.348  -4.262  -2.934  0.00  0.00    -0.193 NA
ENDROOT
BRANCH   9  16
ATOM     16  C   UNL     1      -6.249  -8.460  -2.323  0.00  0.00    +0.001 A 
ATOM     17  C   UNL     1      -6.603  -9.343  -3.343  0.00  0.00    +0.011 A 
ATOM     18  C   UNL     1      -6.544 -10.704  -3.125  0.00  0.00    +0.020 A 
ATOM     19  C   UNL     1      -6.132 -11.194  -1.897  0.00  0.00    +0.041 A 
ATOM     20  C   UNL     1      -5.779 -10.322  -0.881  0.00  0.00    +0.020 A 
ATOM     21  C   UNL     1      -5.830  -8.960  -1.089  0.00  0.00    +0.011 A 
ATOM     22 CL   UNL     1      -6.059 -12.908  -1.630  0.00  0.00    -0.084 Cl
ENDBRANCH   9  16
BRANCH  11  23
ATOM     23  N   UNL     1      -9.063  -8.181  -3.735  0.00  0.00    -0.343 N 
ATOM     24  H   UNL     1      -8.659  -8.838  -3.148  0.00  0.00    +0.144 HD
ATOM     25  H   UNL     1      -9.770  -8.445  -4.345  0.00  0.00    +0.144 HD
ENDBRANCH  11  23
BRANCH   1  26
ATOM     26  C   UNL     1      -0.505  -2.369  -2.534  0.00  0.00    +0.066 C 
BRANCH  26  27
ATOM     27  C   UNL     1      -0.403  -0.860  -2.307  0.00  0.00    -0.064 C 
BRANCH  27  29
ATOM     28  C   UNL     1       0.932   1.091  -2.715  0.00  0.00    -0.097 C 
ATOM     29  N   UNL     1       0.884  -0.373  -2.823  0.00  0.00    +0.377 N 
ATOM     30  C   UNL     1       1.979  -0.958  -2.038  0.00  0.00    -0.097 C 
ATOM     31  H   UNL     1       0.982  -0.642  -3.790  0.00  0.00    -0.083 HD
ENDBRANCH  27  29
ENDBRANCH  26  27
ENDBRANCH   1  26
BRANCH  12  32
ATOM     32  C   UNL     1     -10.620  -5.849  -4.812  0.00  0.00    +0.180 C 
BRANCH  32  33
ATOM     33  C   UNL     1     -11.691  -5.694  -3.764  0.00  0.00    -0.026 A 
ATOM     34  C   UNL     1     -12.207  -6.810  -3.132  0.00  0.00    +0.005 A 
ATOM     35  C   UNL     1     -13.189  -6.668  -2.170  0.00  0.00    +0.000 A 
ATOM     36  C   UNL     1     -13.657  -5.410  -1.840  0.00  0.00    +0.000 A 
ATOM     37  C   UNL     1     -13.141  -4.293  -2.471  0.00  0.00    +0.000 A 
ATOM     38  C   UNL     1     -12.155  -4.435  -3.430  0.00  0.00    +0.005 A 
ENDBRANCH  32  33
ENDBRANCH  12  32
TORSDOF 7
