REMARK  Name = ZINC05094175
REMARK  10 active torsions:
REMARK  status: ('A' for Active; 'I' for Inactive)
REMARK    1  A    between atoms: C_1  and  C_2
REMARK    2  A    between atoms: C_2  and  C_3
REMARK    3  A    between atoms: C_4  and  C_9
REMARK    4  A    between atoms: C_5  and  C_8
REMARK    5  A    between atoms: C_9  and  O_11
REMARK    6  A    between atoms: O_11  and  C_12
REMARK    7  A    between atoms: C_12  and  C_13
REMARK    8  A    between atoms: C_13  and  C_15
REMARK    9  A    between atoms: C_15  and  C_26
REMARK   10  A    between atoms: N_17  and  C_25
REMARK                            x       y       z     vdW  Elec       q    Type
REMARK                         _______ _______ _______ _____ _____    ______ ____
ROOT
ATOM      1  C   UNL     1       4.732   0.859   0.043  0.00  0.00    +0.213 C 
ATOM      2  O   UNL     1       4.518  -0.335   0.133  0.00  0.00    -0.288 OA
ENDROOT
BRANCH   1   3
ATOM      3  C   UNL     1       3.659   1.761  -0.042  0.00  0.00    +0.126 C 
ATOM      4  C   UNL     1       2.335   1.283  -0.022  0.00  0.00    +0.094 C 
ATOM      5  N   UNL     1       1.182   2.000   0.016  0.00  0.00    -0.296 N 
ATOM      6  C   UNL     1      -0.038   1.351   0.030  0.00  0.00    +0.048 A 
ATOM      7  C   UNL     1      -1.324   1.913   0.074  0.00  0.00    +0.024 A 
ATOM      8  C   UNL     1      -2.441   1.113   0.078  0.00  0.00    +0.002 A 
ATOM      9  C   UNL     1      -2.335  -0.268   0.050  0.00  0.00    +0.001 A 
ATOM     10  C   UNL     1      -1.081  -0.850   0.013  0.00  0.00    +0.017 A 
ATOM     11  C   UNL     1       0.038  -0.050   0.003  0.00  0.00    +0.035 A 
ATOM     12  S   UNL     1       1.785  -0.361  -0.040  0.00  0.00    -0.071 S 
ATOM     13  C   UNL     1       1.231   3.463   0.041  0.00  0.00    +0.136 C 
BRANCH   3  14
ATOM     14  C   UNL     1       3.912   3.166  -0.148  0.00  0.00    +0.105 C 
ATOM     15  N   UNL     1       4.112   4.281  -0.232  0.00  0.00    -0.191 NA
ENDBRANCH   3  14
ENDBRANCH   1   3
BRANCH   1  16
ATOM     16  C   UNL     1       6.150   1.370   0.022  0.00  0.00    +0.312 C 
BRANCH  16  17
ATOM     17  O   UNL     1       7.070   0.251   0.122  0.00  0.00    -0.453 OA
BRANCH  17  18
ATOM     18  C   UNL     1       8.386   0.539   0.117  0.00  0.00    +0.345 C 
ATOM     19  O   UNL     1       8.755   1.693   0.032  0.00  0.00    -0.245 OA
BRANCH  18  21
ATOM     20  C   UNL     1      10.006  -1.315  -0.871  0.00  0.00    +0.098 A 
ATOM     21  C   UNL     1       9.377  -0.546   0.215  0.00  0.00    +0.123 A 
ATOM     22  C   UNL     1       9.939  -1.094   1.343  0.00  0.00    +0.148 A 
ATOM     23  O   UNL     1      10.778  -2.043   0.921  0.00  0.00    -0.359 OA
ATOM     24  N   UNL     1      10.807  -2.151  -0.280  0.00  0.00    -0.082 NA
ATOM     25  C   UNL     1       9.664  -0.702   2.772  0.00  0.00    +0.090 C 
BRANCH  20  27
ATOM     26  C   UNL     1      10.759  -0.144  -2.922  0.00  0.00    +0.010 C 
ATOM     27  C   UNL     1       9.772  -1.164  -2.352  0.00  0.00    +0.056 C 
ENDBRANCH  20  27
ENDBRANCH  18  21
ENDBRANCH  17  18
ENDBRANCH  16  17
ENDBRANCH   1  16
TORSDOF 7
