REMARK  Name = ZINC12497947
REMARK  10 active torsions:
REMARK  status: ('A' for Active; 'I' for Inactive)
REMARK    1  A    between atoms: C_1  and  C_2
REMARK    2  A    between atoms: C_5  and  S_8
REMARK    3  A    between atoms: S_8  and  C_9
REMARK    4  A    between atoms: C_9  and  C_10
REMARK    5  A    between atoms: N_12  and  C_13
REMARK    6  A    between atoms: C_13  and  C_14
REMARK    7  A    between atoms: C_14  and  N_52
REMARK    8  A    between atoms: C_15  and  N_52
REMARK    9  A    between atoms: C_16  and  N_52
REMARK   10  A    between atoms: C_20  and  C_27
REMARK                            x       y       z     vdW  Elec       q    Type
REMARK                         _______ _______ _______ _____ _____    ______ ____
ROOT
ATOM      1  C   UNL     1       3.806   3.190  -0.018  0.00  0.00    +0.231 C 
ATOM      2  O   UNL     1       4.396   2.131  -0.029  0.00  0.00    -0.274 OA
ATOM      3  N   UNL     1       2.458   3.210  -0.004  0.00  0.00    -0.252 N 
ATOM      4  C   UNL     1       1.748   2.021  -0.004  0.00  0.00    +0.168 A 
ATOM      5  N   UNL     1       2.203   0.790  -0.015  0.00  0.00    -0.224 NA
ATOM      6  C   UNL     1       1.387  -0.286  -0.013  0.00  0.00    +0.085 A 
ATOM      7  C   UNL     1       1.745  -1.654  -0.024  0.00  0.00    -0.024 A 
ATOM      8  C   UNL     1       0.784  -2.631  -0.020  0.00  0.00    +0.007 A 
ATOM      9  C   UNL     1      -0.568  -2.317  -0.006  0.00  0.00    +0.021 A 
ATOM     10  C   UNL     1      -0.955  -0.989   0.005  0.00  0.00    +0.057 A 
ATOM     11  C   UNL     1       0.002  -0.004   0.002  0.00  0.00    +0.059 A 
ATOM     12  S   UNL     1      -0.022   1.772   0.012  0.00  0.00    -0.050 S 
ATOM     13 CL   UNL     1      -2.640  -0.571   0.023  0.00  0.00    -0.082 Cl
ATOM     14  C   UNL     1       3.201  -2.043  -0.040  0.00  0.00    +0.046 C 
ENDROOT
BRANCH   1  15
ATOM     15  C   UNL     1       4.579   4.484  -0.018  0.00  0.00    +0.170 C 
BRANCH  15  16
ATOM     16  S   UNL     1       6.357   4.126  -0.038  0.00  0.00    -0.116 S 
BRANCH  16  21
ATOM     17  C   UNL     1       8.945   9.579  -0.034  0.00  0.00    +0.044 C 
ATOM     18  C   UNL     1       8.299   8.217  -0.035  0.00  0.00    -0.050 A 
ATOM     19  C   UNL     1       9.086   7.080  -0.048  0.00  0.00    +0.004 A 
ATOM     20  C   UNL     1       8.498   5.831  -0.049  0.00  0.00    +0.015 A 
ATOM     21  C   UNL     1       7.112   5.718  -0.036  0.00  0.00    +0.008 A 
ATOM     22  C   UNL     1       6.325   6.862  -0.028  0.00  0.00    +0.015 A 
ATOM     23  C   UNL     1       6.920   8.108  -0.021  0.00  0.00    +0.004 A 
ENDBRANCH  16  21
ENDBRANCH  15  16
ENDBRANCH   1  15
BRANCH   3  24
ATOM     24  C   UNL     1       1.745   4.490   0.010  0.00  0.00    +0.097 C 
BRANCH  24  25
ATOM     25  C   UNL     1       1.511   4.927   1.457  0.00  0.00    -0.060 C 
BRANCH  25  28
ATOM     26  C   UNL     1      -0.561   6.063   0.927  0.00  0.00    -0.097 C 
ATOM     27  C   UNL     1       0.761   6.778   2.826  0.00  0.00    -0.097 C 
ATOM     28  N   UNL     1       0.810   6.228   1.455  0.00  0.00    +0.377 N 
ATOM     29  H   UNL     1       1.323   6.882   0.852  0.00  0.00    -0.083 HD
ENDBRANCH  25  28
ENDBRANCH  24  25
ENDBRANCH   3  24
TORSDOF 6
