REMARK  Name = ZINC58316745
REMARK  12 active torsions:
REMARK  status: ('A' for Active; 'I' for Inactive)
REMARK    1  A    between atoms: C_1  and  C_2
REMARK    2  A    between atoms: C_2  and  C_3
REMARK    3  A    between atoms: C_3  and  C_4
REMARK    4  A    between atoms: C_4  and  C_6
REMARK    5  A    between atoms: C_4  and  N_21
REMARK    6  A    between atoms: N_8  and  C_9
REMARK    7  A    between atoms: C_9  and  C_11
REMARK    8  A    between atoms: C_9  and  C_12
REMARK    9  A    between atoms: C_12  and  N_13
REMARK   10  A    between atoms: C_17  and  C_20
REMARK   11  A    between atoms: N_24  and  C_25
REMARK   12  A    between atoms: C_25  and  C_26
REMARK                            x       y       z     vdW  Elec       q    Type
REMARK                         _______ _______ _______ _____ _____    ______ ____
ROOT
ATOM      1  C   UNL     1       0.763  -2.041   1.233  0.00  0.00    +0.160 C 
ENDROOT
BRANCH   1   2
ATOM      2  N   UNL     1      -0.605  -2.548   1.364  0.00  0.00    -0.288 N 
ATOM      3  C   UNL     1      -1.382  -2.682   0.271  0.00  0.00    +0.300 C 
ATOM      4  O   UNL     1      -0.947  -2.381  -0.824  0.00  0.00    -0.253 OA
ATOM      5  N   UNL     1      -2.640  -3.149   0.391  0.00  0.00    -0.295 N 
ATOM      6  H   UNL     1      -0.952  -2.789   2.237  0.00  0.00    +0.151 HD
ATOM      7  H   UNL     1      -2.987  -3.389   1.264  0.00  0.00    +0.151 HD
BRANCH   5   8
ATOM      8  C   UNL     1      -3.485  -3.293  -0.798  0.00  0.00    +0.141 C 
BRANCH   8   9
ATOM      9  C   UNL     1      -4.833  -3.831  -0.393  0.00  0.00    -0.030 A 
ATOM     10  C   UNL     1      -5.049  -5.196  -0.351  0.00  0.00    +0.008 A 
ATOM     11  C   UNL     1      -6.285  -5.689   0.020  0.00  0.00    +0.038 A 
ATOM     12  C   UNL     1      -7.308  -4.816   0.349  0.00  0.00    +0.123 A 
ATOM     13  C   UNL     1      -7.091  -3.449   0.307  0.00  0.00    +0.038 A 
ATOM     14  C   UNL     1      -5.853  -2.958  -0.060  0.00  0.00    +0.008 A 
ATOM     15  F   UNL     1      -8.517  -5.298   0.712  0.00  0.00    -0.205 F 
ENDBRANCH   8   9
ENDBRANCH   5   8
ENDBRANCH   1   2
BRANCH   1  16
ATOM     16  C   UNL     1       1.596  -2.538   2.386  0.00  0.00    +0.234 C 
ATOM     17  O   UNL     1       1.096  -3.247   3.234  0.00  0.00    -0.274 OA
ATOM     18  N   UNL     1       2.896  -2.195   2.476  0.00  0.00    -0.313 N 
ATOM     19  H   UNL     1       3.296  -1.629   1.798  0.00  0.00    +0.149 HD
BRANCH  18  20
ATOM     20  C   UNL     1       3.705  -2.679   3.597  0.00  0.00    +0.053 C 
ATOM     21  C   UNL     1       3.528  -1.744   4.795  0.00  0.00    +0.026 C 
BRANCH  20  22
ATOM     22  C   UNL     1       5.179  -2.708   3.187  0.00  0.00    -0.057 C 
BRANCH  22  23
ATOM     23  N   UNL     1       5.332  -3.510   1.965  0.00  0.00    +0.381 N 
ATOM     24  C   UNL     1       4.971  -4.904   2.249  0.00  0.00    -0.079 C 
ATOM     25  C   UNL     1       5.050  -5.728   0.962  0.00  0.00    -0.018 C 
ATOM     26  C   UNL     1       6.478  -5.670   0.412  0.00  0.00    -0.001 C 
ATOM     27  C   UNL     1       6.870  -4.206   0.190  0.00  0.00    -0.031 C 
ATOM     28  C   UNL     1       6.724  -3.439   1.506  0.00  0.00    -0.076 C 
ATOM     29  C   UNL     1       8.322  -4.133  -0.286  0.00  0.00    +0.005 C 
ATOM     30  H   UNL     1       4.723  -3.147   1.248  0.00  0.00    -0.082 HD
ENDBRANCH  22  23
ENDBRANCH  20  22
ENDBRANCH  18  20
ENDBRANCH   1  16
BRANCH   1  31
ATOM     31  C   UNL     1       0.742  -0.511   1.242  0.00  0.00    +0.031 C 
BRANCH  31  33
ATOM     32  C   UNL     1      -0.019   1.526   0.010  0.00  0.00    +0.004 C 
ATOM     33  C   UNL     1       0.002  -0.004   0.002  0.00  0.00    -0.001 C 
ENDBRANCH  31  33
ENDBRANCH   1  31
TORSDOF 9
