REMARK  Name = ZINC12208610
REMARK  11 active torsions:
REMARK  status: ('A' for Active; 'I' for Inactive)
REMARK    1  A    between atoms: C_1  and  C_2
REMARK    2  A    between atoms: C_2  and  O_3
REMARK    3  A    between atoms: O_3  and  C_4
REMARK    4  A    between atoms: C_8  and  C_11
REMARK    5  A    between atoms: C_9  and  O_10
REMARK    6  A    between atoms: C_11  and  N_60
REMARK    7  A    between atoms: C_12  and  N_60
REMARK    8  A    between atoms: C_15  and  C_29
REMARK    9  A    between atoms: C_15  and  C_30
REMARK   10  A    between atoms: N_21  and  C_22
REMARK   11  A    between atoms: C_25  and  C_28
REMARK                            x       y       z     vdW  Elec       q    Type
REMARK                         _______ _______ _______ _____ _____    ______ ____
ROOT
ATOM      1  C   UNL     1       3.567   0.786   0.155  0.00  0.00    -0.037 C 
ATOM      2  C   UNL     1       4.014   2.233  -0.086  0.00  0.00    -0.005 C 
ATOM      3  C   UNL     1       3.203   3.175   0.808  0.00  0.00    -0.031 C 
ATOM      4  C   UNL     1       1.754   3.233   0.310  0.00  0.00    +0.062 C 
ATOM      5  C   UNL     1       1.256   1.821   0.130  0.00  0.00    +0.047 A 
ATOM      6  C   UNL     1       2.062   0.731   0.063  0.00  0.00    -0.020 A 
ATOM      7  C   UNL     1       1.256  -0.393  -0.101  0.00  0.00    +0.137 A 
ATOM      8  N   UNL     1       0.006   0.003  -0.133  0.00  0.00    -0.174 NA
ATOM      9  N   UNL     1      -0.017   1.399   0.010  0.00  0.00    -0.237 N 
ATOM     10  C   UNL     1       3.815   4.576   0.761  0.00  0.00    +0.011 C 
ATOM     11  C   UNL     1       3.227   2.656   2.248  0.00  0.00    +0.011 C 
ENDROOT
BRANCH   9  12
ATOM     12  C   UNL     1      -1.161   2.209   0.020  0.00  0.00    +0.066 A 
ATOM     13  C   UNL     1      -2.294   1.805   0.713  0.00  0.00    +0.028 A 
ATOM     14  C   UNL     1      -3.417   2.609   0.725  0.00  0.00    +0.005 A 
ATOM     15  C   UNL     1      -3.418   3.809   0.039  0.00  0.00    -0.050 A 
ATOM     16  C   UNL     1      -2.293   4.212  -0.657  0.00  0.00    +0.005 A 
ATOM     17  C   UNL     1      -1.164   3.415  -0.668  0.00  0.00    +0.028 A 
ATOM     18  C   UNL     1      -4.647   4.680   0.050  0.00  0.00    +0.044 C 
ENDBRANCH   9  12
BRANCH   1  19
ATOM     19  N   UNL     1       4.161  -0.087  -0.876  0.00  0.00    +0.386 N 
ATOM     20  H   UNL     1       3.576  -0.060  -1.719  0.00  0.00    -0.085 HD
ATOM     21  H   UNL     1       5.104   0.249  -1.102  0.00  0.00    -0.085 HD
BRANCH  19  22
ATOM     22  C   UNL     1       4.244  -1.475  -0.385  0.00  0.00    -0.042 C 
BRANCH  22  27
ATOM     23  C   UNL     1       6.785  -3.159  -2.628  0.00  0.00    +0.162 A 
ATOM     24  C   UNL     1       5.966  -3.940  -3.428  0.00  0.00    +0.049 A 
ATOM     25  C   UNL     1       4.596  -3.921  -3.241  0.00  0.00    +0.004 A 
ATOM     26  C   UNL     1       4.041  -3.124  -2.257  0.00  0.00    +0.005 A 
ATOM     27  C   UNL     1       4.853  -2.342  -1.456  0.00  0.00    -0.019 A 
ATOM     28  C   UNL     1       6.226  -2.353  -1.642  0.00  0.00    +0.160 A 
BRANCH  28  29
ATOM     29  O   UNL     1       7.025  -1.580  -0.859  0.00  0.00    -0.503 OA
ATOM     30  H   UNL     1       7.330  -2.020  -0.053  0.00  0.00    +0.292 HD
ENDBRANCH  28  29
BRANCH  23  31
ATOM     31  O   UNL     1       8.133  -3.177  -2.811  0.00  0.00    -0.489 OA
BRANCH  31  33
ATOM     32  C   UNL     1      10.161  -3.911  -3.901  0.00  0.00    +0.048 C 
ATOM     33  C   UNL     1       8.636  -4.024  -3.846  0.00  0.00    +0.226 C 
ENDBRANCH  31  33
ENDBRANCH  23  31
ENDBRANCH  22  27
ENDBRANCH  19  22
ENDBRANCH   1  19
TORSDOF 7
