REMARK  Name = ZINC65398414
REMARK  8 active torsions:
REMARK  status: ('A' for Active; 'I' for Inactive)
REMARK    1  A    between atoms: C_1  and  C_2
REMARK    2  A    between atoms: C_2  and  N_3
REMARK    3  A    between atoms: C_10  and  C_22
REMARK    4  A    between atoms: C_10  and  C_24
REMARK    5  A    between atoms: C_12  and  C_14
REMARK    6  A    between atoms: C_16  and  C_21
REMARK    7  A    between atoms: C_19  and  O_20
REMARK    8  A    between atoms: C_22  and  O_23
REMARK                            x       y       z     vdW  Elec       q    Type
REMARK                         _______ _______ _______ _____ _____    ______ ____
ROOT
ATOM      1  N   UNL     1       0.848  -0.487  -0.783  0.00  0.00    +0.380 N 
ATOM      2  C   UNL     1       2.307  -0.210  -0.786  0.00  0.00    -0.073 C 
ATOM      3  C   UNL     1       2.847  -1.127  -1.908  0.00  0.00    -0.003 C 
ATOM      4  C   UNL     1       1.970  -2.406  -1.765  0.00  0.00    +0.002 C 
ATOM      5  C   UNL     1       0.715  -1.943  -1.004  0.00  0.00    -0.073 C 
ATOM      6  C   UNL     1       2.790  -3.356  -0.875  0.00  0.00    +0.070 C 
ATOM      7  N   UNL     1       4.003  -2.622  -0.455  0.00  0.00    -0.298 NA
ATOM      8  C   UNL     1       4.266  -1.602  -1.519  0.00  0.00    +0.090 C 
ATOM      9  H   UNL     1       3.862  -2.171   0.437  0.00  0.00    +0.123 HD
ATOM     10  H   UNL     1       0.396   0.020  -1.529  0.00  0.00    -0.082 HD
ENDROOT
BRANCH   8  11
ATOM     11  C   UNL     1       5.087  -0.448  -1.002  0.00  0.00    +0.011 A 
ATOM     12  C   UNL     1       5.247  -0.268   0.358  0.00  0.00    +0.012 A 
ATOM     13  C   UNL     1       5.999   0.790   0.833  0.00  0.00    -0.050 A 
ATOM     14  C   UNL     1       6.594   1.670  -0.052  0.00  0.00    +0.007 A 
ATOM     15  C   UNL     1       6.437   1.494  -1.413  0.00  0.00    +0.046 A 
ATOM     16  C   UNL     1       5.687   0.430  -1.892  0.00  0.00    +0.122 A 
ATOM     17  C   UNL     1       6.171   0.985   2.317  0.00  0.00    +0.044 C 
BRANCH  16  18
ATOM     18  O   UNL     1       5.536   0.251  -3.231  0.00  0.00    -0.506 OA
ATOM     19  H   UNL     1       4.769   0.708  -3.605  0.00  0.00    +0.292 HD
ENDBRANCH  16  18
ENDBRANCH   8  11
BRANCH   6  20
ATOM     20  C   UNL     1       3.178  -4.584  -1.657  0.00  0.00    -0.025 A 
ATOM     21  C   UNL     1       2.364  -5.040  -2.676  0.00  0.00    +0.005 A 
ATOM     22  C   UNL     1       2.720  -6.167  -3.393  0.00  0.00    +0.000 A 
ATOM     23  C   UNL     1       3.890  -6.838  -3.091  0.00  0.00    +0.000 A 
ATOM     24  C   UNL     1       4.705  -6.381  -2.072  0.00  0.00    +0.000 A 
ATOM     25  C   UNL     1       4.351  -5.252  -1.358  0.00  0.00    +0.005 A 
ENDBRANCH   6  20
BRANCH   1  27
ATOM     26  C   UNL     1       0.298   1.407   0.668  0.00  0.00    -0.017 C 
ATOM     27  C   UNL     1       0.264  -0.115   0.512  0.00  0.00    -0.082 C 
ENDBRANCH   1  27
BRANCH   6  28
ATOM     28  C   UNL     1       1.970  -3.754   0.355  0.00  0.00    +0.183 C 
BRANCH  28  29
ATOM     29  O   UNL     1       0.758  -4.383  -0.065  0.00  0.00    -0.393 OA
ATOM     30  H   UNL     1       0.187  -4.663   0.664  0.00  0.00    +0.209 HD
ENDBRANCH  28  29
ENDBRANCH   6  28
TORSDOF 6
