REMARK  Name = ZINC09560601
REMARK  13 active torsions:
REMARK  status: ('A' for Active; 'I' for Inactive)
REMARK    1  A    between atoms: C_1  and  C_2
REMARK    2  A    between atoms: C_2  and  C_3
REMARK    3  A    between atoms: C_3  and  C_5
REMARK    4  A    between atoms: C_3  and  N_6
REMARK    5  A    between atoms: C_7  and  C_9
REMARK    6  A    between atoms: C_10  and  N_36
REMARK    7  A    between atoms: C_12  and  C_30
REMARK    8  A    between atoms: C_13  and  C_19
REMARK    9  A    between atoms: C_14  and  C_18
REMARK   10  A    between atoms: N_21  and  C_22
REMARK   11  A    between atoms: C_25  and  C_29
REMARK   12  A    between atoms: C_27  and  C_28
REMARK   13  A    between atoms: C_33  and  C_35
REMARK                            x       y       z     vdW  Elec       q    Type
REMARK                         _______ _______ _______ _____ _____    ______ ____
ROOT
ATOM      1  C   UNL     1       2.812  -2.549  -0.037  0.00  0.00    +0.097 A 
ATOM      2  C   UNL     1       1.501  -2.121  -0.021  0.00  0.00    +0.054 A 
ATOM      3  C   UNL     1       1.243  -0.693  -0.012  0.00  0.00    +0.040 A 
ATOM      4  C   UNL     1      -0.016  -0.017   0.004  0.00  0.00    +0.043 A 
ATOM      5  C   UNL     1      -0.024   1.390   0.009  0.00  0.00    +0.069 A 
ATOM      6  C   UNL     1       1.186   2.092  -0.001  0.00  0.00    +0.052 A 
ATOM      7  N   UNL     1       2.331   1.446  -0.016  0.00  0.00    -0.244 NA
ATOM      8  C   UNL     1       2.393   0.128  -0.021  0.00  0.00    +0.112 A 
ATOM      9  S   UNL     1       3.741  -1.028  -0.041  0.00  0.00    -0.062 S 
ATOM     10  C   UNL     1       1.177   3.599   0.005  0.00  0.00    +0.066 C 
ENDROOT
BRANCH   4  11
ATOM     11  C   UNL     1      -1.275  -0.775   0.015  0.00  0.00    +0.137 A 
ATOM     12  C   UNL     1      -2.213  -0.785  -0.976  0.00  0.00    +0.050 A 
ATOM     13  C   UNL     1      -3.244  -1.639  -0.547  0.00  0.00    +0.045 A 
ATOM     14  C   UNL     1      -2.893  -2.105   0.670  0.00  0.00    +0.103 A 
ATOM     15  O   UNL     1      -1.702  -1.587   1.003  0.00  0.00    -0.460 OA
ATOM     16  C   UNL     1      -3.703  -3.057   1.512  0.00  0.00    +0.086 C 
ENDBRANCH   4  11
BRANCH   1  18
ATOM     17  N   UNL     1       4.631  -4.106  -0.064  0.00  0.00    -0.308 N 
ATOM     18  C   UNL     1       3.303  -3.878  -0.048  0.00  0.00    +0.253 C 
ATOM     19  O   UNL     1       2.524  -4.814  -0.043  0.00  0.00    -0.270 OA
ATOM     20  H   UNL     1       5.251  -3.360  -0.068  0.00  0.00    +0.149 HD
BRANCH  17  21
ATOM     21  C   UNL     1       5.138  -5.480  -0.075  0.00  0.00    +0.070 C 
ATOM     22  C   UNL     1       5.180  -5.997  -1.515  0.00  0.00    +0.028 C 
BRANCH  21  24
ATOM     23  C   UNL     1       6.488  -5.112   1.995  0.00  0.00    +0.005 C 
ATOM     24  C   UNL     1       6.548  -5.509   0.519  0.00  0.00    +0.018 C 
ENDBRANCH  21  24
ENDBRANCH  17  21
ENDBRANCH   1  18
BRANCH   5  25
ATOM     25  C   UNL     1      -1.301   2.121   0.020  0.00  0.00    +0.251 C 
ATOM     26  O   UNL     1      -1.823   2.419   1.077  0.00  0.00    -0.270 OA
ATOM     27  N   UNL     1      -1.893   2.460  -1.143  0.00  0.00    -0.281 N 
ATOM     28  H   UNL     1      -1.440   2.294  -1.984  0.00  0.00    +0.155 HD
BRANCH  27  29
ATOM     29  C   UNL     1      -3.160   3.051  -1.136  0.00  0.00    +0.037 A 
ATOM     30  C   UNL     1      -4.022   2.837  -0.068  0.00  0.00    +0.024 A 
ATOM     31  C   UNL     1      -5.273   3.422  -0.064  0.00  0.00    +0.005 A 
ATOM     32  C   UNL     1      -5.668   4.221  -1.122  0.00  0.00    -0.050 A 
ATOM     33  C   UNL     1      -4.812   4.437  -2.186  0.00  0.00    +0.008 A 
ATOM     34  C   UNL     1      -3.558   3.858  -2.194  0.00  0.00    -0.029 A 
ATOM     35  C   UNL     1      -2.624   4.098  -3.352  0.00  0.00    +0.045 C 
ATOM     36  C   UNL     1      -7.033   4.859  -1.114  0.00  0.00    +0.044 C 
ENDBRANCH  27  29
ENDBRANCH   5  25
BRANCH   2  37
ATOM     37  N   UNL     1       0.455  -3.034  -0.014  0.00  0.00    -0.356 N 
ATOM     38  H   UNL     1      -0.462  -2.719  -0.003  0.00  0.00    +0.142 HD
ATOM     39  H   UNL     1       0.642  -3.986  -0.020  0.00  0.00    +0.142 HD
ENDBRANCH   2  37
TORSDOF 7
