REMARK  Name = ZINC14111090
REMARK  5 active torsions:
REMARK  status: ('A' for Active; 'I' for Inactive)
REMARK    1  A    between atoms: C_6  and  C_7
REMARK    2  A    between atoms: N_10  and  C_12
REMARK    3  A    between atoms: C_12  and  C_13
REMARK    4  A    between atoms: N_15  and  C_16
REMARK    5  A    between atoms: C_16  and  C_22
REMARK                            x       y       z     vdW  Elec       q    Type
REMARK                         _______ _______ _______ _____ _____    ______ ____
ROOT
ATOM      1  C   UNL     1       0.256   0.907   4.905  0.00  0.00    +0.263 C 
ENDROOT
BRANCH   1   5
ATOM      2  C   UNL     1      -0.997   2.565   7.757  0.00  0.00    +0.205 A 
ATOM      3  N   UNL     1      -1.746   1.454   7.742  0.00  0.00    -0.108 NA
ATOM      4  N   UNL     1      -1.373   0.754   6.724  0.00  0.00    -0.045 NA
ATOM      5  N   UNL     1      -0.430   1.380   6.110  0.00  0.00    -0.154 N 
ATOM      6  N   UNL     1      -0.180   2.484   6.725  0.00  0.00    -0.130 NA
BRANCH   2  12
ATOM      7  C   UNL     1      -0.215   4.764   8.635  0.00  0.00    +0.013 A 
ATOM      8  C   UNL     1      -0.289   5.790   9.555  0.00  0.00    +0.021 A 
ATOM      9  C   UNL     1      -1.201   5.727  10.594  0.00  0.00    +0.041 A 
ATOM     10  C   UNL     1      -2.048   4.639  10.712  0.00  0.00    +0.021 A 
ATOM     11  C   UNL     1      -1.986   3.610   9.794  0.00  0.00    +0.013 A 
ATOM     12  C   UNL     1      -1.069   3.669   8.747  0.00  0.00    +0.023 A 
ATOM     13 CL   UNL     1      -1.285   7.018  11.752  0.00  0.00    -0.084 Cl
ENDBRANCH   2  12
ENDBRANCH   1   5
BRANCH   1  14
ATOM     14  C   UNL     1      -0.473   1.407   3.684  0.00  0.00    +0.237 C 
ATOM     15  O   UNL     1      -1.468   2.090   3.808  0.00  0.00    -0.274 OA
ATOM     16  N   UNL     1      -0.020   1.094   2.454  0.00  0.00    -0.296 N 
ATOM     17  H   UNL     1       0.775   0.547   2.354  0.00  0.00    +0.150 HD
BRANCH  16  18
ATOM     18  C   UNL     1      -0.729   1.579   1.267  0.00  0.00    +0.121 C 
ATOM     19  C   UNL     1      -0.013   1.086   0.008  0.00  0.00    +0.041 C 
ATOM     20  C   UNL     1      -0.753   1.593  -1.232  0.00  0.00    +0.003 C 
ATOM     21  C   UNL     1      -0.773   3.123  -1.223  0.00  0.00    +0.000 C 
ATOM     22  C   UNL     1      -1.490   3.616   0.036  0.00  0.00    +0.003 C 
ATOM     23  C   UNL     1      -0.750   3.109   1.275  0.00  0.00    +0.041 C 
BRANCH  18  24
ATOM     24  C   UNL     1      -2.110   1.070   1.277  0.00  0.00    +0.088 C 
ATOM     25  N   UNL     1      -3.176   0.676   1.285  0.00  0.00    -0.194 NA
ENDBRANCH  18  24
ENDBRANCH  16  18
ENDBRANCH   1  14
TORSDOF 5
