REMARK  Name = ZINC36692994
REMARK  3 active torsions:
REMARK  status: ('A' for Active; 'I' for Inactive)
REMARK    1  A    between atoms: C_6  and  C_7
REMARK    2  A    between atoms: C_12  and  C_15
REMARK    3  A    between atoms: C_21  and  C_23
REMARK                            x       y       z     vdW  Elec       q    Type
REMARK                         _______ _______ _______ _____ _____    ______ ____
ROOT
ATOM      1  C   UNL     1      -1.088  -5.868  -1.833  0.00  0.00    +0.222 C 
ATOM      2  O   UNL     1      -0.146  -5.914  -2.597  0.00  0.00    -0.275 OA
ATOM      3  N   UNL     1      -2.077  -6.778  -1.927  0.00  0.00    -0.263 N 
ATOM      4  C   UNL     1      -2.019  -7.771  -2.900  0.00  0.00    +0.188 A 
ATOM      5  N   UNL     1      -1.089  -7.991  -3.808  0.00  0.00    -0.126 NA
ATOM      6  N   UNL     1      -1.175  -8.943  -4.635  0.00  0.00    -0.144 NA
ATOM      7  C   UNL     1      -2.224  -9.740  -4.588  0.00  0.00    +0.110 A 
ATOM      8  S   UNL     1      -3.115  -9.011  -3.221  0.00  0.00    -0.035 S 
ATOM      9  H   UNL     1      -2.830  -6.741  -1.317  0.00  0.00    +0.157 HD
ENDROOT
BRANCH   7  10
ATOM     10  C   UNL     1      -2.570 -10.932  -5.442  0.00  0.00    +0.022 C 
ATOM     11  C   UNL     1      -2.681 -10.497  -6.905  0.00  0.00    +0.017 C 
ATOM     12  C   UNL     1      -3.033 -11.708  -7.772  0.00  0.00    -0.010 C 
ATOM     13  C   UNL     1      -1.938 -12.768  -7.636  0.00  0.00    +0.007 C 
ATOM     14  C   UNL     1      -1.828 -13.203  -6.173  0.00  0.00    -0.010 C 
ATOM     15  C   UNL     1      -1.476 -11.992  -5.306  0.00  0.00    +0.017 C 
ATOM     16  C   UNL     1      -3.164 -13.788  -5.713  0.00  0.00    +0.007 C 
ATOM     17  C   UNL     1      -4.259 -12.728  -5.849  0.00  0.00    -0.010 C 
ATOM     18  C   UNL     1      -4.369 -12.293  -7.311  0.00  0.00    +0.007 C 
ATOM     19  C   UNL     1      -3.907 -11.518  -4.982  0.00  0.00    +0.017 C 
ENDBRANCH   7  10
BRANCH   1  25
ATOM     20  C   UNL     1      -1.266  -0.763   0.010  0.00  0.00    +0.247 C 
ATOM     21  O   UNL     1      -0.227  -0.143  -0.104  0.00  0.00    -0.270 OA
ATOM     22  N   UNL     1      -1.241  -2.107   0.104  0.00  0.00    -0.297 N 
ATOM     23  C   UNL     1       0.035  -2.828   0.206  0.00  0.00    +0.109 C 
ATOM     24  C   UNL     1       0.086  -3.898  -0.889  0.00  0.00    +0.032 C 
ATOM     25  C   UNL     1      -1.151  -4.793  -0.779  0.00  0.00    +0.078 C 
ATOM     26  C   UNL     1      -2.412  -3.950  -0.985  0.00  0.00    +0.032 C 
ATOM     27  C   UNL     1      -2.491  -2.880   0.114  0.00  0.00    +0.109 C 
BRANCH  20  33
ATOM     28  C   UNL     1      -3.553  -0.434   0.941  0.00  0.00    +0.014 A 
ATOM     29  C   UNL     1      -4.755   0.241   0.969  0.00  0.00    +0.021 A 
ATOM     30  C   UNL     1      -4.974   1.306   0.111  0.00  0.00    +0.041 A 
ATOM     31  C   UNL     1      -3.989   1.698  -0.781  0.00  0.00    +0.021 A 
ATOM     32  C   UNL     1      -2.783   1.030  -0.818  0.00  0.00    +0.014 A 
ATOM     33  C   UNL     1      -2.556  -0.043   0.045  0.00  0.00    +0.037 A 
ATOM     34 CL   UNL     1      -6.490   2.151   0.151  0.00  0.00    -0.084 Cl
ENDBRANCH  20  33
ENDBRANCH   1  25
TORSDOF 3
