REMARK  Name = ZINC39419832
REMARK  10 active torsions:
REMARK  status: ('A' for Active; 'I' for Inactive)
REMARK    1  A    between atoms: C_1  and  C_2
REMARK    2  A    between atoms: C_2  and  C_3
REMARK    3  A    between atoms: C_8  and  C_12
REMARK    4  A    between atoms: C_12  and  C_14
REMARK    5  A    between atoms: C_14  and  S_15
REMARK    6  A    between atoms: S_15  and  C_16
REMARK    7  A    between atoms: N_27  and  C_28
REMARK    8  A    between atoms: C_28  and  C_29
REMARK    9  A    between atoms: C_29  and  C_30
REMARK   10  A    between atoms: C_30  and  N_31
REMARK                            x       y       z     vdW  Elec       q    Type
REMARK                         _______ _______ _______ _____ _____    ______ ____
ROOT
ATOM      1  C   UNL     1      -7.783  -2.274  -6.205  0.00  0.00    +0.222 C 
ATOM      2  N   UNL     1      -7.654  -0.892  -6.683  0.00  0.00    -0.317 N 
ATOM      3  C   UNL     1      -6.381  -0.362  -6.861  0.00  0.00    +0.041 A 
ATOM      4  C   UNL     1      -6.131   0.993  -6.728  0.00  0.00    +0.024 A 
ATOM      5  C   UNL     1      -4.851   1.475  -6.925  0.00  0.00    +0.002 A 
ATOM      6  C   UNL     1      -3.817   0.614  -7.254  0.00  0.00    +0.001 A 
ATOM      7  C   UNL     1      -4.048  -0.740  -7.386  0.00  0.00    +0.015 A 
ATOM      8  C   UNL     1      -5.333  -1.240  -7.185  0.00  0.00    +0.058 A 
ATOM      9  C   UNL     1      -5.625  -2.681  -7.290  0.00  0.00    +0.250 C 
ATOM     10  O   UNL     1      -4.788  -3.447  -7.727  0.00  0.00    -0.270 OA
ATOM     11  N   UNL     1      -6.827  -3.139  -6.897  0.00  0.00    -0.270 N 
ATOM     12  H   UNL     1      -8.442  -0.359  -6.871  0.00  0.00    +0.149 HD
ENDROOT
BRANCH   1  13
ATOM     13  S   UNL     1      -7.459  -2.326  -4.422  0.00  0.00    -0.111 S 
BRANCH  13  14
ATOM     14  C   UNL     1      -5.758  -1.714  -4.267  0.00  0.00    +0.151 C 
BRANCH  14  15
ATOM     15  C   UNL     1      -5.357  -1.706  -2.814  0.00  0.00    +0.171 C 
ATOM     16  O   UNL     1      -6.142  -2.078  -1.966  0.00  0.00    -0.291 OA
BRANCH  15  22
ATOM     17  C   UNL     1      -1.412  -0.526   0.013  0.00  0.00    -0.024 A 
ATOM     18  C   UNL     1      -2.010  -0.859   1.177  0.00  0.00    +0.005 A 
ATOM     19  C   UNL     1      -3.325  -1.347   1.223  0.00  0.00    +0.001 A 
ATOM     20  C   UNL     1      -4.077  -1.516   0.112  0.00  0.00    +0.010 A 
ATOM     21  C   UNL     1      -3.548  -1.198  -1.161  0.00  0.00    +0.006 A 
ATOM     22  C   UNL     1      -4.069  -1.267  -2.441  0.00  0.00    +0.024 C 
ATOM     23  C   UNL     1      -2.969  -0.774  -3.355  0.00  0.00    +0.152 C 
ATOM     24  N   UNL     1      -1.837  -0.441  -2.485  0.00  0.00    -0.380 N 
ATOM     25  C   UNL     1      -2.162  -0.673  -1.245  0.00  0.00    +0.046 A 
ATOM     26  H   UNL     1      -0.981  -0.097  -2.785  0.00  0.00    +0.160 HD
BRANCH  17  28
ATOM     27  C   UNL     1      -0.019   1.526   0.010  0.00  0.00    +0.009 C 
ATOM     28  C   UNL     1       0.002  -0.004   0.002  0.00  0.00    +0.034 C 
ENDBRANCH  17  28
ENDBRANCH  15  22
ENDBRANCH  14  15
ENDBRANCH  13  14
ENDBRANCH   1  13
BRANCH  11  29
ATOM     29  C   UNL     1      -7.183  -4.534  -7.168  0.00  0.00    +0.112 C 
BRANCH  29  30
ATOM     30  C   UNL     1      -7.872  -4.630  -8.530  0.00  0.00    +0.034 C 
BRANCH  30  31
ATOM     31  C   UNL     1      -8.244  -6.087  -8.813  0.00  0.00    +0.086 C 
BRANCH  31  32
ATOM     32  N   UNL     1      -8.905  -6.179 -10.121  0.00  0.00    -0.298 NA
ATOM     33  C   UNL     1     -10.204  -5.490 -10.104  0.00  0.00    +0.112 C 
ATOM     34  C   UNL     1     -10.831  -5.559 -11.499  0.00  0.00    +0.175 C 
ATOM     35  O   UNL     1     -10.948  -6.928 -11.896  0.00  0.00    -0.377 OA
ATOM     36  C   UNL     1      -9.702  -7.628 -11.925  0.00  0.00    +0.175 C 
ATOM     37  C   UNL     1      -9.064  -7.581 -10.534  0.00  0.00    +0.112 C 
ENDBRANCH  31  32
ENDBRANCH  30  31
ENDBRANCH  29  30
ENDBRANCH  11  29
TORSDOF 9
