REMARK  Name = ZINC06223167
REMARK  6 active torsions:
REMARK  status: ('A' for Active; 'I' for Inactive)
REMARK    1  A    between atoms: C_4  and  C_7
REMARK    2  A    between atoms: C_7  and  N_8
REMARK    3  A    between atoms: N_10  and  N_11
REMARK    4  A    between atoms: C_12  and  C_13
REMARK    5  A    between atoms: C_16  and  O_20
REMARK    6  A    between atoms: C_18  and  O_19
REMARK                            x       y       z     vdW  Elec       q    Type
REMARK                         _______ _______ _______ _____ _____    ______ ____
ROOT
ATOM      1  N   UNL     1       4.152  -0.952   1.338  0.00  0.00    -0.319 N 
ATOM      2  C   UNL     1       5.328  -1.610   1.572  0.00  0.00    +0.159 C 
ATOM      3  N   UNL     1       5.739  -1.839   2.856  0.00  0.00    -0.258 N 
ATOM      4  S   UNL     1       6.256  -2.130   0.298  0.00  0.00    -0.015 SA
ATOM      5  H   UNL     1       3.610  -0.648   2.082  0.00  0.00    +0.148 HD
ATOM      6  H   UNL     1       6.573  -2.305   3.022  0.00  0.00    +0.191 HD
ENDROOT
BRANCH   3   7
ATOM      7  N   UNL     1       4.956  -1.400   3.931  0.00  0.00    -0.180 NA
ATOM      8  C   UNL     1       5.346  -1.617   5.150  0.00  0.00    +0.144 C 
BRANCH   8   9
ATOM      9  C   UNL     1       4.522  -1.155   6.281  0.00  0.00    +0.036 A 
ATOM     10  C   UNL     1       4.943  -1.383   7.593  0.00  0.00    +0.016 A 
ATOM     11  C   UNL     1       4.170  -0.949   8.648  0.00  0.00    +0.046 A 
ATOM     12  C   UNL     1       2.972  -0.286   8.411  0.00  0.00    +0.120 A 
ATOM     13  C   UNL     1       2.545  -0.055   7.111  0.00  0.00    +0.091 A 
ATOM     14  C   UNL     1       3.316  -0.481   6.044  0.00  0.00    +0.129 A 
BRANCH  14  15
ATOM     15  O   UNL     1       2.903  -0.251   4.771  0.00  0.00    -0.506 OA
ATOM     16  H   UNL     1       2.352  -0.956   4.403  0.00  0.00    +0.292 HD
ENDBRANCH  14  15
BRANCH  12  17
ATOM     17  O   UNL     1       2.215   0.139   9.456  0.00  0.00    -0.507 OA
ATOM     18  H   UNL     1       2.424   1.034   9.756  0.00  0.00    +0.292 HD
ENDBRANCH  12  17
ENDBRANCH   8   9
ENDBRANCH   3   7
BRANCH   1  19
ATOM     19  C   UNL     1       3.711  -0.707  -0.038  0.00  0.00    +0.138 C 
BRANCH  19  23
ATOM     20  C   UNL     1      -0.017   1.378   0.010  0.00  0.00    +0.000 A 
ATOM     21  C   UNL     1       1.171   2.086   0.002  0.00  0.00    +0.000 A 
ATOM     22  C   UNL     1       2.377   1.411  -0.013  0.00  0.00    +0.005 A 
ATOM     23  C   UNL     1       2.396   0.029  -0.020  0.00  0.00    -0.030 A 
ATOM     24  C   UNL     1       1.208  -0.679  -0.012  0.00  0.00    +0.005 A 
ATOM     25  C   UNL     1       0.002  -0.004   0.002  0.00  0.00    +0.000 A 
ENDBRANCH  19  23
ENDBRANCH   1  19
TORSDOF 6
