REMARK  Name = ZINC01771001
REMARK  8 active torsions:
REMARK  status: ('A' for Active; 'I' for Inactive)
REMARK    1  A    between atoms: C_1  and  C_2
REMARK    2  A    between atoms: C_2  and  N_58
REMARK    3  A    between atoms: C_3  and  C_4
REMARK    4  A    between atoms: C_3  and  N_58
REMARK    5  A    between atoms: C_5  and  O_26
REMARK    6  A    between atoms: C_11  and  C_22
REMARK    7  A    between atoms: C_12  and  C_15
REMARK    8  A    between atoms: C_27  and  N_58
REMARK                            x       y       z     vdW  Elec       q    Type
REMARK                         _______ _______ _______ _____ _____    ______ ____
ROOT
ATOM      1  C   UNL     1       1.071  -1.446   0.300  0.00  0.00    +0.020 A 
ATOM      2  C   UNL     1       0.669  -2.433  -0.584  0.00  0.00    +0.122 A 
ATOM      3  C   UNL     1      -0.366  -2.199  -1.487  0.00  0.00    +0.046 A 
ATOM      4  C   UNL     1      -0.999  -0.989  -1.511  0.00  0.00    +0.019 A 
ATOM      5  C   UNL     1      -0.605   0.016  -0.627  0.00  0.00    +0.065 A 
ATOM      6  C   UNL     1       0.438  -0.210   0.288  0.00  0.00    +0.144 A 
ATOM      7  O   UNL     1       0.817   0.762   1.142  0.00  0.00    -0.450 OA
ATOM      8  C   UNL     1       0.246   1.968   1.179  0.00  0.00    +0.219 A 
ATOM      9  C   UNL     1      -0.771   2.322   0.351  0.00  0.00    +0.076 A 
ATOM     10  C   UNL     1      -1.265   1.335  -0.624  0.00  0.00    +0.201 A 
ATOM     11  O   UNL     1      -2.172   1.597  -1.395  0.00  0.00    -0.286 OA
ENDROOT
BRANCH   9  12
ATOM     12  C   UNL     1      -1.373   3.675   0.427  0.00  0.00    -0.011 A 
ATOM     13  C   UNL     1      -0.643   4.789   0.015  0.00  0.00    +0.010 A 
ATOM     14  C   UNL     1      -1.210   6.045   0.084  0.00  0.00    +0.020 A 
ATOM     15  C   UNL     1      -2.496   6.202   0.571  0.00  0.00    +0.041 A 
ATOM     16  C   UNL     1      -3.223   5.099   0.987  0.00  0.00    +0.020 A 
ATOM     17  C   UNL     1      -2.667   3.838   0.917  0.00  0.00    +0.010 A 
ATOM     18 CL   UNL     1      -3.200   7.786   0.660  0.00  0.00    -0.084 Cl
ENDBRANCH   9  12
BRANCH   8  19
ATOM     19  C   UNL     1       0.752   2.978   2.176  0.00  0.00    +0.451 C 
ATOM     20  F   UNL     1      -0.326   3.498   2.902  0.00  0.00    -0.163 F 
ATOM     21  F   UNL     1       1.649   2.359   3.053  0.00  0.00    -0.163 F 
ATOM     22  F   UNL     1       1.402   4.016   1.500  0.00  0.00    -0.163 F 
ENDBRANCH   8  19
BRANCH   2  23
ATOM     23  O   UNL     1       1.289  -3.641  -0.571  0.00  0.00    -0.506 OA
ATOM     24  H   UNL     1       0.914  -4.269   0.062  0.00  0.00    +0.292 HD
ENDBRANCH   2  23
BRANCH   1  25
ATOM     25  C   UNL     1       2.192  -1.712   1.271  0.00  0.00    -0.035 C 
BRANCH  25  26
ATOM     26  N   UNL     1       1.638  -1.727   2.641  0.00  0.00    +0.384 N 
ATOM     27  H   UNL     1       0.967  -0.956   2.738  0.00  0.00    -0.081 HD
BRANCH  26  28
ATOM     28  C   UNL     1       2.724  -1.545   3.627  0.00  0.00    -0.068 C 
ATOM     29  C   UNL     1       3.627  -2.780   3.663  0.00  0.00    -0.015 C 
ATOM     30  C   UNL     1       4.739  -2.568   4.693  0.00  0.00    -0.002 C 
ATOM     31  C   UNL     1       4.120  -2.349   6.074  0.00  0.00    -0.000 C 
ATOM     32  C   UNL     1       3.216  -1.115   6.038  0.00  0.00    -0.002 C 
ATOM     33  C   UNL     1       2.104  -1.326   5.009  0.00  0.00    -0.015 C 
ENDBRANCH  26  28
BRANCH  26  35
ATOM     34  C   UNL     1      -0.457  -2.928   2.268  0.00  0.00    -0.017 C 
ATOM     35  C   UNL     1       0.939  -3.005   2.890  0.00  0.00    -0.081 C 
ENDBRANCH  26  35
ENDBRANCH  25  26
ENDBRANCH   1  25
TORSDOF 7
