REMARK  Name = ZINC03037355
REMARK  5 active torsions:
REMARK  status: ('A' for Active; 'I' for Inactive)
REMARK    1  A    between atoms: C_1  and  C_2
REMARK    2  A    between atoms: C_2  and  C_3
REMARK    3  A    between atoms: C_6  and  N_9
REMARK    4  A    between atoms: C_19  and  C_20
REMARK    5  A    between atoms: C_19  and  O_32
REMARK                            x       y       z     vdW  Elec       q    Type
REMARK                         _______ _______ _______ _____ _____    ______ ____
ROOT
ATOM      1  N   UNL     1       2.495   6.221   1.935  0.00  0.00    -0.214 N 
ATOM      2  C   UNL     1       2.427   5.907   3.241  0.00  0.00    +0.314 C 
ATOM      3  O   UNL     1       3.463   5.688   3.840  0.00  0.00    -0.252 OA
ATOM      4  N   UNL     1       1.272   5.824   3.914  0.00  0.00    -0.269 N 
ATOM      5  C   UNL     1       0.030   6.056   3.321  0.00  0.00    +0.043 A 
ATOM      6  C   UNL     1      -1.139   5.958   4.062  0.00  0.00    +0.024 A 
ATOM      7  C   UNL     1      -2.359   6.191   3.457  0.00  0.00    +0.002 A 
ATOM      8  C   UNL     1      -2.421   6.523   2.116  0.00  0.00    +0.001 A 
ATOM      9  C   UNL     1      -1.257   6.623   1.372  0.00  0.00    +0.010 A 
ATOM     10  C   UNL     1      -0.042   6.391   1.973  0.00  0.00    +0.033 A 
ATOM     11  C   UNL     1       1.251   6.489   1.195  0.00  0.00    +0.247 C 
ATOM     12  H   UNL     1       1.275   5.563   4.982  0.00  0.00    +0.156 HD
ENDROOT
BRANCH  11  13
ATOM     13  C   UNL     1       1.176   5.520   0.044  0.00  0.00    +0.272 C 
ATOM     14  O   UNL     1       1.262   5.924  -1.096  0.00  0.00    -0.270 OA
ATOM     15  N   UNL     1       1.013   4.203   0.282  0.00  0.00    -0.297 N 
ATOM     16  C   UNL     1       0.938   3.245  -0.830  0.00  0.00    +0.113 C 
ATOM     17  C   UNL     1       1.981   2.146  -0.605  0.00  0.00    +0.084 C 
ATOM     18  C   UNL     1       1.773   1.526   0.779  0.00  0.00    +0.173 C 
ATOM     19  C   UNL     1       1.950   2.594   1.860  0.00  0.00    +0.084 C 
ATOM     20  C   UNL     1       0.907   3.698   1.657  0.00  0.00    +0.113 C 
ATOM     21  O   UNL     1       0.456   0.968   0.863  0.00  0.00    -0.346 OA
ATOM     22  C   UNL     1       0.605  -0.446   1.106  0.00  0.00    +0.191 C 
ATOM     23  C   UNL     1       2.042  -0.737   0.608  0.00  0.00    +0.191 C 
ATOM     24  O   UNL     1       2.735   0.478   0.981  0.00  0.00    -0.346 OA
ENDBRANCH  11  13
BRANCH   1  28
ATOM     25  C   UNL     1       6.183   6.431   0.007  0.00  0.00    -0.048 A 
ATOM     26  C   UNL     1       5.425   7.576   0.174  0.00  0.00    +0.005 A 
ATOM     27  C   UNL     1       4.202   7.510   0.812  0.00  0.00    +0.024 A 
ATOM     28  C   UNL     1       3.734   6.292   1.288  0.00  0.00    +0.041 A 
ATOM     29  C   UNL     1       4.500   5.145   1.123  0.00  0.00    +0.024 A 
ATOM     30  C   UNL     1       5.719   5.217   0.478  0.00  0.00    +0.005 A 
BRANCH  25  32
ATOM     31  C   UNL     1       8.616   6.778   0.338  0.00  0.00    +0.009 C 
ATOM     32  C   UNL     1       7.516   6.508  -0.691  0.00  0.00    +0.032 C 
ENDBRANCH  25  32
ENDBRANCH   1  28
BRANCH  11  33
ATOM     33  O   UNL     1       1.338   7.808   0.651  0.00  0.00    -0.360 OA
ATOM     34  H   UNL     1       0.506   8.213   0.056  0.00  0.00    +0.213 HD
ENDBRANCH  11  33
TORSDOF 4
