REMARK  Name = ZINC19770191
REMARK  12 active torsions:
REMARK  status: ('A' for Active; 'I' for Inactive)
REMARK    1  A    between atoms: C_1  and  C_2
REMARK    2  A    between atoms: C_3  and  C_32
REMARK    3  A    between atoms: C_4  and  C_22
REMARK    4  A    between atoms: C_10  and  C_15
REMARK    5  A    between atoms: C_26  and  O_30
REMARK    6  A    between atoms: C_27  and  O_28
REMARK    7  A    between atoms: O_28  and  C_29
REMARK    8  A    between atoms: O_30  and  C_31
REMARK    9  A    between atoms: C_32  and  O_34
REMARK   10  A    between atoms: O_34  and  C_35
REMARK   11  A    between atoms: C_35  and  C_36
REMARK   12  A    between atoms: C_35  and  C_37
REMARK                            x       y       z     vdW  Elec       q    Type
REMARK                         _______ _______ _______ _____ _____    ______ ____
ROOT
ATOM      1  C   UNL     1       5.547  -1.100  -3.380  0.00  0.00    +0.061 C 
ATOM      2  C   UNL     1       4.595  -0.685  -2.288  0.00  0.00    +0.016 C 
ATOM      3  C   UNL     1       4.863   0.403  -1.546  0.00  0.00    +0.065 C 
ATOM      4  C   UNL     1       3.942   0.840  -0.444  0.00  0.00    +0.096 C 
ATOM      5  C   UNL     1       2.582   0.207  -0.592  0.00  0.00    +0.024 C 
ATOM      6  C   UNL     1       2.407  -0.876  -1.378  0.00  0.00    +0.016 C 
ATOM      7  N   UNL     1       3.464  -1.418  -2.059  0.00  0.00    -0.321 N 
ATOM      8  C   UNL     1       1.048  -1.514  -1.532  0.00  0.00    +0.059 C 
ATOM      9  C   UNL     1       0.243  -1.322  -0.245  0.00  0.00    +0.032 C 
ATOM     10  C   UNL     1       0.125   0.180   0.035  0.00  0.00    +0.088 C 
ATOM     11  C   UNL     1       1.505   0.773   0.113  0.00  0.00    +0.162 C 
ATOM     12  O   UNL     1       1.693   1.759   0.798  0.00  0.00    -0.292 OA
ATOM     13  H   UNL     1       3.397  -2.454  -2.423  0.00  0.00    +0.152 HD
ENDROOT
BRANCH   9  14
ATOM     14  C   UNL     1      -1.132  -1.915  -0.415  0.00  0.00    -0.043 A 
ATOM     15  C   UNL     1      -1.966  -1.451  -1.415  0.00  0.00    +0.005 A 
ATOM     16  C   UNL     1      -3.225  -1.998  -1.576  0.00  0.00    +0.020 A 
ATOM     17  C   UNL     1      -3.655  -3.003  -0.727  0.00  0.00    +0.041 A 
ATOM     18  C   UNL     1      -2.823  -3.463   0.277  0.00  0.00    +0.020 A 
ATOM     19  C   UNL     1      -1.562  -2.919   0.433  0.00  0.00    +0.005 A 
ATOM     20 CL   UNL     1      -5.239  -3.685  -0.923  0.00  0.00    -0.084 Cl
ENDBRANCH   9  14
BRANCH   4  21
ATOM     21  C   UNL     1       4.533   0.438   0.883  0.00  0.00    +0.010 A 
ATOM     22  C   UNL     1       4.538  -0.892   1.263  0.00  0.00    +0.008 A 
ATOM     23  C   UNL     1       5.079  -1.264   2.479  0.00  0.00    +0.004 A 
ATOM     24  C   UNL     1       5.619  -0.309   3.321  0.00  0.00    +0.049 A 
ATOM     25  C   UNL     1       5.617   1.025   2.946  0.00  0.00    +0.162 A 
ATOM     26  C   UNL     1       5.077   1.399   1.719  0.00  0.00    +0.166 A 
BRANCH  26  27
ATOM     27  O   UNL     1       5.078   2.706   1.344  0.00  0.00    -0.491 OA
ATOM     28  C   UNL     1       4.009   3.521   1.829  0.00  0.00    +0.277 C 
ENDBRANCH  26  27
BRANCH  25  29
ATOM     29  O   UNL     1       6.148   1.966   3.772  0.00  0.00    -0.491 OA
ATOM     30  C   UNL     1       6.691   1.508   5.012  0.00  0.00    +0.277 C 
ENDBRANCH  25  29
ENDBRANCH   4  21
BRANCH   3  31
ATOM     31  C   UNL     1       6.035   1.150  -1.808  0.00  0.00    +0.338 C 
ATOM     32  O   UNL     1       5.972   2.168  -2.470  0.00  0.00    -0.245 OA
BRANCH  31  33
ATOM     33  O   UNL     1       7.223   0.732  -1.323  0.00  0.00    -0.459 OA
BRANCH  33  34
ATOM     34  C   UNL     1       8.366   1.535  -1.626  0.00  0.00    +0.171 C 
ATOM     35  C   UNL     1       9.389   1.414  -0.495  0.00  0.00    +0.052 C 
ATOM     36  C   UNL     1       8.994   1.054  -2.936  0.00  0.00    +0.052 C 
ENDBRANCH  33  34
ENDBRANCH  31  33
ENDBRANCH   3  31
TORSDOF 7
