REMARK  Name = ZINC43743284
REMARK  10 active torsions:
REMARK  status: ('A' for Active; 'I' for Inactive)
REMARK    1  A    between atoms: C_1  and  C_2
REMARK    2  A    between atoms: C_13  and  C_14
REMARK    3  A    between atoms: C_13  and  O_15
REMARK    4  A    between atoms: N_21  and  O_22
REMARK    5  A    between atoms: O_22  and  C_23
REMARK    6  A    between atoms: C_23  and  C_24
REMARK    7  A    between atoms: N_26  and  C_27
REMARK    8  A    between atoms: C_27  and  C_28
REMARK    9  A    between atoms: C_28  and  C_29
REMARK   10  A    between atoms: C_41  and  C_42
REMARK                            x       y       z     vdW  Elec       q    Type
REMARK                         _______ _______ _______ _____ _____    ______ ____
ROOT
ATOM      1  C   UNL     1      -0.019   1.547   0.011  0.00  0.00    +0.014 C 
ATOM      2  C   UNL     1       0.002  -0.004   0.002  0.00  0.00    -0.000 C 
ATOM      3  C   UNL     1       0.675  -0.401  -1.285  0.00  0.00    +0.010 C 
ATOM      4  C   UNL     1       1.248  -1.811  -1.306  0.00  0.00    +0.005 C 
ATOM      5  C   UNL     1       2.165  -2.001  -0.097  0.00  0.00    +0.006 C 
ATOM      6  C   UNL     1       1.329  -1.843   1.167  0.00  0.00    -0.003 C 
ATOM      7  C   UNL     1       0.757  -0.431   1.269  0.00  0.00    +0.001 C 
ATOM      8  C   UNL     1      -0.353  -0.469   2.357  0.00  0.00    +0.007 C 
ATOM      9  C   UNL     1      -1.592  -0.989   1.599  0.00  0.00    +0.035 C 
ATOM     10  C   UNL     1      -1.450  -0.452   0.158  0.00  0.00    +0.069 C 
ATOM     11  C   UNL     1      -1.858  -1.531  -0.840  0.00  0.00    +0.042 C 
ATOM     12  C   UNL     1       2.249  -2.090   2.373  0.00  0.00    +0.008 C 
ATOM     13  C   UNL     1       2.530  -3.587   2.453  0.00  0.00    +0.032 C 
ATOM     14  C   UNL     1       2.841  -4.148   1.087  0.00  0.00    -0.058 C 
ATOM     15  C   UNL     1       3.122  -5.459   1.045  0.00  0.00    +0.031 C 
ATOM     16  C   UNL     1       3.382  -6.106  -0.263  0.00  0.00    +0.102 C 
ATOM     17  N   UNL     1       3.970  -7.280  -0.344  0.00  0.00    -0.085 NA
ATOM     18  C   UNL     1       2.923  -5.393  -1.483  0.00  0.00    +0.027 C 
ATOM     19  C   UNL     1       2.666  -4.085  -1.413  0.00  0.00    -0.014 C 
ATOM     20  C   UNL     1       2.890  -3.323  -0.147  0.00  0.00    +0.011 C 
ATOM     21  C   UNL     1       4.369  -2.904  -0.244  0.00  0.00    +0.020 C 
ENDROOT
BRANCH  10  22
ATOM     22  O   UNL     1      -2.315   0.685  -0.000  0.00  0.00    -0.388 OA
ATOM     23  H   UNL     1      -3.256   0.478   0.086  0.00  0.00    +0.210 HD
ENDBRANCH  10  22
BRANCH  17  24
ATOM     24  O   UNL     1       4.203  -7.870  -1.610  0.00  0.00    -0.384 OA
BRANCH  24  25
ATOM     25  C   UNL     1       4.848  -9.143  -1.548  0.00  0.00    +0.358 C 
BRANCH  25  26
ATOM     26  C   UNL     1       5.046  -9.675  -2.945  0.00  0.00    +0.253 C 
ATOM     27  O   UNL     1       4.671  -9.027  -3.899  0.00  0.00    -0.272 OA
ATOM     28  N   UNL     1       5.639 -10.870  -3.133  0.00  0.00    -0.312 N 
ATOM     29  H   UNL     1       5.938 -11.389  -2.370  0.00  0.00    +0.149 HD
BRANCH  28  30
ATOM     30  C   UNL     1       5.831 -11.387  -4.491  0.00  0.00    +0.109 C 
BRANCH  30  31
ATOM     31  C   UNL     1       6.521 -12.751  -4.425  0.00  0.00    +0.056 C 
BRANCH  31  32
ATOM     32  C   UNL     1       6.719 -13.282  -5.821  0.00  0.00    -0.021 A 
ATOM     33  C   UNL     1       5.902 -14.119  -6.480  0.00  0.00    +0.087 A 
ATOM     34  N   UNL     1       6.407 -14.381  -7.724  0.00  0.00    -0.360 N 
ATOM     35  H   UNL     1       5.993 -14.959  -8.383  0.00  0.00    +0.165 HD
ATOM     36  C   UNL     1       7.591 -13.701  -7.901  0.00  0.00    +0.047 A 
ATOM     37  C   UNL     1       7.835 -12.977  -6.719  0.00  0.00    +0.003 A 
ATOM     38  C   UNL     1       8.977 -12.182  -6.613  0.00  0.00    +0.010 A 
ATOM     39  C   UNL     1       9.852 -12.106  -7.660  0.00  0.00    +0.001 A 
ATOM     40  C   UNL     1       9.613 -12.814  -8.830  0.00  0.00    +0.002 A 
ATOM     41  C   UNL     1       8.497 -13.613  -8.953  0.00  0.00    +0.026 A 
ENDBRANCH  31  32
ENDBRANCH  30  31
ENDBRANCH  28  30
ENDBRANCH  25  26
ENDBRANCH  24  25
ENDBRANCH  17  24
TORSDOF 7
