REMARK  Name = ZINC00703140
REMARK  8 active torsions:
REMARK  status: ('A' for Active; 'I' for Inactive)
REMARK    1  A    between atoms: C_1  and  C_2
REMARK    2  A    between atoms: C_2  and  O_3
REMARK    3  A    between atoms: O_3  and  C_4
REMARK    4  A    between atoms: C_14  and  C_32
REMARK    5  A    between atoms: C_16  and  C_21
REMARK    6  A    between atoms: C_17  and  O_20
REMARK    7  A    between atoms: C_21  and  C_23
REMARK    8  A    between atoms: C_35  and  O_38
REMARK                            x       y       z     vdW  Elec       q    Type
REMARK                         _______ _______ _______ _____ _____    ______ ____
ROOT
ATOM      1  C   UNL     1       1.305   6.388  -0.225  0.00  0.00    +0.122 A 
ATOM      2  C   UNL     1       2.526   5.783   0.058  0.00  0.00    +0.048 A 
ATOM      3  C   UNL     1       2.643   4.433   0.169  0.00  0.00    +0.032 A 
ATOM      4  C   UNL     1       1.521   3.589  -0.001  0.00  0.00    +0.081 A 
ATOM      5  C   UNL     1       0.294   4.231  -0.287  0.00  0.00    +0.044 A 
ATOM      6  C   UNL     1       0.180   5.594  -0.398  0.00  0.00    +0.063 A 
ATOM      7  S   UNL     1      -0.826   2.859  -0.430  0.00  0.00    -0.052 S 
ATOM      8  C   UNL     1       0.361   1.564  -0.102  0.00  0.00    +0.169 A 
ATOM      9  N   UNL     1       1.472   2.241   0.076  0.00  0.00    -0.224 NA
ATOM     10  N   UNL     1       0.162   0.195  -0.054  0.00  0.00    -0.232 N 
ATOM     11  C   UNL     1       1.188  -0.818   0.216  0.00  0.00    +0.152 C 
ATOM     12  C   UNL     1       0.484  -2.154   0.162  0.00  0.00    +0.075 C 
ATOM     13  C   UNL     1      -0.816  -1.899  -0.114  0.00  0.00    +0.189 C 
ATOM     14  C   UNL     1      -1.009  -0.441  -0.241  0.00  0.00    +0.288 C 
ATOM     15  O   UNL     1      -2.068   0.104  -0.482  0.00  0.00    -0.266 OA
ENDROOT
BRANCH  11  16
ATOM     16  C   UNL     1       1.784  -0.601   1.584  0.00  0.00    -0.022 A 
ATOM     17  C   UNL     1       0.958  -0.350   2.664  0.00  0.00    +0.009 A 
ATOM     18  C   UNL     1       1.501  -0.156   3.919  0.00  0.00    +0.046 A 
ATOM     19  C   UNL     1       2.877  -0.203   4.093  0.00  0.00    +0.117 A 
ATOM     20  C   UNL     1       3.703  -0.450   3.007  0.00  0.00    +0.046 A 
ATOM     21  C   UNL     1       3.155  -0.648   1.754  0.00  0.00    +0.009 A 
BRANCH  19  22
ATOM     22  O   UNL     1       3.414  -0.008   5.326  0.00  0.00    -0.507 OA
ATOM     23  H   UNL     1       3.619   0.916   5.524  0.00  0.00    +0.292 HD
ENDBRANCH  19  22
ENDBRANCH  11  16
BRANCH  13  24
ATOM     24  O   UNL     1      -1.787  -2.833  -0.247  0.00  0.00    -0.502 OA
ATOM     25  H   UNL     1      -2.657  -2.382  -0.450  0.00  0.00    +0.292 HD
ENDBRANCH  13  24
BRANCH  12  26
ATOM     26  C   UNL     1       1.093  -3.473   0.368  0.00  0.00    +0.230 C 
ATOM     27  O   UNL     1       0.769  -4.149   1.328  0.00  0.00    -0.284 OA
BRANCH  26  28
ATOM     28  C   UNL     1       2.092  -3.978  -0.583  0.00  0.00    +0.176 A 
ATOM     29  C   UNL     1       2.654  -5.216  -0.545  0.00  0.00    +0.061 A 
ATOM     30  C   UNL     1       3.581  -5.275  -1.674  0.00  0.00    +0.021 A 
ATOM     31  C   UNL     1       4.446  -6.252  -2.175  0.00  0.00    +0.011 A 
ATOM     32  C   UNL     1       5.199  -5.985  -3.282  0.00  0.00    +0.001 A 
ATOM     33  C   UNL     1       5.111  -4.751  -3.913  0.00  0.00    +0.004 A 
ATOM     34  C   UNL     1       4.264  -3.774  -3.435  0.00  0.00    +0.047 A 
ATOM     35  C   UNL     1       3.487  -4.022  -2.309  0.00  0.00    +0.136 A 
ATOM     36  O   UNL     1       2.587  -3.285  -1.630  0.00  0.00    -0.452 OA
ENDBRANCH  26  28
ENDBRANCH  12  26
BRANCH   1  37
ATOM     37  O   UNL     1       1.215   7.740  -0.331  0.00  0.00    -0.492 OA
BRANCH  37  39
ATOM     38  C   UNL     1       2.123   9.980  -0.296  0.00  0.00    +0.048 C 
ATOM     39  C   UNL     1       2.419   8.487  -0.140  0.00  0.00    +0.225 C 
ENDBRANCH  37  39
ENDBRANCH   1  37
TORSDOF 7
