REMARK  Name = ZINC08831579
REMARK  11 active torsions:
REMARK  status: ('A' for Active; 'I' for Inactive)
REMARK    1  A    between atoms: C_1  and  C_2
REMARK    2  A    between atoms: C_3  and  C_11
REMARK    3  A    between atoms: C_7  and  N_8
REMARK    4  A    between atoms: N_13  and  C_14
REMARK    5  A    between atoms: C_14  and  N_16
REMARK    6  A    between atoms: N_16  and  C_17
REMARK    7  A    between atoms: C_18  and  C_31
REMARK    8  A    between atoms: C_23  and  C_27
REMARK    9  A    between atoms: C_27  and  C_28
REMARK   10  A    between atoms: C_27  and  C_29
REMARK   11  A    between atoms: C_27  and  C_30
REMARK                            x       y       z     vdW  Elec       q    Type
REMARK                         _______ _______ _______ _____ _____    ______ ____
ROOT
ATOM      1  N   UNL     1      -1.900  -0.321  -0.288  0.00  0.00    -0.290 N 
ATOM      2  H   UNL     1      -2.674   0.264  -0.289  0.00  0.00    +0.154 HD
ENDROOT
BRANCH   1   3
ATOM      3  C   UNL     1      -2.072  -1.696  -0.349  0.00  0.00    +0.089 A 
ATOM      4  C   UNL     1      -3.257  -2.415  -0.409  0.00  0.00    +0.084 A 
ATOM      5  C   UNL     1      -3.162  -3.864  -0.470  0.00  0.00    -0.018 A 
ATOM      6  C   UNL     1      -1.905  -4.359  -0.450  0.00  0.00    -0.004 A 
ATOM      7  S   UNL     1      -0.859  -2.933  -0.359  0.00  0.00    -0.077 S 
ATOM      8  C   UNL     1      -1.501  -5.800  -0.496  0.00  0.00    +0.047 C 
ATOM      9  C   UNL     1      -2.713  -6.628  -0.947  0.00  0.00    -0.000 C 
ATOM     10  C   UNL     1      -3.936  -6.197  -0.130  0.00  0.00    +0.009 C 
ATOM     11  C   UNL     1      -4.369  -4.790  -0.545  0.00  0.00    +0.037 C 
BRANCH   9  12
ATOM     12  C   UNL     1      -2.436  -8.114  -0.711  0.00  0.00    -0.035 C 
ATOM     13  C   UNL     1      -2.182  -8.355   0.779  0.00  0.00    +0.011 C 
ATOM     14  C   UNL     1      -3.646  -8.936  -1.161  0.00  0.00    +0.011 C 
ATOM     15  C   UNL     1      -1.205  -8.537  -1.514  0.00  0.00    +0.011 C 
ENDBRANCH   9  12
BRANCH   4  16
ATOM     16  C   UNL     1      -4.527  -1.754  -0.416  0.00  0.00    +0.102 C 
ATOM     17  N   UNL     1      -5.534  -1.229  -0.422  0.00  0.00    -0.191 NA
ENDBRANCH   4  16
ENDBRANCH   1   3
BRANCH   1  18
ATOM     18  C   UNL     1      -0.659   0.201  -0.228  0.00  0.00    +0.141 C 
ATOM     19  S   UNL     1       0.705  -0.833  -0.226  0.00  0.00    -0.018 S 
BRANCH  18  22
ATOM     20  C   UNL     1       0.749   2.059  -0.108  0.00  0.00    +0.250 C 
ATOM     21  O   UNL     1       1.717   1.325  -0.107  0.00  0.00    -0.270 OA
ATOM     22  N   UNL     1      -0.492   1.537  -0.169  0.00  0.00    -0.264 N 
ATOM     23  H   UNL     1      -1.266   2.123  -0.173  0.00  0.00    +0.157 HD
BRANCH  20  26
ATOM     24  C   UNL     1       3.397   3.154   0.290  0.00  0.00    +0.047 C 
ATOM     25  C   UNL     1       2.205   4.064   0.149  0.00  0.00    -0.008 A 
ATOM     26  C   UNL     1       0.931   3.524  -0.043  0.00  0.00    +0.042 A 
ATOM     27  C   UNL     1      -0.167   4.374  -0.180  0.00  0.00    +0.013 A 
ATOM     28  C   UNL     1       0.010   5.741  -0.112  0.00  0.00    +0.003 A 
ATOM     29  C   UNL     1       1.274   6.269   0.078  0.00  0.00    +0.033 A 
ATOM     30  C   UNL     1       2.368   5.432   0.208  0.00  0.00    +0.130 A 
BRANCH  30  31
ATOM     31  N   UNL     1       3.717   6.006   0.412  0.00  0.00    +0.057 N 
ATOM     32  O   UNL     1       3.849   7.204   0.590  0.00  0.00    -0.126 OA
ATOM     33  O   UNL     1       4.696   5.281   0.402  0.00  0.00    -0.126 OA
ENDBRANCH  30  31
ENDBRANCH  20  26
ENDBRANCH  18  22
ENDBRANCH   1  18
TORSDOF 7
