REMARK  Name = ZINC20912434
REMARK  8 active torsions:
REMARK  status: ('A' for Active; 'I' for Inactive)
REMARK    1  A    between atoms: C_1  and  C_2
REMARK    2  A    between atoms: C_4  and  C_9
REMARK    3  A    between atoms: C_9  and  C_11
REMARK    4  A    between atoms: C_11  and  S_12
REMARK    5  A    between atoms: S_12  and  C_13
REMARK    6  A    between atoms: N_17  and  N_18
REMARK    7  A    between atoms: N_19  and  N_20
REMARK    8  A    between atoms: C_21  and  C_22
REMARK                            x       y       z     vdW  Elec       q    Type
REMARK                         _______ _______ _______ _____ _____    ______ ____
ROOT
ATOM      1  C   UNL     1      -0.262   1.773  -2.288  0.00  0.00    +0.210 A 
ATOM      2  N   UNL     1      -1.264   2.201  -3.019  0.00  0.00    -0.119 NA
ATOM      3  N   UNL     1      -2.417   2.187  -2.224  0.00  0.00    -0.109 NA
ATOM      4  C   UNL     1      -2.084   1.746  -1.036  0.00  0.00    +0.254 A 
ATOM      5  N   UNL     1      -0.744   1.475  -1.046  0.00  0.00    -0.211 N 
ATOM      6  N   UNL     1      -2.941   1.581   0.043  0.00  0.00    -0.204 N 
ATOM      7  H   UNL     1      -2.554   1.201   1.000  0.00  0.00    +0.177 HD
ENDROOT
BRANCH   5   8
ATOM      8  N   UNL     1      -0.013   0.996   0.005  0.00  0.00    -0.294 N 
ATOM      9  H   UNL     1      -0.504   0.788   0.967  0.00  0.00    +0.163 HD
ATOM     10  H   UNL     1       1.066   0.817  -0.112  0.00  0.00    +0.163 HD
ENDBRANCH   5   8
BRANCH   6  11
ATOM     11  N   UNL     1      -4.299   1.900  -0.087  0.00  0.00    -0.187 NA
ATOM     12  C   UNL     1      -5.102   1.746   0.924  0.00  0.00    +0.139 C 
BRANCH  12  13
ATOM     13  C   UNL     1      -6.528   2.079   0.788  0.00  0.00    +0.002 A 
ATOM     14  C   UNL     1      -7.420   1.817   1.821  0.00  0.00    +0.010 A 
ATOM     15  C   UNL     1      -8.764   2.140   1.692  0.00  0.00    +0.001 A 
ATOM     16  C   UNL     1      -9.261   2.708   0.559  0.00  0.00    +0.008 A 
ATOM     17  C   UNL     1      -8.418   2.995  -0.528  0.00  0.00    -0.017 A 
ATOM     18  C   UNL     1      -7.038   2.689  -0.439  0.00  0.00    -0.009 A 
ATOM     19  C   UNL     1      -6.194   2.975  -1.519  0.00  0.00    +0.009 A 
ATOM     20  C   UNL     1      -6.711   3.545  -2.645  0.00  0.00    +0.001 A 
ATOM     21  C   UNL     1      -8.068   3.846  -2.736  0.00  0.00    +0.001 A 
ATOM     22  C   UNL     1      -8.916   3.582  -1.704  0.00  0.00    +0.008 A 
ENDBRANCH  12  13
ENDBRANCH   6  11
BRANCH   1  23
ATOM     23  S   UNL     1       1.410   1.608  -2.818  0.00  0.00    -0.076 S 
BRANCH  23  24
ATOM     24  C   UNL     1       1.257   2.181  -4.528  0.00  0.00    +0.157 C 
BRANCH  24  25
ATOM     25  C   UNL     1       2.605   2.126  -5.199  0.00  0.00    +0.173 C 
ATOM     26  O   UNL     1       3.574   1.737  -4.583  0.00  0.00    -0.291 OA
BRANCH  25  30
ATOM     27  C   UNL     1       5.463   2.833  -9.222  0.00  0.00    +0.045 C 
ATOM     28  C   UNL     1       4.118   2.886  -8.545  0.00  0.00    -0.036 A 
ATOM     29  C   UNL     1       3.994   2.493  -7.230  0.00  0.00    +0.015 A 
ATOM     30  C   UNL     1       2.745   2.543  -6.603  0.00  0.00    +0.019 A 
ATOM     31  C   UNL     1       1.628   2.987  -7.319  0.00  0.00    +0.012 A 
ATOM     32  C   UNL     1       1.768   3.383  -8.632  0.00  0.00    +0.016 A 
ATOM     33  C   UNL     1       3.009   3.330  -9.246  0.00  0.00    +0.021 A 
ATOM     34 BR   UNL     1       3.189   3.867 -11.050  0.00  0.00    -0.050 Br
ENDBRANCH  25  30
ENDBRANCH  24  25
ENDBRANCH  23  24
ENDBRANCH   1  23
TORSDOF 7
