REMARK  Name = ZINC12455724
REMARK  7 active torsions:
REMARK  status: ('A' for Active; 'I' for Inactive)
REMARK    1  A    between atoms: C_4  and  N_7
REMARK    2  A    between atoms: C_10  and  C_12
REMARK    3  A    between atoms: C_12  and  N_54
REMARK    4  A    between atoms: C_13  and  C_14
REMARK    5  A    between atoms: C_13  and  N_54
REMARK    6  A    between atoms: N_22  and  C_25
REMARK    7  A    between atoms: C_25  and  C_26
REMARK                            x       y       z     vdW  Elec       q    Type
REMARK                         _______ _______ _______ _____ _____    ______ ____
ROOT
ATOM      1  C   UNL     1       0.826  -1.624  -0.390  0.00  0.00    +0.001 A 
ATOM      2  C   UNL     1      -0.144  -2.059  -1.232  0.00  0.00    +0.017 A 
ATOM      3  C   UNL     1      -0.165  -3.475  -1.602  0.00  0.00    -0.001 A 
ATOM      4  C   UNL     1      -1.141  -3.982  -2.467  0.00  0.00    +0.013 A 
ATOM      5  C   UNL     1      -1.135  -5.307  -2.794  0.00  0.00    +0.039 A 
ATOM      6  C   UNL     1      -0.166  -6.159  -2.274  0.00  0.00    +0.125 A 
ATOM      7  C   UNL     1       0.805  -5.680  -1.418  0.00  0.00    +0.064 A 
ATOM      8  C   UNL     1       0.817  -4.333  -1.073  0.00  0.00    +0.055 A 
ATOM      9  N   UNL     1       1.777  -3.828  -0.221  0.00  0.00    -0.303 N 
ATOM     10  C   UNL     1       1.791  -2.524   0.108  0.00  0.00    +0.253 A 
ATOM     11  O   UNL     1       2.657  -2.111   0.860  0.00  0.00    -0.267 OA
ATOM     12  F   UNL     1      -0.177  -7.468  -2.608  0.00  0.00    -0.205 F 
ENDROOT
BRANCH   1  13
ATOM     13  C   UNL     1       0.877  -0.172   0.010  0.00  0.00    -0.041 C 
BRANCH  13  14
ATOM     14  N   UNL     1       0.170   0.001   1.293  0.00  0.00    +0.386 N 
ATOM     15  H   UNL     1      -0.807  -0.297   1.184  0.00  0.00    -0.085 HD
ATOM     16  H   UNL     1       0.625  -0.575   2.011  0.00  0.00    -0.085 HD
BRANCH  14  17
ATOM     17  C   UNL     1       0.204   1.415   1.710  0.00  0.00    -0.022 C 
BRANCH  17  21
ATOM     18  N   UNL     1      -2.058   1.809   4.455  0.00  0.00    -0.150 N 
ATOM     19  N   UNL     1      -0.970   1.712   5.134  0.00  0.00    -0.155 NA
ATOM     20  C   UNL     1       0.035   1.554   4.301  0.00  0.00    +0.158 A 
ATOM     21  C   UNL     1      -0.525   1.562   3.021  0.00  0.00    +0.066 A 
ATOM     22  N   UNL     1      -1.817   1.728   3.194  0.00  0.00    -0.154 NA
BRANCH  18  26
ATOM     23  C   UNL     1      -5.846   2.335   6.114  0.00  0.00    +0.000 A 
ATOM     24  C   UNL     1      -4.738   2.242   6.938  0.00  0.00    +0.002 A 
ATOM     25  C   UNL     1      -3.482   2.067   6.391  0.00  0.00    +0.029 A 
ATOM     26  C   UNL     1      -3.332   1.986   5.013  0.00  0.00    +0.086 A 
ATOM     27  C   UNL     1      -4.444   2.086   4.189  0.00  0.00    +0.029 A 
ATOM     28  C   UNL     1      -5.699   2.253   4.742  0.00  0.00    +0.002 A 
ENDBRANCH  18  26
ENDBRANCH  17  21
ENDBRANCH  14  17
ENDBRANCH  13  14
ENDBRANCH   1  13
BRANCH   9  29
ATOM     29  C   UNL     1       2.798  -4.723   0.329  0.00  0.00    +0.162 C 
BRANCH  29  30
ATOM     30  C   UNL     1       4.123  -4.436  -0.329  0.00  0.00    -0.009 A 
ATOM     31  C   UNL     1       5.043  -3.616   0.299  0.00  0.00    +0.007 A 
ATOM     32  C   UNL     1       6.259  -3.353  -0.304  0.00  0.00    +0.000 A 
ATOM     33  C   UNL     1       6.556  -3.910  -1.534  0.00  0.00    +0.001 A 
ATOM     34  C   UNL     1       5.638  -4.730  -2.162  0.00  0.00    +0.020 A 
ATOM     35  C   UNL     1       4.423  -4.998  -1.557  0.00  0.00    +0.046 A 
ATOM     36 CL   UNL     1       3.271  -6.034  -2.341  0.00  0.00    -0.083 Cl
ENDBRANCH  29  30
ENDBRANCH   9  29
TORSDOF 7
