REMARK  Name = ZINC04387149
REMARK  4 active torsions:
REMARK  status: ('A' for Active; 'I' for Inactive)
REMARK    1  A    between atoms: C_2  and  C_3
REMARK    2  A    between atoms: C_3  and  O_4
REMARK    3  A    between atoms: O_4  and  C_5
REMARK    4  A    between atoms: C_10  and  C_11
REMARK                            x       y       z     vdW  Elec       q    Type
REMARK                         _______ _______ _______ _____ _____    ______ ____
ROOT
ATOM      1  C   UNL     1       1.686  -1.891  -0.033  0.00  0.00    +0.097 C 
ATOM      2  C   UNL     1       0.482  -2.730   0.309  0.00  0.00    +0.069 A 
ATOM      3  C   UNL     1       0.668  -4.081   0.636  0.00  0.00    +0.259 A 
ATOM      4  O   UNL     1       1.787  -4.569   0.644  0.00  0.00    -0.267 OA
ATOM      5  N   UNL     1      -0.409  -4.834   0.941  0.00  0.00    -0.295 N 
ATOM      6  H   UNL     1      -0.293  -5.798   1.179  0.00  0.00    +0.172 HD
ATOM      7  C   UNL     1      -1.653  -4.281   0.925  0.00  0.00    +0.195 A 
ATOM      8  N   UNL     1      -1.834  -3.015   0.620  0.00  0.00    -0.201 NA
ATOM      9  C   UNL     1      -0.801  -2.216   0.314  0.00  0.00    +0.136 A 
ATOM     10  N   UNL     1      -1.055  -0.886   0.014  0.00  0.00    -0.298 N 
ATOM     11  C   UNL     1       0.002  -0.004   0.002  0.00  0.00    +0.048 C 
ATOM     12  C   UNL     1       1.305  -0.433  -0.016  0.00  0.00    +0.034 C 
ATOM     13  C   UNL     1       2.172   0.683  -0.017  0.00  0.00    +0.193 C 
ATOM     14  O   UNL     1       3.387   0.649  -0.029  0.00  0.00    -0.287 OA
ATOM     15  C   UNL     1       1.331   1.900  -0.000  0.00  0.00    +0.031 A 
ATOM     16  C   UNL     1      -0.018   1.463   0.010  0.00  0.00    +0.007 A 
ATOM     17  C   UNL     1      -1.062   2.374   0.030  0.00  0.00    +0.010 A 
ATOM     18  C   UNL     1      -0.720   3.729   0.030  0.00  0.00    +0.001 A 
ATOM     19  C   UNL     1       0.588   4.150   0.021  0.00  0.00    +0.001 A 
ATOM     20  C   UNL     1       1.654   3.243   0.005  0.00  0.00    +0.012 A 
ATOM     21  N   UNL     1      -2.736  -5.059   1.233  0.00  0.00    -0.329 N 
ATOM     22  H   UNL     1      -1.956  -0.584  -0.181  0.00  0.00    +0.154 HD
ATOM     23  H   UNL     1      -2.614  -5.994   1.460  0.00  0.00    +0.145 HD
ATOM     24  H   UNL     1      -3.627  -4.675   1.225  0.00  0.00    +0.145 HD
ENDROOT
BRANCH   1  30
ATOM     25  C   UNL     1       3.474  -2.749  -1.567  0.00  0.00    +0.125 A 
ATOM     26  C   UNL     1       3.930  -3.092  -2.832  0.00  0.00    +0.046 A 
ATOM     27  C   UNL     1       3.099  -2.949  -3.926  0.00  0.00    +0.004 A 
ATOM     28  C   UNL     1       1.815  -2.465  -3.762  0.00  0.00    +0.001 A 
ATOM     29  C   UNL     1       1.356  -2.128  -2.502  0.00  0.00    +0.008 A 
ATOM     30  C   UNL     1       2.185  -2.264  -1.405  0.00  0.00    +0.006 A 
BRANCH  25  31
ATOM     31  O   UNL     1       4.289  -2.888  -0.489  0.00  0.00    -0.488 OA
BRANCH  31  32
ATOM     32  C   UNL     1       5.604  -3.393  -0.730  0.00  0.00    +0.256 C 
BRANCH  32  34
ATOM     33  C   UNL     1       7.057  -4.548   0.856  0.00  0.00    +0.007 C 
ATOM     34  C   UNL     1       6.357  -3.478   0.572  0.00  0.00    +0.006 C 
ENDBRANCH  32  34
ENDBRANCH  31  32
ENDBRANCH  25  31
ENDBRANCH   1  30
TORSDOF 4
