REMARK  Name = ZINC14023577
REMARK  8 active torsions:
REMARK  status: ('A' for Active; 'I' for Inactive)
REMARK    1  A    between atoms: C_1  and  N_60
REMARK    2  A    between atoms: C_2  and  N_60
REMARK    3  A    between atoms: C_3  and  C_4
REMARK    4  A    between atoms: C_3  and  N_60
REMARK    5  A    between atoms: C_4  and  N_5
REMARK    6  A    between atoms: C_16  and  C_18
REMARK    7  A    between atoms: N_23  and  S_25
REMARK    8  A    between atoms: S_25  and  C_28
REMARK                            x       y       z     vdW  Elec       q    Type
REMARK                         _______ _______ _______ _____ _____    ______ ____
ROOT
ATOM      1  N   UNL     1      -2.607  -3.547   4.343  0.00  0.00    -0.252 N 
ATOM      2  C   UNL     1      -1.601  -4.497   4.284  0.00  0.00    +0.168 A 
ATOM      3  N   UNL     1      -0.460  -4.449   3.637  0.00  0.00    -0.221 NA
ATOM      4  C   UNL     1       0.436  -5.460   3.669  0.00  0.00    +0.115 A 
ATOM      5  C   UNL     1       1.693  -5.534   3.022  0.00  0.00    +0.150 A 
ATOM      6  C   UNL     1       2.488  -6.644   3.161  0.00  0.00    +0.040 A 
ATOM      7  C   UNL     1       2.093  -7.726   3.936  0.00  0.00    +0.004 A 
ATOM      8  C   UNL     1       0.871  -7.686   4.582  0.00  0.00    +0.017 A 
ATOM      9  C   UNL     1       0.069  -6.580   4.448  0.00  0.00    +0.044 A 
ATOM     10  S   UNL     1      -1.522  -6.097   5.077  0.00  0.00    -0.052 S 
ATOM     11  F   UNL     1       2.114  -4.502   2.258  0.00  0.00    -0.203 F 
ATOM     12  C   UNL     1      -2.536  -2.441   3.576  0.00  0.00    +0.226 C 
ATOM     13  O   UNL     1      -3.374  -1.571   3.687  0.00  0.00    -0.275 OA
ENDROOT
BRANCH  12  14
ATOM     14  C   UNL     1      -1.416  -2.286   2.580  0.00  0.00    +0.091 C 
ATOM     15  C   UNL     1      -0.156  -1.800   3.301  0.00  0.00    +0.015 C 
ATOM     16  C   UNL     1       0.992  -1.674   2.296  0.00  0.00    +0.018 C 
ATOM     17  C   UNL     1       0.619  -0.648   1.227  0.00  0.00    +0.109 C 
ATOM     18  N   UNL     1      -0.668  -1.026   0.629  0.00  0.00    -0.176 NA
ATOM     19  C   UNL     1      -1.817  -1.261   1.515  0.00  0.00    +0.122 C 
BRANCH  18  20
ATOM     20  S   UNL     1      -0.821  -1.190  -1.012  0.00  0.00    +0.061 S 
ATOM     21  O   UNL     1      -1.917  -2.066  -1.232  0.00  0.00    -0.153 OA
ATOM     22  O   UNL     1       0.481  -1.456  -1.516  0.00  0.00    -0.153 OA
BRANCH  20  23
ATOM     23  C   UNL     1      -1.296   0.382  -1.651  0.00  0.00    +0.106 A 
ATOM     24  C   UNL     1      -2.636   0.703  -1.770  0.00  0.00    +0.031 A 
ATOM     25  C   UNL     1      -3.010   1.937  -2.266  0.00  0.00    +0.040 A 
ATOM     26  C   UNL     1      -2.042   2.849  -2.654  0.00  0.00    +0.124 A 
ATOM     27  C   UNL     1      -0.701   2.525  -2.539  0.00  0.00    +0.040 A 
ATOM     28  C   UNL     1      -0.330   1.292  -2.037  0.00  0.00    +0.031 A 
ATOM     29  F   UNL     1      -2.407   4.054  -3.144  0.00  0.00    -0.205 F 
ENDBRANCH  20  23
ENDBRANCH  18  20
ENDBRANCH  12  14
BRANCH   1  30
ATOM     30  C   UNL     1      -3.749  -3.744   5.240  0.00  0.00    +0.097 C 
BRANCH  30  31
ATOM     31  C   UNL     1      -4.811  -4.589   4.536  0.00  0.00    -0.060 C 
BRANCH  31  34
ATOM     32  C   UNL     1      -7.130  -5.279   4.650  0.00  0.00    -0.097 C 
ATOM     33  C   UNL     1      -5.723  -5.430   6.615  0.00  0.00    -0.097 C 
ATOM     34  N   UNL     1      -6.015  -4.653   5.392  0.00  0.00    +0.377 N 
ATOM     35  H   UNL     1      -6.285  -3.700   5.659  0.00  0.00    -0.083 HD
ENDBRANCH  31  34
ENDBRANCH  30  31
ENDBRANCH   1  30
TORSDOF 6
