REMARK  Name = ZINC02291307
REMARK  2 active torsions:
REMARK  status: ('A' for Active; 'I' for Inactive)
REMARK    1  A    between atoms: C_4  and  C_7
REMARK    2  A    between atoms: C_9  and  C_21
REMARK                            x       y       z     vdW  Elec       q    Type
REMARK                         _______ _______ _______ _____ _____    ______ ____
ROOT
ATOM      1  C   UNL     1       3.697  -0.686  -0.038  0.00  0.00    +0.134 C 
ATOM      2  C   UNL     1       3.690  -2.011  -0.051  0.00  0.00    +0.033 C 
ATOM      3  C   UNL     1       4.967  -2.804  -0.069  0.00  0.00    +0.086 C 
ATOM      4  C   UNL     1       6.117  -1.921  -0.468  0.00  0.00    +0.090 A 
ATOM      5  C   UNL     1       7.330  -2.487  -0.880  0.00  0.00    +0.262 A 
ATOM      6  O   UNL     1       7.470  -3.699  -0.920  0.00  0.00    -0.267 OA
ATOM      7  N   UNL     1       8.341  -1.665  -1.233  0.00  0.00    -0.273 N 
ATOM      8  H   UNL     1       9.189  -2.036  -1.522  0.00  0.00    +0.173 HD
ATOM      9  C   UNL     1       8.171  -0.318  -1.184  0.00  0.00    +0.352 A 
ATOM     10  O   UNL     1       9.191   0.489  -1.540  0.00  0.00    -0.245 OA
ATOM     11  N   UNL     1       7.035   0.217  -0.798  0.00  0.00    -0.157 NA
ATOM     12  C   UNL     1       5.995  -0.546  -0.435  0.00  0.00    +0.234 A 
ATOM     13  O   UNL     1       4.841   0.032  -0.046  0.00  0.00    -0.437 OA
ENDROOT
BRANCH   3  14
ATOM     14  C   UNL     1       5.226  -3.365   1.306  0.00  0.00    -0.036 A 
ATOM     15  C   UNL     1       5.369  -2.513   2.385  0.00  0.00    +0.006 A 
ATOM     16  C   UNL     1       5.606  -3.028   3.646  0.00  0.00    +0.020 A 
ATOM     17  C   UNL     1       5.699  -4.396   3.827  0.00  0.00    +0.041 A 
ATOM     18  C   UNL     1       5.556  -5.249   2.747  0.00  0.00    +0.020 A 
ATOM     19  C   UNL     1       5.314  -4.733   1.488  0.00  0.00    +0.006 A 
ATOM     20 CL   UNL     1       5.998  -5.044   5.410  0.00  0.00    -0.084 Cl
ENDBRANCH   3  14
BRANCH   1  24
ATOM     21  C   UNL     1      -0.017   1.379   0.010  0.00  0.00    +0.000 A 
ATOM     22  C   UNL     1       1.169   2.093   0.002  0.00  0.00    +0.001 A 
ATOM     23  C   UNL     1       2.377   1.428  -0.013  0.00  0.00    +0.011 A 
ATOM     24  C   UNL     1       2.403   0.033  -0.021  0.00  0.00    +0.017 A 
ATOM     25  C   UNL     1       1.205  -0.680  -0.013  0.00  0.00    +0.011 A 
ATOM     26  C   UNL     1       0.002  -0.004   0.002  0.00  0.00    +0.001 A 
ENDBRANCH   1  24
TORSDOF 2
