REMARK  Name = ZINC33382302
REMARK  12 active torsions:
REMARK  status: ('A' for Active; 'I' for Inactive)
REMARK    1  A    between atoms: C_1  and  C_2
REMARK    2  A    between atoms: C_2  and  C_3
REMARK    3  A    between atoms: C_3  and  O_4
REMARK    4  A    between atoms: O_4  and  C_5
REMARK    5  A    between atoms: C_8  and  C_11
REMARK    6  A    between atoms: N_19  and  C_22
REMARK    7  A    between atoms: C_23  and  C_30
REMARK    8  A    between atoms: C_27  and  C_28
REMARK    9  A    between atoms: C_28  and  C_29
REMARK   10  A    between atoms: C_30  and  C_31
REMARK   11  A    between atoms: C_32  and  C_34
REMARK   12  A    between atoms: C_32  and  C_40
REMARK                            x       y       z     vdW  Elec       q    Type
REMARK                         _______ _______ _______ _____ _____    ______ ____
ROOT
ATOM      1  C   UNL     1       3.240  -4.426  -5.648  0.00  0.00    -0.026 C 
ATOM      2  C   UNL     1       4.626  -4.932  -5.261  0.00  0.00    +0.078 C 
ATOM      3  C   UNL     1       4.808  -5.939  -6.459  0.00  0.00    +0.090 C 
ATOM      4  C   UNL     1       6.232  -6.171  -6.441  0.00  0.00    +0.229 C 
ATOM      5  O   UNL     1       6.817  -7.194  -6.725  0.00  0.00    -0.275 OA
ATOM      6  N   UNL     1       6.780  -4.981  -6.033  0.00  0.00    -0.209 N 
ATOM      7  C   UNL     1       5.848  -4.107  -5.513  0.00  0.00    +0.229 C 
ATOM      8  O   UNL     1       5.981  -2.919  -5.307  0.00  0.00    -0.275 OA
ATOM      9  C   UNL     1       3.545  -6.688  -6.471  0.00  0.00    +0.074 C 
ATOM     10  N   UNL     1       2.511  -5.679  -6.031  0.00  0.00    +0.398 N 
ATOM     11  H   UNL     1       2.010  -6.040  -5.233  0.00  0.00    -0.083 HD
ATOM     12  H   UNL     1       1.866  -5.484  -6.782  0.00  0.00    -0.083 HD
ENDROOT
BRANCH   1  16
ATOM     13  C   UNL     1       1.341  -2.529  -2.322  0.00  0.00    +0.121 A 
ATOM     14  C   UNL     1       1.909  -1.762  -3.329  0.00  0.00    +0.046 A 
ATOM     15  C   UNL     1       2.522  -2.377  -4.403  0.00  0.00    +0.005 A 
ATOM     16  C   UNL     1       2.571  -3.757  -4.475  0.00  0.00    -0.060 A 
ATOM     17  C   UNL     1       2.006  -4.524  -3.473  0.00  0.00    +0.005 A 
ATOM     18  C   UNL     1       1.397  -3.914  -2.394  0.00  0.00    +0.046 A 
BRANCH  13  19
ATOM     19  O   UNL     1       0.738  -1.926  -1.265  0.00  0.00    -0.492 OA
BRANCH  19  20
ATOM     20  C   UNL     1       0.718  -0.497  -1.257  0.00  0.00    +0.229 C 
BRANCH  20  22
ATOM     21  C   UNL     1      -0.019   1.526   0.010  0.00  0.00    +0.007 C 
ATOM     22  C   UNL     1       0.002  -0.004   0.002  0.00  0.00    +0.038 C 
ENDBRANCH  20  22
ENDBRANCH  19  20
ENDBRANCH  13  19
ENDBRANCH   1  16
BRANCH   6  23
ATOM     23  C   UNL     1       8.148  -4.685  -6.121  0.00  0.00    +0.050 A 
ATOM     24  C   UNL     1       8.996  -4.999  -5.067  0.00  0.00    -0.026 A 
ATOM     25  C   UNL     1      10.344  -4.706  -5.157  0.00  0.00    +0.005 A 
ATOM     26  C   UNL     1      10.847  -4.102  -6.294  0.00  0.00    +0.001 A 
ATOM     27  C   UNL     1      10.004  -3.788  -7.345  0.00  0.00    +0.005 A 
ATOM     28  C   UNL     1       8.657  -4.083  -7.263  0.00  0.00    -0.026 A 
BRANCH  28  29
ATOM     29  C   UNL     1       7.741  -3.747  -8.411  0.00  0.00    +0.033 C 
ATOM     30  C   UNL     1       7.090  -2.385  -8.162  0.00  0.00    +0.009 C 
ENDBRANCH  28  29
BRANCH  24  31
ATOM     31  C   UNL     1       8.448  -5.657  -3.828  0.00  0.00    +0.033 C 
ATOM     32  C   UNL     1       8.389  -7.171  -4.038  0.00  0.00    +0.009 C 
ENDBRANCH  24  31
ENDBRANCH   6  23
BRANCH   9  33
ATOM     33  C   UNL     1       3.231  -7.165  -7.866  0.00  0.00    -0.047 A 
ATOM     34  C   UNL     1       4.257  -7.454  -8.745  0.00  0.00    +0.003 A 
ATOM     35  C   UNL     1       3.969  -7.891 -10.025  0.00  0.00    +0.000 A 
ATOM     36  C   UNL     1       2.654  -8.040 -10.424  0.00  0.00    +0.000 A 
ATOM     37  C   UNL     1       1.627  -7.752  -9.544  0.00  0.00    +0.000 A 
ATOM     38  C   UNL     1       1.916  -7.319  -8.264  0.00  0.00    +0.003 A 
ENDBRANCH   9  33
BRANCH   9  39
ATOM     39  C   UNL     1       3.617  -7.855  -5.519  0.00  0.00    +0.350 C 
ATOM     40  O   UNL     1       2.831  -7.932  -4.590  0.00  0.00    -0.248 OA
ATOM     41  O   UNL     1       4.460  -8.720  -5.679  0.00  0.00    -0.248 OA
ENDBRANCH   9  39
TORSDOF 9
