REMARK  Name = ZINC40010490
REMARK  10 active torsions:
REMARK  status: ('A' for Active; 'I' for Inactive)
REMARK    1  A    between atoms: C_1  and  C_2
REMARK    2  A    between atoms: C_6  and  C_15
REMARK    3  A    between atoms: C_13  and  C_14
REMARK    4  A    between atoms: C_19  and  O_33
REMARK    5  A    between atoms: C_20  and  O_31
REMARK    6  A    between atoms: C_26  and  C_28
REMARK    7  A    between atoms: C_28  and  C_29
REMARK    8  A    between atoms: C_28  and  C_30
REMARK    9  A    between atoms: O_31  and  C_32
REMARK   10  A    between atoms: O_33  and  C_34
REMARK                            x       y       z     vdW  Elec       q    Type
REMARK                         _______ _______ _______ _____ _____    ______ ____
ROOT
ATOM      1  C   UNL     1       1.805  -4.928  -2.970  0.00  0.00    +0.122 C 
ATOM      2  C   UNL     1       3.218  -4.454  -2.735  0.00  0.00    -0.019 A 
ATOM      3  C   UNL     1       3.489  -3.106  -2.931  0.00  0.00    +0.055 A 
ATOM      4  C   UNL     1       4.761  -2.607  -2.723  0.00  0.00    +0.162 A 
ATOM      5  C   UNL     1       5.777  -3.466  -2.311  0.00  0.00    +0.162 A 
ATOM      6  C   UNL     1       5.503  -4.807  -2.121  0.00  0.00    +0.053 A 
ATOM      7  C   UNL     1       4.224  -5.307  -2.337  0.00  0.00    -0.037 A 
ATOM      8  C   UNL     1       4.010  -6.784  -2.136  0.00  0.00    +0.054 C 
ATOM      9  C   UNL     1       2.529  -7.097  -1.934  0.00  0.00    +0.113 C 
ATOM     10  N   UNL     1       1.772  -6.394  -2.982  0.00  0.00    -0.293 N 
ATOM     11  C   UNL     1       1.075  -7.071  -3.916  0.00  0.00    +0.219 C 
ATOM     12  O   UNL     1       0.527  -6.472  -4.817  0.00  0.00    -0.275 OA
ENDROOT
BRANCH   1  18
ATOM     13  C   UNL     1       0.845  -7.362   3.676  0.00  0.00    +0.044 C 
ATOM     14  C   UNL     1       0.355  -6.858   2.343  0.00  0.00    -0.047 A 
ATOM     15  C   UNL     1       1.181  -6.105   1.572  0.00  0.00    +0.013 A 
ATOM     16  C   UNL     1       0.694  -5.622   0.279  0.00  0.00    -0.007 A 
ATOM     17  C   UNL     1       1.488  -4.863  -0.529  0.00  0.00    -0.003 C 
ATOM     18  C   UNL     1       0.901  -4.407  -1.850  0.00  0.00    +0.123 C 
ATOM     19  C   UNL     1      -0.516  -4.831  -2.165  0.00  0.00    +0.226 C 
ATOM     20  O   UNL     1      -1.036  -4.493  -3.212  0.00  0.00    -0.275 OA
ATOM     21  N   UNL     1      -1.187  -5.570  -1.298  0.00  0.00    -0.284 N 
ATOM     22  C   UNL     1      -0.676  -5.973  -0.135  0.00  0.00    +0.041 A 
ATOM     23  C   UNL     1      -1.449  -6.759   0.739  0.00  0.00    +0.027 A 
ATOM     24  C   UNL     1      -0.936  -7.181   1.924  0.00  0.00    -0.046 A 
ATOM     25  C   UNL     1      -1.799  -8.026   2.826  0.00  0.00    +0.044 C 
ATOM     26  H   UNL     1      -2.095  -5.831  -1.519  0.00  0.00    +0.155 HD
ENDBRANCH   1  18
BRANCH  11  27
ATOM     27  C   UNL     1       0.976  -8.573  -3.840  0.00  0.00    +0.069 C 
ATOM     28  C   UNL     1      -0.138  -8.963  -2.867  0.00  0.00    +0.017 C 
ATOM     29  C   UNL     1       0.660  -9.134  -5.228  0.00  0.00    +0.017 C 
ENDBRANCH  11  27
BRANCH   5  30
ATOM     30  O   UNL     1       7.031  -2.987  -2.098  0.00  0.00    -0.491 OA
ATOM     31  C   UNL     1       8.022  -3.928  -1.677  0.00  0.00    +0.277 C 
ENDBRANCH   5  30
BRANCH   4  32
ATOM     32  O   UNL     1       5.019  -1.286  -2.919  0.00  0.00    -0.491 OA
ATOM     33  C   UNL     1       3.926  -0.468  -3.341  0.00  0.00    +0.277 C 
ENDBRANCH   4  32
TORSDOF 4
