REMARK  Name = ZINC33033445
REMARK  13 active torsions:
REMARK  status: ('A' for Active; 'I' for Inactive)
REMARK    1  A    between atoms: C_1  and  C_2
REMARK    2  A    between atoms: C_2  and  C_3
REMARK    3  A    between atoms: C_2  and  C_4
REMARK    4  A    between atoms: C_4  and  C_5
REMARK    5  A    between atoms: C_8  and  S_11
REMARK    6  A    between atoms: S_11  and  N_14
REMARK    7  A    between atoms: N_14  and  C_15
REMARK    8  A    between atoms: C_17  and  C_27
REMARK    9  A    between atoms: C_20  and  N_21
REMARK   10  A    between atoms: N_29  and  C_30
REMARK   11  A    between atoms: N_29  and  C_31
REMARK   12  A    between atoms: C_31  and  C_32
REMARK   13  A    between atoms: N_34  and  C_35
REMARK                            x       y       z     vdW  Elec       q    Type
REMARK                         _______ _______ _______ _____ _____    ______ ____
ROOT
ATOM      1  C   UNL     1      -6.825   2.714   3.187  0.00  0.00    +0.070 A 
ATOM      2  C   UNL     1      -7.173   3.497   2.103  0.00  0.00    +0.039 A 
ATOM      3  C   UNL     1      -7.525   4.836   2.296  0.00  0.00    +0.039 A 
ATOM      4  C   UNL     1      -7.514   5.380   3.583  0.00  0.00    +0.015 A 
ATOM      5  C   UNL     1      -7.162   4.597   4.660  0.00  0.00    +0.026 A 
ATOM      6  C   UNL     1      -6.816   3.264   4.471  0.00  0.00    +0.052 A 
ENDROOT
BRANCH   6   7
ATOM      7  N   UNL     1      -6.460   2.476   5.563  0.00  0.00    -0.332 N 
ATOM      8  C   UNL     1      -6.293   3.295   6.772  0.00  0.00    +0.086 C 
ATOM      9  C   UNL     1      -5.826   2.406   7.927  0.00  0.00    -0.063 C 
ATOM     10  N   UNL     1      -6.811   1.339   8.150  0.00  0.00    +0.381 N 
ATOM     11  C   UNL     1      -6.978   0.520   6.941  0.00  0.00    -0.063 C 
ATOM     12  C   UNL     1      -7.445   1.409   5.786  0.00  0.00    +0.086 C 
ATOM     13  H   UNL     1      -6.471   0.692   8.972  0.00  0.00    -0.086 HD
ATOM     14  H   UNL     1      -7.782   1.785   8.412  0.00  0.00    -0.086 HD
ENDBRANCH   6   7
BRANCH   3  15
ATOM     15  C   UNL     1      -7.903   5.675   1.143  0.00  0.00    +0.247 C 
ATOM     16  O   UNL     1      -7.269   5.606   0.107  0.00  0.00    -0.270 OA
ATOM     17  N   UNL     1      -8.950   6.518   1.237  0.00  0.00    -0.292 N 
ATOM     18  C   UNL     1      -9.656   6.670   2.511  0.00  0.00    +0.133 C 
BRANCH  17  19
ATOM     19  C   UNL     1      -9.383   7.282   0.064  0.00  0.00    +0.203 C 
BRANCH  19  20
ATOM     20  C   UNL     1     -10.412   6.490  -0.700  0.00  0.00    +0.230 C 
ATOM     21  O   UNL     1     -10.751   5.395  -0.304  0.00  0.00    -0.274 OA
ATOM     22  N   UNL     1     -10.956   6.999  -1.823  0.00  0.00    -0.317 N 
ATOM     23  C   UNL     1     -11.956   6.228  -2.566  0.00  0.00    +0.128 C 
ATOM     24  H   UNL     1     -10.649   7.992  -2.183  0.00  0.00    +0.148 HD
ENDBRANCH  19  20
ENDBRANCH  17  19
ENDBRANCH   3  15
BRANCH   1  25
ATOM     25  N   UNL     1      -6.477   1.371   2.997  0.00  0.00    -0.214 N 
ATOM     26  H   UNL     1      -7.233   0.582   3.130  0.00  0.00    +0.174 HD
BRANCH  25  27
ATOM     27  S   UNL     1      -4.927   0.969   2.575  0.00  0.00    +0.072 S 
ATOM     28  O   UNL     1      -4.580   1.794   1.472  0.00  0.00    -0.150 OA
ATOM     29  O   UNL     1      -4.879  -0.450   2.510  0.00  0.00    -0.150 OA
BRANCH  27  33
ATOM     30  C   UNL     1      -2.241   2.197   6.005  0.00  0.00    -0.047 A 
ATOM     31  C   UNL     1      -2.511   3.090   4.985  0.00  0.00    +0.005 A 
ATOM     32  C   UNL     1      -3.328   2.714   3.935  0.00  0.00    +0.029 A 
ATOM     33  C   UNL     1      -3.882   1.447   3.910  0.00  0.00    +0.109 A 
ATOM     34  C   UNL     1      -3.616   0.556   4.933  0.00  0.00    +0.029 A 
ATOM     35  C   UNL     1      -2.796   0.931   5.981  0.00  0.00    +0.005 A 
BRANCH  30  36
ATOM     36  C   UNL     1      -1.347   2.607   7.147  0.00  0.00    +0.038 C 
BRANCH  36  38
ATOM     37  C   UNL     1       0.250   0.737   6.705  0.00  0.00    +0.007 C 
ATOM     38  C   UNL     1       0.104   2.256   6.809  0.00  0.00    -0.013 C 
ATOM     39  C   UNL     1       1.026   2.783   7.911  0.00  0.00    +0.007 C 
ENDBRANCH  36  38
ENDBRANCH  30  36
ENDBRANCH  27  33
ENDBRANCH  25  27
ENDBRANCH   1  25
TORSDOF 9
