REMARK  Name = ZINC02232625
REMARK  3 active torsions:
REMARK  status: ('A' for Active; 'I' for Inactive)
REMARK    1  A    between atoms: C_1  and  S_2
REMARK    2  A    between atoms: S_2  and  C_3
REMARK    3  A    between atoms: C_15  and  C_18
REMARK                            x       y       z     vdW  Elec       q    Type
REMARK                         _______ _______ _______ _____ _____    ______ ____
ROOT
ATOM      1  C   UNL     1      -1.702  -0.454   0.016  0.00  0.00    +0.211 A 
ATOM      2  N   UNL     1      -2.723   0.402   0.024  0.00  0.00    -0.183 NA
ATOM      3  C   UNL     1      -3.870  -0.268   0.034  0.00  0.00    +0.254 A 
ATOM      4  N   UNL     1      -5.145   0.143   0.048  0.00  0.00    -0.215 NA
ATOM      5  C   UNL     1      -6.140  -0.716   0.056  0.00  0.00    +0.058 A 
ATOM      6  C   UNL     1      -5.858  -2.100   0.045  0.00  0.00    +0.057 A 
ATOM      7  C   UNL     1      -4.541  -2.528   0.034  0.00  0.00    +0.129 A 
ATOM      8  N   UNL     1      -3.561  -1.601   0.029  0.00  0.00    -0.202 N 
ATOM      9  N   UNL     1      -2.163  -1.687   0.014  0.00  0.00    -0.137 NA
ATOM     10  C   UNL     1      -6.957  -3.078   0.041  0.00  0.00    +0.167 C 
ATOM     11  O   UNL     1      -6.752  -4.254  -0.177  0.00  0.00    -0.292 OA
ATOM     12  C   UNL     1      -8.354  -2.563   0.320  0.00  0.00    +0.088 C 
ATOM     13  C   UNL     1      -8.527  -1.254  -0.460  0.00  0.00    +0.032 C 
ATOM     14  C   UNL     1      -7.555  -0.207   0.080  0.00  0.00    +0.065 C 
ENDROOT
BRANCH  13  15
ATOM     15  C   UNL     1      -9.940  -0.756  -0.299  0.00  0.00    -0.044 A 
ATOM     16  C   UNL     1     -10.429  -0.457   0.959  0.00  0.00    +0.004 A 
ATOM     17  C   UNL     1     -11.726  -0.001   1.106  0.00  0.00    +0.000 A 
ATOM     18  C   UNL     1     -12.533   0.157  -0.005  0.00  0.00    +0.000 A 
ATOM     19  C   UNL     1     -12.043  -0.141  -1.263  0.00  0.00    +0.000 A 
ATOM     20  C   UNL     1     -10.746  -0.593  -1.411  0.00  0.00    +0.004 A 
ENDBRANCH  13  15
BRANCH   1  22
ATOM     21  C   UNL     1      -0.022   1.810   0.012  0.00  0.00    +0.093 C 
ATOM     22  S   UNL     1       0.002  -0.004   0.002  0.00  0.00    -0.088 S 
ENDBRANCH   1  22
TORSDOF 2
