REMARK  Name = ZINC38498839
REMARK  5 active torsions:
REMARK  status: ('A' for Active; 'I' for Inactive)
REMARK    1  A    between atoms: C_1  and  C_2
REMARK    2  A    between atoms: C_7  and  C_12
REMARK    3  A    between atoms: C_14  and  C_17
REMARK    4  A    between atoms: C_17  and  C_18
REMARK    5  A    between atoms: N_20  and  C_21
REMARK                            x       y       z     vdW  Elec       q    Type
REMARK                         _______ _______ _______ _____ _____    ______ ____
ROOT
ATOM      1  C   UNL     1      -2.458  -5.106   2.256  0.00  0.00    +0.167 A 
ATOM      2  C   UNL     1      -2.146  -6.152   3.069  0.00  0.00    +0.076 A 
ATOM      3  C   UNL     1      -3.219  -7.055   3.043  0.00  0.00    +0.093 A 
ATOM      4  N   UNL     1      -4.138  -6.576   2.251  0.00  0.00    -0.082 NA
ATOM      5  O   UNL     1      -3.680  -5.336   1.742  0.00  0.00    -0.354 OA
ENDROOT
BRANCH   1  11
ATOM      6  C   UNL     1      -0.038   1.504  -0.051  0.00  0.00    +0.052 C 
ATOM      7  C   UNL     1      -0.020  -0.026  -0.056  0.00  0.00    +0.175 C 
ATOM      8  C   UNL     1      -1.458  -0.591   0.030  0.00  0.00    +0.083 C 
ATOM      9  C   UNL     1      -1.260  -1.821   0.895  0.00  0.00    -0.002 A 
ATOM     10  C   UNL     1      -2.056  -2.915   1.136  0.00  0.00    +0.019 A 
ATOM     11  C   UNL     1      -1.609  -3.925   1.992  0.00  0.00    +0.020 A 
ATOM     12  C   UNL     1      -0.355  -3.810   2.595  0.00  0.00    +0.015 A 
ATOM     13  C   UNL     1       0.432  -2.709   2.350  0.00  0.00    +0.046 A 
ATOM     14  C   UNL     1      -0.013  -1.697   1.499  0.00  0.00    +0.124 A 
ATOM     15  O   UNL     1       0.597  -0.532   1.140  0.00  0.00    -0.488 OA
ENDBRANCH   1  11
BRANCH   3  16
ATOM     16  C   UNL     1      -3.297  -8.356   3.800  0.00  0.00    +0.155 C 
BRANCH  16  17
ATOM     17  C   UNL     1      -4.549  -8.375   4.638  0.00  0.00    +0.223 C 
ATOM     18  O   UNL     1      -5.304  -7.426   4.622  0.00  0.00    -0.275 OA
ATOM     19  N   UNL     1      -4.830  -9.447   5.405  0.00  0.00    -0.284 N 
ATOM     20  H   UNL     1      -4.261 -10.232   5.369  0.00  0.00    +0.155 HD
BRANCH  19  21
ATOM     21  C   UNL     1      -5.942  -9.428   6.255  0.00  0.00    +0.053 A 
ATOM     22  C   UNL     1      -7.098  -8.760   5.872  0.00  0.00    +0.044 A 
ATOM     23  C   UNL     1      -8.195  -8.743   6.713  0.00  0.00    +0.043 A 
ATOM     24  C   UNL     1      -8.142  -9.391   7.935  0.00  0.00    +0.021 A 
ATOM     25  C   UNL     1      -6.993 -10.056   8.319  0.00  0.00    +0.023 A 
ATOM     26  C   UNL     1      -5.894 -10.081   7.480  0.00  0.00    +0.062 A 
ATOM     27 CL   UNL     1      -4.454 -10.923   7.960  0.00  0.00    -0.082 Cl
ATOM     28 CL   UNL     1      -9.640  -7.908   6.236  0.00  0.00    -0.083 Cl
ENDBRANCH  19  21
ENDBRANCH  16  17
ENDBRANCH   3  16
TORSDOF 4
