REMARK  Name = ZINC04222411
REMARK  10 active torsions:
REMARK  status: ('A' for Active; 'I' for Inactive)
REMARK    1  A    between atoms: C_1  and  C_2
REMARK    2  A    between atoms: C_5  and  O_39
REMARK    3  A    between atoms: C_7  and  C_36
REMARK    4  A    between atoms: C_7  and  C_37
REMARK    5  A    between atoms: C_17  and  C_19
REMARK    6  A    between atoms: C_27  and  C_29
REMARK    7  A    between atoms: C_29  and  C_30
REMARK    8  A    between atoms: N_32  and  C_33
REMARK    9  A    between atoms: C_33  and  C_34
REMARK   10  A    between atoms: C_37  and  O_38
REMARK                            x       y       z     vdW  Elec       q    Type
REMARK                         _______ _______ _______ _____ _____    ______ ____
ROOT
ATOM      1  C   UNL     1       2.337   3.577   2.412  0.00  0.00    +0.012 C 
ATOM      2  C   UNL     1       3.208   3.223   1.205  0.00  0.00    -0.019 C 
ATOM      3  C   UNL     1       3.474   1.714   1.188  0.00  0.00    +0.010 C 
ATOM      4  C   UNL     1       2.164   0.944   1.028  0.00  0.00    +0.032 C 
ATOM      5  C   UNL     1       1.517   1.345  -0.301  0.00  0.00    +0.123 C 
ATOM      6  C   UNL     1       1.208   2.840  -0.265  0.00  0.00    +0.021 C 
ATOM      7  C   UNL     1       2.497   3.647  -0.082  0.00  0.00    +0.011 C 
ATOM      8  C   UNL     1       2.094   5.130   0.034  0.00  0.00    +0.049 C 
ATOM      9  C   UNL     1       3.252   5.907   0.553  0.00  0.00    +0.015 A 
ATOM     10  C   UNL     1       4.380   5.426   1.136  0.00  0.00    +0.058 A 
ATOM     11  N   UNL     1       5.272   6.336   1.520  0.00  0.00    -0.229 NA
ATOM     12  C   UNL     1       5.077   7.627   1.345  0.00  0.00    +0.165 A 
ATOM     13  S   UNL     1       3.518   7.659   0.578  0.00  0.00    -0.057 S 
ATOM     14  N   UNL     1       5.904   8.689   1.687  0.00  0.00    -0.261 N 
ATOM     15  C   UNL     1       5.521   9.954   1.422  0.00  0.00    +0.255 C 
ATOM     16  O   UNL     1       4.452  10.165   0.883  0.00  0.00    -0.270 OA
ATOM     17  C   UNL     1       4.567   3.927   1.316  0.00  0.00    +0.054 C 
ATOM     18  C   UNL     1       0.540   3.251  -1.580  0.00  0.00    +0.016 C 
ATOM     19  H   UNL     1       6.758   8.521   2.117  0.00  0.00    +0.157 HD
ENDROOT
BRANCH  15  20
ATOM     20  C   UNL     1       6.400  11.082   1.785  0.00  0.00    +0.107 A 
ATOM     21  C   UNL     1       7.355  11.550   0.877  0.00  0.00    +0.138 A 
ATOM     22  C   UNL     1       8.169  12.612   1.223  0.00  0.00    +0.039 A 
ATOM     23  C   UNL     1       8.051  13.203   2.468  0.00  0.00    +0.006 A 
ATOM     24  C   UNL     1       7.113  12.742   3.374  0.00  0.00    +0.039 A 
ATOM     25  C   UNL     1       6.286  11.686   3.042  0.00  0.00    +0.138 A 
ATOM     26  F   UNL     1       5.371  11.237   3.929  0.00  0.00    -0.205 F 
ATOM     27  F   UNL     1       7.477  10.970  -0.337  0.00  0.00    -0.205 F 
ENDBRANCH  15  20
BRANCH   5  28
ATOM     28  O   UNL     1       0.305   0.609  -0.485  0.00  0.00    -0.391 OA
ATOM     29  H   UNL     1       0.429  -0.349  -0.517  0.00  0.00    +0.210 HD
ENDBRANCH   5  28
BRANCH  17  30
ATOM     30  C   UNL     1       5.173   3.651   2.694  0.00  0.00    +0.106 C 
BRANCH  30  31
ATOM     31  C   UNL     1       6.585   4.173   2.735  0.00  0.00    +0.214 C 
ATOM     32  O   UNL     1       7.061   4.713   1.759  0.00  0.00    -0.276 OA
ATOM     33  N   UNL     1       7.321   4.041   3.857  0.00  0.00    -0.304 N 
ATOM     34  H   UNL     1       6.940   3.609   4.638  0.00  0.00    +0.150 HD
BRANCH  33  35
ATOM     35  C   UNL     1       8.694   4.548   3.897  0.00  0.00    +0.193 C 
BRANCH  35  36
ATOM     36  C   UNL     1       9.277   4.283   5.222  0.00  0.00    -0.087 C 
ATOM     37  C   UNL     1       9.742   4.071   6.279  0.00  0.00    +0.005 C 
ENDBRANCH  35  36
ENDBRANCH  33  35
ENDBRANCH  30  31
ENDBRANCH  17  30
BRANCH   6  38
ATOM     38  C   UNL     1       0.258   3.133   0.898  0.00  0.00    +0.165 C 
BRANCH  38  39
ATOM     39  O   UNL     1      -1.011   2.528   0.641  0.00  0.00    -0.394 OA
ATOM     40  H   UNL     1      -1.665   2.673   1.339  0.00  0.00    +0.209 HD
ENDBRANCH  38  39
ENDBRANCH   6  38
TORSDOF 8
