REMARK  Name = ZINC02055292
REMARK  14 active torsions:
REMARK  status: ('A' for Active; 'I' for Inactive)
REMARK    1  A    between atoms: C_1  and  C_2
REMARK    2  A    between atoms: C_2  and  C_3
REMARK    3  A    between atoms: C_3  and  C_4
REMARK    4  A    between atoms: C_4  and  C_5
REMARK    5  A    between atoms: C_5  and  O_6
REMARK    6  A    between atoms: O_6  and  C_7
REMARK    7  A    between atoms: C_7  and  C_9
REMARK    8  A    between atoms: C_10  and  C_33
REMARK    9  A    between atoms: C_14  and  C_16
REMARK   10  A    between atoms: C_18  and  O_24
REMARK   11  A    between atoms: C_19  and  O_23
REMARK   12  A    between atoms: O_24  and  C_25
REMARK   13  A    between atoms: C_29  and  C_31
REMARK   14  A    between atoms: C_29  and  C_32
REMARK                            x       y       z     vdW  Elec       q    Type
REMARK                         _______ _______ _______ _____ _____    ______ ____
ROOT
ATOM      1  C   UNL     1       3.418   1.257   1.152  0.00  0.00    +0.065 C 
ATOM      2  C   UNL     1       4.260   2.305   1.157  0.00  0.00    +0.016 C 
ATOM      3  N   UNL     1       4.469   3.032   0.019  0.00  0.00    -0.321 N 
ATOM      4  C   UNL     1       4.164   2.509  -1.209  0.00  0.00    +0.016 C 
ATOM      5  C   UNL     1       3.319   1.462  -1.317  0.00  0.00    +0.024 C 
ATOM      6  C   UNL     1       2.681   0.857  -0.092  0.00  0.00    +0.092 C 
ATOM      7  C   UNL     1       3.011   0.905  -2.571  0.00  0.00    +0.162 C 
ATOM      8  O   UNL     1       2.241  -0.033  -2.634  0.00  0.00    -0.292 OA
ATOM      9  C   UNL     1       3.616   1.449  -3.836  0.00  0.00    +0.086 C 
ATOM     10  C   UNL     1       4.982   2.062  -3.511  0.00  0.00    -0.023 C 
ATOM     11  C   UNL     1       4.791   3.131  -2.432  0.00  0.00    +0.058 C 
ATOM     12  C   UNL     1       5.925   0.973  -2.996  0.00  0.00    +0.011 C 
ATOM     13  C   UNL     1       5.572   2.699  -4.771  0.00  0.00    +0.011 C 
ATOM     14  C   UNL     1       4.979   2.681   2.428  0.00  0.00    +0.061 C 
ATOM     15  H   UNL     1       4.885   4.048   0.084  0.00  0.00    +0.152 HD
ENDROOT
BRANCH   6  16
ATOM     16  C   UNL     1       1.253   1.329   0.006  0.00  0.00    -0.030 A 
ATOM     17  C   UNL     1       0.219   0.413  -0.042  0.00  0.00    +0.054 A 
ATOM     18  C   UNL     1      -1.095   0.845   0.043  0.00  0.00    +0.163 A 
ATOM     19  C   UNL     1      -1.370   2.202   0.186  0.00  0.00    +0.173 A 
ATOM     20  C   UNL     1      -0.329   3.116   0.234  0.00  0.00    +0.063 A 
ATOM     21  C   UNL     1       0.980   2.677   0.143  0.00  0.00    +0.023 A 
ATOM     22 BR   UNL     1      -0.698   4.961   0.420  0.00  0.00    -0.046 Br
BRANCH  19  23
ATOM     23  O   UNL     1      -2.658   2.631   0.274  0.00  0.00    -0.503 OA
ATOM     24  H   UNL     1      -2.874   3.703   0.388  0.00  0.00    +0.292 HD
ENDBRANCH  19  23
BRANCH  18  25
ATOM     25  O   UNL     1      -2.113  -0.054  -0.011  0.00  0.00    -0.491 OA
ATOM     26  C   UNL     1      -1.756  -1.431  -0.154  0.00  0.00    +0.277 C 
ENDBRANCH  18  25
ENDBRANCH   6  16
BRANCH   1  27
ATOM     27  C   UNL     1       3.225   0.517   2.342  0.00  0.00    +0.338 C 
ATOM     28  O   UNL     1       3.906   0.752   3.322  0.00  0.00    -0.245 OA
BRANCH  27  29
ATOM     29  O   UNL     1       2.284  -0.450   2.389  0.00  0.00    -0.461 OA
BRANCH  29  30
ATOM     30  C   UNL     1       2.143  -1.158   3.623  0.00  0.00    +0.232 C 
BRANCH  30  31
ATOM     31  C   UNL     1       1.038  -2.206   3.485  0.00  0.00    +0.041 C 
BRANCH  31  32
ATOM     32  C   UNL     1       0.886  -2.964   4.806  0.00  0.00    +0.003 C 
BRANCH  32  34
ATOM     33  C   UNL     1      -0.371  -4.770   5.989  0.00  0.00    +0.004 C 
ATOM     34  C   UNL     1      -0.219  -4.013   4.669  0.00  0.00    -0.003 C 
ENDBRANCH  32  34
ENDBRANCH  31  32
ENDBRANCH  30  31
ENDBRANCH  29  30
ENDBRANCH  27  29
ENDBRANCH   1  27
TORSDOF 9
