REMARK  Name = ZINC60377218
REMARK  12 active torsions:
REMARK  status: ('A' for Active; 'I' for Inactive)
REMARK    1  A    between atoms: C_1  and  C_2
REMARK    2  A    between atoms: C_2  and  C_4
REMARK    3  A    between atoms: C_2  and  N_14
REMARK    4  A    between atoms: C_8  and  S_10
REMARK    5  A    between atoms: S_10  and  N_13
REMARK    6  A    between atoms: N_14  and  C_15
REMARK    7  A    between atoms: N_14  and  C_16
REMARK    8  A    between atoms: C_16  and  C_17
REMARK    9  A    between atoms: N_19  and  C_20
REMARK   10  A    between atoms: C_25  and  C_26
REMARK   11  A    between atoms: N_28  and  C_29
REMARK   12  A    between atoms: C_29  and  C_30
REMARK                            x       y       z     vdW  Elec       q    Type
REMARK                         _______ _______ _______ _____ _____    ______ ____
ROOT
ATOM      1  C   UNL     1       1.563  -2.458   2.338  0.00  0.00    +0.201 C 
ATOM      2  O   UNL     1       2.077  -1.667   3.101  0.00  0.00    -0.278 OA
ATOM      3  N   UNL     1       1.727  -3.782   2.529  0.00  0.00    -0.286 N 
ATOM      4  H   UNL     1       1.252  -4.415   1.969  0.00  0.00    +0.155 HD
ENDROOT
BRANCH   3   5
ATOM      5  C   UNL     1       2.579  -4.240   3.531  0.00  0.00    +0.045 A 
ATOM      6  C   UNL     1       3.627  -3.444   3.975  0.00  0.00    +0.024 A 
ATOM      7  C   UNL     1       4.470  -3.901   4.967  0.00  0.00    +0.002 A 
ATOM      8  C   UNL     1       4.280  -5.154   5.528  0.00  0.00    +0.001 A 
ATOM      9  C   UNL     1       3.245  -5.958   5.100  0.00  0.00    +0.015 A 
ATOM     10  C   UNL     1       2.380  -5.507   4.101  0.00  0.00    +0.058 A 
BRANCH  10  11
ATOM     11  C   UNL     1       1.267  -6.360   3.643  0.00  0.00    +0.246 C 
ATOM     12  O   UNL     1       0.574  -6.005   2.708  0.00  0.00    -0.270 OA
ATOM     13  N   UNL     1       1.018  -7.532   4.260  0.00  0.00    -0.304 N 
ATOM     14  H   UNL     1       1.571  -7.814   5.005  0.00  0.00    +0.149 HD
BRANCH  13  15
ATOM     15  C   UNL     1      -0.087  -8.379   3.805  0.00  0.00    +0.179 C 
BRANCH  15  16
ATOM     16  C   UNL     1      -0.150  -9.621   4.655  0.00  0.00    +0.122 A 
ATOM     17  C   UNL     1      -0.861  -9.764   5.788  0.00  0.00    +0.046 A 
ATOM     18  C   UNL     1      -0.632 -11.080   6.252  0.00  0.00    +0.041 A 
ATOM     19  C   UNL     1       0.205 -11.662   5.375  0.00  0.00    +0.195 A 
ATOM     20  O   UNL     1       0.489 -10.776   4.406  0.00  0.00    -0.466 OA
ENDBRANCH  15  16
ENDBRANCH  13  15
ENDBRANCH  10  11
ENDBRANCH   3   5
BRANCH   1  21
ATOM     21  C   UNL     1       0.741  -1.960   1.178  0.00  0.00    +0.019 C 
BRANCH  21  22
ATOM     22  N   UNL     1       0.715  -0.491   1.190  0.00  0.00    +0.388 N 
ATOM     23  C   UNL     1       0.013  -0.024   2.392  0.00  0.00    -0.095 C 
ATOM     24  H   UNL     1       1.660  -0.138   1.194  0.00  0.00    -0.081 HD
BRANCH  22  26
ATOM     25  C   UNL     1      -0.011   1.526   0.006  0.00  0.00    -0.008 C 
ATOM     26  C   UNL     1       0.016  -0.004  -0.006  0.00  0.00    -0.040 C 
BRANCH  26  27
ATOM     27  C   UNL     1       0.736  -0.483  -1.240  0.00  0.00    -0.059 A 
ATOM     28  C   UNL     1       2.119  -0.498  -1.271  0.00  0.00    +0.002 A 
ATOM     29  C   UNL     1       2.780  -0.938  -2.402  0.00  0.00    +0.002 A 
ATOM     30  C   UNL     1       2.059  -1.363  -3.503  0.00  0.00    +0.028 A 
ATOM     31  C   UNL     1       0.677  -1.349  -3.471  0.00  0.00    +0.105 A 
ATOM     32  C   UNL     1       0.016  -0.913  -2.338  0.00  0.00    +0.030 A 
BRANCH  31  33
ATOM     33  S   UNL     1      -0.242  -1.890  -4.874  0.00  0.00    +0.056 S 
ATOM     34  O   UNL     1      -1.515  -1.266  -4.791  0.00  0.00    -0.153 OA
ATOM     35  O   UNL     1       0.610  -1.737  -6.001  0.00  0.00    -0.153 OA
BRANCH  33  36
ATOM     36  N   UNL     1      -0.499  -3.516  -4.693  0.00  0.00    -0.204 NA
ATOM     37  H   UNL     1      -1.295  -3.926  -5.067  0.00  0.00    +0.144 HD
ATOM     38  H   UNL     1       0.146  -4.059  -4.213  0.00  0.00    +0.144 HD
ENDBRANCH  33  36
ENDBRANCH  31  33
ENDBRANCH  26  27
ENDBRANCH  22  26
ENDBRANCH  21  22
ENDBRANCH   1  21
TORSDOF 10
