REMARK  Name = ZINC38600416
REMARK  8 active torsions:
REMARK  status: ('A' for Active; 'I' for Inactive)
REMARK    1  A    between atoms: C_1  and  C_2
REMARK    2  A    between atoms: C_2  and  O_3
REMARK    3  A    between atoms: O_3  and  C_4
REMARK    4  A    between atoms: C_4  and  C_6
REMARK    5  A    between atoms: C_8  and  N_17
REMARK    6  A    between atoms: C_18  and  C_20
REMARK    7  A    between atoms: C_20  and  C_22
REMARK    8  A    between atoms: C_20  and  N_23
REMARK                            x       y       z     vdW  Elec       q    Type
REMARK                         _______ _______ _______ _____ _____    ______ ____
ROOT
ATOM      1  N   UNL     1       3.914  -1.279  -2.003  0.00  0.00    -0.288 N 
ATOM      2  C   UNL     1       5.242  -1.502  -1.941  0.00  0.00    +0.203 C 
ATOM      3  O   UNL     1       5.687  -2.596  -2.217  0.00  0.00    -0.277 OA
ATOM      4  H   UNL     1       3.566  -0.385  -1.864  0.00  0.00    +0.155 HD
ENDROOT
BRANCH   1   6
ATOM      5  C   UNL     1       3.431  -3.727  -2.640  0.00  0.00    +0.234 C 
ATOM      6  C   UNL     1       3.061  -2.310  -2.261  0.00  0.00    +0.053 C 
ATOM      7  C   UNL     1       1.678  -2.278  -2.230  0.00  0.00    +0.020 A 
ATOM      8  C   UNL     1       0.753  -1.245  -1.942  0.00  0.00    +0.050 A 
ATOM      9  C   UNL     1      -0.578  -1.503  -1.988  0.00  0.00    +0.124 A 
ATOM     10  C   UNL     1      -1.068  -2.773  -2.314  0.00  0.00    +0.040 A 
ATOM     11  C   UNL     1      -0.241  -3.807  -2.600  0.00  0.00    +0.029 A 
ATOM     12  C   UNL     1       1.165  -3.615  -2.574  0.00  0.00    +0.045 A 
ATOM     13  N   UNL     1       2.163  -4.446  -2.808  0.00  0.00    -0.367 N 
ATOM     14  F   UNL     1      -1.452  -0.510  -1.712  0.00  0.00    -0.205 F 
ATOM     15  H   UNL     1       2.074  -5.380  -3.052  0.00  0.00    +0.161 HD
BRANCH   5  16
ATOM     16  C   UNL     1       4.206  -3.734  -3.933  0.00  0.00    +0.336 C 
ATOM     17  O   UNL     1       3.633  -3.557  -4.982  0.00  0.00    -0.248 OA
BRANCH  16  18
ATOM     18  O   UNL     1       5.532  -3.936  -3.919  0.00  0.00    -0.463 OA
BRANCH  18  20
ATOM     19  C   UNL     1       7.698  -4.175  -4.965  0.00  0.00    +0.048 C 
ATOM     20  C   UNL     1       6.203  -3.929  -5.180  0.00  0.00    +0.229 C 
ENDBRANCH  18  20
ENDBRANCH  16  18
ENDBRANCH   5  16
ENDBRANCH   1   6
BRANCH   2  21
ATOM     21  C   UNL     1       6.174  -0.392  -1.528  0.00  0.00    +0.017 C 
ATOM     22  C   UNL     1       6.041   0.776  -2.507  0.00  0.00    -0.004 C 
BRANCH  21  23
ATOM     23  N   UNL     1       7.558  -0.885  -1.540  0.00  0.00    +0.390 N 
ATOM     24  C   UNL     1       7.691  -2.001  -0.591  0.00  0.00    -0.073 C 
ATOM     25  C   UNL     1       9.032  -2.693  -0.836  0.00  0.00    +0.017 C 
ATOM     26  C   UNL     1      10.139  -1.669  -0.849  0.00  0.00    -0.048 A 
ATOM     27  C   UNL     1      11.448  -2.104  -0.710  0.00  0.00    +0.004 A 
ATOM     28  C   UNL     1      12.488  -1.196  -0.721  0.00  0.00    +0.000 A 
ATOM     29  C   UNL     1      12.222   0.153  -0.870  0.00  0.00    +0.000 A 
ATOM     30  C   UNL     1      10.919   0.586  -1.007  0.00  0.00    +0.002 A 
ATOM     31  C   UNL     1       9.873  -0.325  -0.995  0.00  0.00    -0.061 A 
ATOM     32  C   UNL     1       8.466   0.193  -1.139  0.00  0.00    -0.042 C 
ATOM     33  H   UNL     1       7.797  -1.200  -2.468  0.00  0.00    -0.080 HD
ENDBRANCH  21  23
ENDBRANCH   2  21
TORSDOF 6
