REMARK  Name = ZINC09076048
REMARK  11 active torsions:
REMARK  status: ('A' for Active; 'I' for Inactive)
REMARK    1  A    between atoms: C_1  and  C_2
REMARK    2  A    between atoms: C_6  and  C_7
REMARK    3  A    between atoms: C_10  and  O_15
REMARK    4  A    between atoms: C_11  and  O_13
REMARK    5  A    between atoms: O_13  and  C_14
REMARK    6  A    between atoms: O_15  and  C_16
REMARK    7  A    between atoms: C_20  and  C_26
REMARK    8  A    between atoms: C_29  and  O_34
REMARK    9  A    between atoms: C_30  and  O_32
REMARK   10  A    between atoms: O_32  and  C_33
REMARK   11  A    between atoms: O_34  and  C_35
REMARK                            x       y       z     vdW  Elec       q    Type
REMARK                         _______ _______ _______ _____ _____    ______ ____
ROOT
ATOM      1  C   UNL     1      -5.599  -3.167  -1.855  0.00  0.00    +0.008 C 
ATOM      2  C   UNL     1      -6.364  -2.618  -0.649  0.00  0.00    -0.006 C 
ATOM      3  C   UNL     1      -5.886  -1.190  -0.343  0.00  0.00    +0.040 C 
ATOM      4  C   UNL     1      -6.639  -0.731   0.887  0.00  0.00    -0.025 C 
ATOM      5  C   UNL     1      -6.018  -0.037   1.857  0.00  0.00    +0.013 C 
ATOM      6  C   UNL     1      -8.071  -1.069   0.995  0.00  0.00    +0.037 C 
ATOM      7  C   UNL     1      -8.641  -1.922   0.144  0.00  0.00    -0.023 C 
ATOM      8  C   UNL     1      -7.855  -2.580  -0.964  0.00  0.00    +0.038 C 
ATOM      9  C   UNL     1     -10.104  -2.270   0.261  0.00  0.00    +0.130 C 
ATOM     10  N   UNL     1     -10.754  -1.587   1.360  0.00  0.00    -0.316 N 
ATOM     11  C   UNL     1     -10.119  -0.731   2.170  0.00  0.00    +0.135 C 
ATOM     12  S   UNL     1     -10.990   0.037   3.429  0.00  0.00    -0.019 S 
ATOM     13  N   UNL     1      -8.815  -0.462   2.014  0.00  0.00    -0.297 N 
ATOM     14  H   UNL     1     -11.698  -1.752   1.512  0.00  0.00    +0.149 HD
ATOM     15  H   UNL     1      -8.380   0.162   2.616  0.00  0.00    +0.154 HD
ENDROOT
BRANCH   5  16
ATOM     16  C   UNL     1      -4.636   0.432   1.658  0.00  0.00    -0.021 A 
ATOM     17  C   UNL     1      -4.198   0.801   0.383  0.00  0.00    +0.012 A 
ATOM     18  C   UNL     1      -2.906   1.246   0.200  0.00  0.00    +0.050 A 
ATOM     19  C   UNL     1      -2.034   1.318   1.277  0.00  0.00    +0.162 A 
ATOM     20  C   UNL     1      -2.463   0.952   2.551  0.00  0.00    +0.162 A 
ATOM     21  C   UNL     1      -3.759   0.510   2.744  0.00  0.00    +0.057 A 
BRANCH  20  22
ATOM     22  O   UNL     1      -1.608   1.029   3.605  0.00  0.00    -0.491 OA
ATOM     23  C   UNL     1      -2.115   0.638   4.883  0.00  0.00    +0.277 C 
ENDBRANCH  20  22
BRANCH  19  24
ATOM     24  O   UNL     1      -0.760   1.752   1.090  0.00  0.00    -0.491 OA
ATOM     25  C   UNL     1      -0.386   2.112  -0.241  0.00  0.00    +0.277 C 
ENDBRANCH  19  24
ENDBRANCH   5  16
BRANCH   9  26
ATOM     26  C   UNL     1     -10.794  -1.912  -1.030  0.00  0.00    -0.019 A 
ATOM     27  C   UNL     1     -11.158  -0.602  -1.278  0.00  0.00    +0.009 A 
ATOM     28  C   UNL     1     -11.787  -0.267  -2.463  0.00  0.00    +0.050 A 
ATOM     29  C   UNL     1     -12.063  -1.249  -3.401  0.00  0.00    +0.162 A 
ATOM     30  C   UNL     1     -11.702  -2.569  -3.150  0.00  0.00    +0.162 A 
ATOM     31  C   UNL     1     -11.067  -2.896  -1.962  0.00  0.00    +0.055 A 
BRANCH  30  32
ATOM     32  O   UNL     1     -11.971  -3.536  -4.068  0.00  0.00    -0.491 OA
ATOM     33  C   UNL     1     -11.571  -4.868  -3.742  0.00  0.00    +0.277 C 
ENDBRANCH  30  32
BRANCH  29  34
ATOM     34  O   UNL     1     -12.686  -0.923  -4.565  0.00  0.00    -0.491 OA
ATOM     35  C   UNL     1     -13.027   0.452  -4.755  0.00  0.00    +0.277 C 
ENDBRANCH  29  34
ENDBRANCH   9  26
TORSDOF 6
