REMARK  Name = ZINC22620734
REMARK  11 active torsions:
REMARK  status: ('A' for Active; 'I' for Inactive)
REMARK    1  A    between atoms: C_1  and  C_2
REMARK    2  A    between atoms: C_2  and  C_4
REMARK    3  A    between atoms: C_2  and  N_32
REMARK    4  A    between atoms: C_7  and  S_16
REMARK    5  A    between atoms: N_8  and  C_9
REMARK    6  A    between atoms: S_16  and  C_17
REMARK    7  A    between atoms: C_17  and  C_19
REMARK    8  A    between atoms: C_17  and  C_20
REMARK    9  A    between atoms: N_25  and  C_26
REMARK   10  A    between atoms: N_32  and  C_33
REMARK   11  A    between atoms: N_32  and  C_34
REMARK                            x       y       z     vdW  Elec       q    Type
REMARK                         _______ _______ _______ _____ _____    ______ ____
ROOT
ATOM      1  C   UNL     1      -1.735   3.449   0.092  0.00  0.00    +0.125 A 
ATOM      2  N   UNL     1      -1.709   3.008  -1.134  0.00  0.00    -0.135 NA
ATOM      3  N   UNL     1      -2.627   3.579  -1.829  0.00  0.00    -0.122 NA
ATOM      4  C   UNL     1      -3.290   4.431  -1.081  0.00  0.00    +0.197 A 
ATOM      5  N   UNL     1      -2.741   4.375   0.171  0.00  0.00    -0.275 N 
ENDROOT
BRANCH   5   6
ATOM      6  C   UNL     1      -3.127   5.113   1.299  0.00  0.00    +0.050 A 
ATOM      7  C   UNL     1      -3.664   4.464   2.403  0.00  0.00    +0.028 A 
ATOM      8  C   UNL     1      -4.040   5.192   3.515  0.00  0.00    +0.022 A 
ATOM      9  C   UNL     1      -3.891   6.568   3.526  0.00  0.00    +0.041 A 
ATOM     10  C   UNL     1      -3.361   7.217   2.424  0.00  0.00    +0.022 A 
ATOM     11  C   UNL     1      -2.979   6.493   1.312  0.00  0.00    +0.028 A 
ATOM     12 CL   UNL     1      -4.370   7.481   4.922  0.00  0.00    -0.084 Cl
ENDBRANCH   5   6
BRANCH   1  14
ATOM     13  C   UNL     1       0.559   3.650   1.013  0.00  0.00    -0.005 C 
ATOM     14  C   UNL     1      -0.822   3.023   1.213  0.00  0.00    -0.003 C 
BRANCH  14  15
ATOM     15  N   UNL     1      -0.700   1.560   1.217  0.00  0.00    +0.382 N 
ATOM     16  C   UNL     1      -0.013   1.086   0.008  0.00  0.00    -0.096 C 
ATOM     17  C   UNL     1      -0.016   1.091   2.429  0.00  0.00    -0.096 C 
ATOM     18  H   UNL     1      -1.715   1.136   1.216  0.00  0.00    -0.082 HD
ENDBRANCH  14  15
ENDBRANCH   1  14
BRANCH   4  19
ATOM     19  S   UNL     1      -4.631   5.452  -1.593  0.00  0.00    -0.073 S 
BRANCH  19  20
ATOM     20  C   UNL     1      -4.756   4.960  -3.330  0.00  0.00    +0.137 C 
ATOM     21  C   UNL     1      -5.170   3.490  -3.416  0.00  0.00    +0.029 C 
BRANCH  20  22
ATOM     22  C   UNL     1      -5.788   5.814  -4.021  0.00  0.00    +0.233 C 
ATOM     23  O   UNL     1      -6.624   6.401  -3.369  0.00  0.00    -0.274 OA
ATOM     24  N   UNL     1      -5.781   5.924  -5.364  0.00  0.00    -0.239 N 
ATOM     25  C   UNL     1      -6.704   6.688  -5.982  0.00  0.00    +0.306 C 
ATOM     26  O   UNL     1      -7.542   7.276  -5.328  0.00  0.00    -0.252 OA
ATOM     27  N   UNL     1      -6.697   6.799  -7.325  0.00  0.00    -0.296 N 
ATOM     28  H   UNL     1      -5.022   5.392  -5.956  0.00  0.00    +0.159 HD
ATOM     29  H   UNL     1      -5.938   6.266  -7.917  0.00  0.00    +0.151 HD
BRANCH  27  30
ATOM     30  C   UNL     1      -7.700   7.629  -7.997  0.00  0.00    +0.074 C 
ATOM     31  C   UNL     1      -8.974   6.810  -8.218  0.00  0.00    +0.022 C 
ATOM     32  C   UNL     1     -10.022   7.677  -8.919  0.00  0.00    +0.002 C 
ATOM     33  C   UNL     1      -9.475   8.145 -10.270  0.00  0.00    +0.000 C 
ATOM     34  C   UNL     1      -8.201   8.963 -10.049  0.00  0.00    +0.002 C 
ATOM     35  C   UNL     1      -7.154   8.096  -9.348  0.00  0.00    +0.022 C 
ENDBRANCH  27  30
ENDBRANCH  20  22
ENDBRANCH  19  20
ENDBRANCH   4  19
TORSDOF 7
