REMARK  Name = ZINC64436027
REMARK  6 active torsions:
REMARK  status: ('A' for Active; 'I' for Inactive)
REMARK    1  A    between atoms: C_4  and  C_7
REMARK    2  A    between atoms: C_7  and  O_8
REMARK    3  A    between atoms: O_8  and  C_9
REMARK    4  A    between atoms: C_12  and  C_16
REMARK    5  A    between atoms: N_18  and  C_19
REMARK    6  A    between atoms: C_23  and  C_26
REMARK                            x       y       z     vdW  Elec       q    Type
REMARK                         _______ _______ _______ _____ _____    ______ ____
ROOT
ATOM      1  C   UNL     1       5.320  -1.605   1.467  0.00  0.00    +0.183 A 
ATOM      2  C   UNL     1       6.038  -2.002   0.384  0.00  0.00    +0.133 A 
ATOM      3  N   UNL     1       7.213  -2.659   0.535  0.00  0.00    -0.354 N 
ATOM      4  C   UNL     1       7.715  -2.944   1.772  0.00  0.00    +0.106 A 
ATOM      5  C   UNL     1       7.040  -2.573   2.895  0.00  0.00    +0.085 A 
ATOM      6  C   UNL     1       5.812  -1.880   2.765  0.00  0.00    +0.224 A 
ATOM      7  O   UNL     1       5.186  -1.529   3.756  0.00  0.00    -0.284 OA
ATOM      8  H   UNL     1       7.709  -2.932  -0.252  0.00  0.00    +0.166 HD
ENDROOT
BRANCH   4   9
ATOM      9  C   UNL     1       9.003  -3.664   1.893  0.00  0.00    +0.262 C 
ATOM     10  O   UNL     1       9.609  -3.998   0.894  0.00  0.00    -0.269 OA
ATOM     11  N   UNL     1       9.503  -3.949   3.112  0.00  0.00    -0.285 N 
ATOM     12  H   UNL     1       9.019  -3.683   3.909  0.00  0.00    +0.151 HD
BRANCH  11  13
ATOM     13  C   UNL     1      10.777  -4.662   3.232  0.00  0.00    +0.217 C 
ATOM     14  N   UNL     1      11.940  -3.735   3.057  0.00  0.00    -0.226 NA
ATOM     15  N   UNL     1      13.133  -4.312   3.665  0.00  0.00    -0.239 NA
ATOM     16  C   UNL     1      12.874  -4.780   5.056  0.00  0.00    +0.158 C 
ATOM     17  S   UNL     1      11.083  -5.207   4.969  0.00  0.00    -0.099 S 
ATOM     18  H   UNL     1      12.095  -3.530   2.082  0.00  0.00    +0.143 HD
ATOM     19  H   UNL     1      13.504  -5.059   3.096  0.00  0.00    +0.142 HD
BRANCH  16  20
ATOM     20  C   UNL     1      13.718  -6.013   5.387  0.00  0.00    +0.147 C 
ATOM     21  C   UNL     1      13.432  -6.470   6.834  0.00  0.00    +0.036 C 
ATOM     22  C   UNL     1      14.843  -6.883   7.333  0.00  0.00    +0.031 C 
ATOM     23  C   UNL     1      15.732  -5.857   6.587  0.00  0.00    +0.160 C 
ATOM     24  O   UNL     1      15.110  -5.686   5.301  0.00  0.00    -0.374 OA
ENDBRANCH  16  20
ENDBRANCH  11  13
ENDBRANCH   4   9
BRANCH   1  25
ATOM     25  O   UNL     1       4.141  -0.946   1.304  0.00  0.00    -0.482 OA
BRANCH  25  26
ATOM     26  C   UNL     1       3.711  -0.707  -0.038  0.00  0.00    +0.264 C 
BRANCH  26  30
ATOM     27  C   UNL     1      -0.017   1.378   0.010  0.00  0.00    +0.000 A 
ATOM     28  C   UNL     1       1.171   2.086   0.002  0.00  0.00    +0.000 A 
ATOM     29  C   UNL     1       2.377   1.411  -0.013  0.00  0.00    +0.007 A 
ATOM     30  C   UNL     1       2.396   0.029  -0.020  0.00  0.00    -0.010 A 
ATOM     31  C   UNL     1       1.208  -0.679  -0.012  0.00  0.00    +0.007 A 
ATOM     32  C   UNL     1       0.002  -0.004   0.002  0.00  0.00    +0.000 A 
ENDBRANCH  26  30
ENDBRANCH  25  26
ENDBRANCH   1  25
TORSDOF 6
