REMARK  Name = ZINC12551769
REMARK  8 active torsions:
REMARK  status: ('A' for Active; 'I' for Inactive)
REMARK    1  A    between atoms: C_1  and  C_2
REMARK    2  A    between atoms: N_5  and  C_8
REMARK    3  A    between atoms: C_11  and  N_14
REMARK    4  A    between atoms: N_14  and  C_15
REMARK    5  A    between atoms: C_15  and  C_17
REMARK    6  A    between atoms: C_15  and  C_18
REMARK    7  A    between atoms: N_20  and  C_21
REMARK    8  A    between atoms: C_24  and  N_27
REMARK                            x       y       z     vdW  Elec       q    Type
REMARK                         _______ _______ _______ _____ _____    ______ ____
ROOT
ATOM      1  N   UNL     1       2.117  -7.981  -0.056  0.00  0.00    -0.333 N 
ATOM      2  H   UNL     1       1.331  -8.549  -0.054  0.00  0.00    +0.147 HD
ENDROOT
BRANCH   1   6
ATOM      3  C   UNL     1       1.693  -3.839  -0.051  0.00  0.00    +0.014 A 
ATOM      4  C   UNL     1       0.571  -4.647  -0.048  0.00  0.00    +0.023 A 
ATOM      5  C   UNL     1       0.708  -6.021  -0.050  0.00  0.00    +0.025 A 
ATOM      6  C   UNL     1       1.975  -6.592  -0.055  0.00  0.00    +0.028 A 
ATOM      7  C   UNL     1       3.100  -5.777  -0.057  0.00  0.00    +0.025 A 
ATOM      8  C   UNL     1       2.956  -4.403  -0.061  0.00  0.00    +0.023 A 
BRANCH   3  13
ATOM      9  C   UNL     1      -0.027   1.525  -0.031  0.00  0.00    +0.007 C 
ATOM     10  C   UNL     1      -0.005  -0.005  -0.032  0.00  0.00    -0.011 C 
ATOM     11  C   UNL     1       0.714  -0.506  -1.287  0.00  0.00    +0.020 C 
ATOM     12  C   UNL     1       0.803  -2.033  -1.242  0.00  0.00    +0.085 C 
ATOM     13  N   UNL     1       1.551  -2.448  -0.049  0.00  0.00    -0.393 NA
ATOM     14  C   UNL     1       0.830  -2.033   1.160  0.00  0.00    +0.085 C 
ATOM     15  C   UNL     1       0.742  -0.506   1.208  0.00  0.00    +0.020 C 
ATOM     16  H   UNL     1       2.464  -2.019  -0.059  0.00  0.00    +0.126 HD
ENDBRANCH   3  13
ENDBRANCH   1   6
BRANCH   1  17
ATOM     17  C   UNL     1       3.454  -8.581  -0.061  0.00  0.00    +0.154 C 
ATOM     18  C   UNL     1       3.976  -8.675   1.375  0.00  0.00    +0.038 C 
BRANCH  17  19
ATOM     19  C   UNL     1       3.384  -9.961  -0.662  0.00  0.00    +0.237 C 
ATOM     20  O   UNL     1       2.321 -10.400  -1.048  0.00  0.00    -0.273 OA
ATOM     21  N   UNL     1       4.501 -10.706  -0.770  0.00  0.00    -0.284 N 
ATOM     22  H   UNL     1       5.361 -10.331  -0.524  0.00  0.00    +0.155 HD
BRANCH  21  23
ATOM     23  C   UNL     1       4.421 -12.023  -1.238  0.00  0.00    +0.034 A 
ATOM     24  C   UNL     1       5.264 -12.998  -0.720  0.00  0.00    +0.025 A 
ATOM     25  C   UNL     1       5.183 -14.296  -1.184  0.00  0.00    +0.034 A 
ATOM     26  C   UNL     1       4.263 -14.626  -2.163  0.00  0.00    +0.126 A 
ATOM     27  C   UNL     1       3.422 -13.657  -2.680  0.00  0.00    +0.034 A 
ATOM     28  C   UNL     1       3.495 -12.358  -2.216  0.00  0.00    +0.025 A 
BRANCH  26  29
ATOM     29  N   UNL     1       4.178 -16.018  -2.658  0.00  0.00    +0.056 N 
ATOM     30  O   UNL     1       4.913 -16.866  -2.206  0.00  0.00    -0.126 OA
ATOM     31  O   UNL     1       3.375 -16.308  -3.513  0.00  0.00    -0.126 OA
ENDBRANCH  26  29
ENDBRANCH  21  23
ENDBRANCH  17  19
ENDBRANCH   1  17
TORSDOF 6
