REMARK  Name = ZINC21712706
REMARK  14 active torsions:
REMARK  status: ('A' for Active; 'I' for Inactive)
REMARK    1  A    between atoms: C_1  and  C_2
REMARK    2  A    between atoms: C_2  and  C_3
REMARK    3  A    between atoms: C_2  and  C_4
REMARK    4  A    between atoms: C_4  and  C_5
REMARK    5  A    between atoms: C_5  and  N_6
REMARK    6  A    between atoms: C_7  and  C_9
REMARK    7  A    between atoms: C_15  and  C_17
REMARK    8  A    between atoms: C_20  and  N_23
REMARK    9  A    between atoms: N_23  and  S_24
REMARK   10  A    between atoms: S_24  and  C_27
REMARK   11  A    between atoms: C_30  and  C_33
REMARK   12  A    between atoms: C_33  and  C_34
REMARK   13  A    between atoms: C_33  and  C_35
REMARK   14  A    between atoms: C_33  and  C_36
REMARK                            x       y       z     vdW  Elec       q    Type
REMARK                         _______ _______ _______ _____ _____    ______ ____
ROOT
ATOM      1  C   UNL     1      -3.193   9.507  -2.417  0.00  0.00    +0.037 A 
ATOM      2  C   UNL     1      -2.650  10.118  -3.551  0.00  0.00    +0.015 A 
ATOM      3  C   UNL     1      -2.643  11.491  -3.655  0.00  0.00    +0.025 A 
ATOM      4  C   UNL     1      -3.167  12.270  -2.627  0.00  0.00    +0.048 A 
ATOM      5  C   UNL     1      -3.704  11.664  -1.494  0.00  0.00    +0.025 A 
ATOM      6  C   UNL     1      -3.718  10.292  -1.387  0.00  0.00    +0.015 A 
ENDROOT
BRANCH   1  12
ATOM      7  C   UNL     1      -2.723   5.814  -3.362  0.00  0.00    +0.162 C 
ATOM      8  C   UNL     1      -2.361   5.381  -4.798  0.00  0.00    +0.033 C 
ATOM      9  C   UNL     1      -2.878   6.569  -5.657  0.00  0.00    +0.021 C 
ATOM     10  C   UNL     1      -2.593   7.775  -4.727  0.00  0.00    +0.109 C 
ATOM     11  N   UNL     1      -2.871   7.277  -3.368  0.00  0.00    -0.286 N 
ATOM     12  C   UNL     1      -3.206   8.036  -2.306  0.00  0.00    +0.247 C 
ATOM     13  O   UNL     1      -3.520   7.509  -1.256  0.00  0.00    -0.270 OA
BRANCH   7  15
ATOM     14  N   UNL     1      -1.308   4.113  -2.256  0.00  0.00    -0.314 N 
ATOM     15  C   UNL     1      -1.621   5.414  -2.414  0.00  0.00    +0.234 C 
ATOM     16  O   UNL     1      -1.018   6.263  -1.793  0.00  0.00    -0.274 OA
ATOM     17  H   UNL     1      -1.855   3.343  -2.818  0.00  0.00    +0.149 HD
BRANCH  14  18
ATOM     18  C   UNL     1      -0.237   3.724  -1.334  0.00  0.00    +0.104 C 
BRANCH  18  19
ATOM     19  C   UNL     1      -0.085   2.202  -1.341  0.00  0.00    +0.022 C 
BRANCH  19  21
ATOM     20  C   UNL     1       1.101   0.270  -0.292  0.00  0.00    +0.007 C 
ATOM     21  C   UNL     1       1.032   1.796  -0.379  0.00  0.00    -0.016 C 
ATOM     22  C   UNL     1       2.368   2.339  -0.891  0.00  0.00    +0.007 C 
ENDBRANCH  19  21
ENDBRANCH  18  19
ENDBRANCH  14  18
ENDBRANCH   7  15
ENDBRANCH   1  12
BRANCH   4  23
ATOM     23  N   UNL     1      -3.155  13.656  -2.732  0.00  0.00    -0.216 N 
ATOM     24  H   UNL     1      -4.060  14.235  -2.493  0.00  0.00    +0.174 HD
BRANCH  23  25
ATOM     25  S   UNL     1      -1.777  14.438  -3.217  0.00  0.00    +0.072 S 
ATOM     26  O   UNL     1      -1.322  13.770  -4.386  0.00  0.00    -0.150 OA
ATOM     27  O   UNL     1      -2.071  15.828  -3.199  0.00  0.00    -0.150 OA
BRANCH  25  28
ATOM     28  C   UNL     1      -0.559  14.164  -1.974  0.00  0.00    +0.109 A 
ATOM     29  C   UNL     1      -0.505  14.988  -0.865  0.00  0.00    +0.029 A 
ATOM     30  C   UNL     1       0.448  14.771   0.112  0.00  0.00    +0.006 A 
ATOM     31  C   UNL     1       1.354  13.735  -0.024  0.00  0.00    -0.042 A 
ATOM     32  C   UNL     1       1.304  12.915  -1.135  0.00  0.00    +0.006 A 
ATOM     33  C   UNL     1       0.348  13.129  -2.110  0.00  0.00    +0.029 A 
BRANCH  31  34
ATOM     34  C   UNL     1       2.395  13.501   1.040  0.00  0.00    -0.013 C 
ATOM     35  C   UNL     1       3.790  13.627   0.424  0.00  0.00    +0.015 C 
ATOM     36  C   UNL     1       2.233  14.540   2.151  0.00  0.00    +0.015 C 
ATOM     37  C   UNL     1       2.221  12.098   1.624  0.00  0.00    +0.015 C 
ENDBRANCH  31  34
ENDBRANCH  25  28
ENDBRANCH  23  25
ENDBRANCH   4  23
TORSDOF 9
