REMARK  Name = ZINC19874184
REMARK  0 active torsions:
REMARK  status: ('A' for Active; 'I' for Inactive)
REMARK                            x       y       z     vdW  Elec       q    Type
REMARK                         _______ _______ _______ _____ _____    ______ ____
ROOT
ATOM      1  C   UNL     1      -4.077  -0.336   0.056  0.00  0.00    +0.208 A 
ATOM      2  N   UNL     1      -2.875   0.141   0.063  0.00  0.00    -0.235 NA
ATOM      3  C   UNL     1      -2.612   1.488   0.022  0.00  0.00    +0.093 A 
ATOM      4  C   UNL     1      -1.288   2.138   0.031  0.00  0.00    +0.037 A 
ATOM      5  C   UNL     1      -0.019   1.501   0.071  0.00  0.00    -0.029 A 
ATOM      6  C   UNL     1       1.106   2.260   0.064  0.00  0.00    -0.004 A 
ATOM      7  C   UNL     1       1.003   3.658   0.019  0.00  0.00    +0.126 A 
ATOM      8  N   UNL     1      -0.179   4.248  -0.022  0.00  0.00    -0.225 NA
ATOM      9  C   UNL     1      -1.290   3.541  -0.021  0.00  0.00    +0.113 A 
ATOM     10  S   UNL     1      -3.012   3.971  -0.069  0.00  0.00    -0.063 S 
ATOM     11  C   UNL     1      -3.709   2.342  -0.029  0.00  0.00    +0.085 A 
ATOM     12  C   UNL     1      -5.019   1.837  -0.039  0.00  0.00    +0.179 A 
ATOM     13  N   UNL     1      -5.182   0.462   0.005  0.00  0.00    -0.259 N 
ATOM     14  C   UNL     1      -6.527   0.249  -0.016  0.00  0.00    +0.208 A 
ATOM     15  N   UNL     1      -7.109   1.426  -0.069  0.00  0.00    -0.121 NA
ATOM     16  N   UNL     1      -6.225   2.361  -0.083  0.00  0.00    -0.127 NA
ATOM     17  S   UNL     1      -7.337  -1.315   0.022  0.00  0.00    -0.009 SA
ATOM     18  N   UNL     1       2.157   4.431   0.016  0.00  0.00    -0.311 N 
ATOM     19  C   UNL     1       2.208   5.306   1.197  0.00  0.00    +0.134 C 
ATOM     20  C   UNL     1       3.520   6.095   1.185  0.00  0.00    +0.178 C 
ATOM     21  O   UNL     1       3.617   6.830  -0.038  0.00  0.00    -0.377 OA
ATOM     22  C   UNL     1       3.572   6.009  -1.208  0.00  0.00    +0.178 C 
ATOM     23  C   UNL     1       2.261   5.219  -1.220  0.00  0.00    +0.134 C 
ATOM     24  C   UNL     1       2.488   1.660   0.100  0.00  0.00    +0.039 C 
ATOM     25  C   UNL     1       2.432   0.210   0.576  0.00  0.00    +0.005 C 
ATOM     26  C   UNL     1       1.382  -0.533  -0.259  0.00  0.00    +0.005 C 
ATOM     27  C   UNL     1       0.001  -0.002   0.125  0.00  0.00    +0.036 C 
ENDROOT
TORSDOF 0
