REMARK  Name = ZINC42866317
REMARK  5 active torsions:
REMARK  status: ('A' for Active; 'I' for Inactive)
REMARK    1  A    between atoms: C_1  and  C_2
REMARK    2  A    between atoms: C_9  and  C_11
REMARK    3  A    between atoms: C_11  and  N_12
REMARK    4  A    between atoms: N_20  and  C_21
REMARK    5  A    between atoms: C_21  and  C_22
REMARK                            x       y       z     vdW  Elec       q    Type
REMARK                         _______ _______ _______ _____ _____    ______ ____
ROOT
ATOM      1  N   UNL     1       2.621   0.984   3.986  0.00  0.00    +0.387 N 
ATOM      2  C   UNL     1       3.396   1.962   3.213  0.00  0.00    -0.059 C 
ATOM      3  C   UNL     1       3.698   3.182   4.090  0.00  0.00    +0.091 C 
ATOM      4  N   UNL     1       4.358   2.720   5.320  0.00  0.00    -0.289 N 
ATOM      5  C   UNL     1       3.731   1.624   6.075  0.00  0.00    +0.091 C 
ATOM      6  C   UNL     1       3.428   0.477   5.104  0.00  0.00    -0.059 C 
ATOM      7  C   UNL     1       5.506   3.284   5.744  0.00  0.00    +0.302 C 
ATOM      8  O   UNL     1       5.963   4.247   5.159  0.00  0.00    -0.253 OA
ATOM      9  N   UNL     1       6.149   2.781   6.817  0.00  0.00    -0.297 N 
ATOM     10  H   UNL     1       5.748   2.061   7.328  0.00  0.00    +0.150 HD
ATOM     11  H   UNL     1       1.789   1.427   4.347  0.00  0.00    -0.081 HD
ENDROOT
BRANCH   1  12
ATOM     12  C   UNL     1       2.238  -0.135   3.115  0.00  0.00    +0.019 C 
BRANCH  12  20
ATOM     13  C   UNL     1       0.014   1.526  -0.010  0.00  0.00    +0.028 C 
ATOM     14  C   UNL     1       0.023  -0.004  -0.013  0.00  0.00    +0.073 C 
ATOM     15  C   UNL     1       0.641  -0.511  -1.319  0.00  0.00    +0.022 C 
ATOM     16  C   UNL     1       0.776  -2.035  -1.258  0.00  0.00    +0.003 C 
ATOM     17  C   UNL     1       1.703  -2.420  -0.103  0.00  0.00    +0.019 C 
ATOM     18  C   UNL     1       1.096  -1.935   1.218  0.00  0.00    +0.108 C 
ATOM     19  N   UNL     1       0.827  -0.493   1.115  0.00  0.00    -0.300 N 
ATOM     20  C   UNL     1       1.310   0.363   2.037  0.00  0.00    +0.199 C 
ATOM     21  O   UNL     1       0.998   1.534   1.999  0.00  0.00    -0.278 OA
ENDBRANCH  12  20
ENDBRANCH   1  12
BRANCH   9  22
ATOM     22  C   UNL     1       7.452   3.322   7.211  0.00  0.00    +0.137 C 
BRANCH  22  23
ATOM     23  C   UNL     1       7.958   2.582   8.450  0.00  0.00    +0.135 C 
ATOM     24  C   UNL     1       9.272   3.224   8.945  0.00  0.00    +0.035 C 
ATOM     25  C   UNL     1      10.107   1.985   9.368  0.00  0.00    +0.031 C 
ATOM     26  C   UNL     1       9.637   0.943   8.321  0.00  0.00    +0.160 C 
ATOM     27  O   UNL     1       8.240   1.217   8.119  0.00  0.00    -0.375 OA
ENDBRANCH  22  23
ENDBRANCH   9  22
TORSDOF 4
