REMARK  Name = ZINC08887137
REMARK  7 active torsions:
REMARK  status: ('A' for Active; 'I' for Inactive)
REMARK    1  A    between atoms: C_1  and  C_2
REMARK    2  A    between atoms: C_2  and  C_22
REMARK    3  A    between atoms: N_5  and  C_9
REMARK    4  A    between atoms: C_9  and  C_10
REMARK    5  A    between atoms: N_12  and  C_13
REMARK    6  A    between atoms: N_12  and  C_14
REMARK    7  A    between atoms: C_14  and  C_15
REMARK                            x       y       z     vdW  Elec       q    Type
REMARK                         _______ _______ _______ _____ _____    ______ ____
ROOT
ATOM      1  C   UNL     1      -5.410   0.796   1.494  0.00  0.00    +0.047 C 
ATOM      2  C   UNL     1      -4.940   1.037   0.058  0.00  0.00    +0.135 C 
ATOM      3  C   UNL     1      -5.989   1.799  -0.729  0.00  0.00    +0.251 C 
ATOM      4  O   UNL     1      -6.416   2.909  -0.496  0.00  0.00    -0.272 OA
ATOM      5  N   UNL     1      -6.350   0.984  -1.740  0.00  0.00    -0.215 N 
ATOM      6  C   UNL     1      -5.681  -0.175  -1.702  0.00  0.00    +0.310 C 
ATOM      7  O   UNL     1      -5.835  -1.070  -2.509  0.00  0.00    -0.252 OA
ATOM      8  N   UNL     1      -4.821  -0.238  -0.670  0.00  0.00    -0.281 N 
ATOM      9  H   UNL     1      -4.235  -0.979  -0.448  0.00  0.00    +0.152 HD
ENDROOT
BRANCH   2  10
ATOM     10  C   UNL     1      -3.628   1.779   0.048  0.00  0.00    -0.015 A 
ATOM     11  C   UNL     1      -3.627   3.172   0.055  0.00  0.00    +0.007 A 
ATOM     12  C   UNL     1      -2.460   3.873   0.047  0.00  0.00    +0.009 A 
ATOM     13  C   UNL     1      -1.236   3.183   0.031  0.00  0.00    -0.018 A 
ATOM     14  C   UNL     1      -0.011   3.871   0.023  0.00  0.00    +0.008 A 
ATOM     15  C   UNL     1       1.155   3.170   0.008  0.00  0.00    +0.001 A 
ATOM     16  C   UNL     1       1.155   1.776   0.001  0.00  0.00    +0.001 A 
ATOM     17  C   UNL     1      -0.013   1.076   0.008  0.00  0.00    +0.008 A 
ATOM     18  C   UNL     1      -1.237   1.766   0.018  0.00  0.00    -0.018 A 
ATOM     19  C   UNL     1      -2.462   1.077   0.032  0.00  0.00    +0.014 A 
ENDBRANCH   2  10
BRANCH   5  20
ATOM     20  C   UNL     1      -7.350   1.324  -2.754  0.00  0.00    +0.213 C 
BRANCH  20  21
ATOM     21  C   UNL     1      -8.712   0.879  -2.285  0.00  0.00    +0.234 C 
ATOM     22  O   UNL     1      -8.834   0.332  -1.210  0.00  0.00    -0.274 OA
ATOM     23  N   UNL     1      -9.794   1.089  -3.062  0.00  0.00    -0.299 N 
ATOM     24  C   UNL     1      -9.646   1.750  -4.361  0.00  0.00    +0.132 C 
BRANCH  23  25
ATOM     25  C   UNL     1     -11.117   0.657  -2.606  0.00  0.00    +0.142 C 
BRANCH  25  26
ATOM     26  C   UNL     1     -11.770   1.771  -1.830  0.00  0.00    -0.030 A 
ATOM     27  C   UNL     1     -11.589   1.859  -0.463  0.00  0.00    +0.006 A 
ATOM     28  C   UNL     1     -12.184   2.884   0.249  0.00  0.00    +0.015 A 
ATOM     29  C   UNL     1     -12.969   3.816  -0.406  0.00  0.00    +0.018 A 
ATOM     30  C   UNL     1     -13.154   3.724  -1.774  0.00  0.00    +0.015 A 
ATOM     31  C   UNL     1     -12.555   2.702  -2.485  0.00  0.00    +0.006 A 
ATOM     32 BR   UNL     1     -13.790   5.214   0.568  0.00  0.00    -0.050 Br
ENDBRANCH  25  26
ENDBRANCH  23  25
ENDBRANCH  20  21
ENDBRANCH   5  20
TORSDOF 5
