REMARK  Name = ZINC12652657
REMARK  6 active torsions:
REMARK  status: ('A' for Active; 'I' for Inactive)
REMARK    1  A    between atoms: N_7  and  C1*_10
REMARK    2  A    between atoms: C2*_12  and  O2*_22
REMARK    3  A    between atoms: C3*_14  and  O3*_21
REMARK    4  A    between atoms: C4*_16  and  C5*_19
REMARK    5  A    between atoms: C5*_19  and  O5*_20
REMARK    6  A    between atoms: N_23  and  C_24
REMARK                            x       y       z     vdW  Elec       q    Type
REMARK                         _______ _______ _______ _____ _____    ______ ____
ROOT
ATOM      1  C   UNL     1      -3.848  -1.337   2.134  0.00  0.00    +0.225 A 
ATOM      2  N   UNL     1      -5.076  -0.872   1.992  0.00  0.00    -0.219 NA
ATOM      3  C   UNL     1      -5.298   0.390   1.639  0.00  0.00    +0.150 A 
ATOM      4  C   UNL     1      -4.192   1.228   1.419  0.00  0.00    +0.147 A 
ATOM      5  C   UNL     1      -2.906   0.686   1.584  0.00  0.00    +0.167 A 
ATOM      6  N   UNL     1      -2.783  -0.588   1.940  0.00  0.00    -0.216 NA
ATOM      7  N   UNL     1      -2.029   1.705   1.312  0.00  0.00    -0.286 N 
ATOM      8  C   UNL     1      -2.767   2.809   1.003  0.00  0.00    +0.203 A 
ATOM      9  N   UNL     1      -4.036   2.525   1.062  0.00  0.00    -0.231 NA
ATOM     10  N   UNL     1      -6.588   0.867   1.492  0.00  0.00    -0.324 N 
ATOM     11  H   UNL     1      -6.739   1.624   2.127  0.00  0.00    +0.148 HD
ENDROOT
BRANCH  10  12
ATOM     12  C   UNL     1      -7.729  -0.022   1.725  0.00  0.00    +0.072 C 
ATOM     13  C   UNL     1      -8.031  -0.810   0.448  0.00  0.00    +0.022 C 
ATOM     14  C   UNL     1      -9.223  -1.738   0.692  0.00  0.00    +0.002 C 
ATOM     15  C   UNL     1     -10.447  -0.906   1.079  0.00  0.00    +0.000 C 
ATOM     16  C   UNL     1     -10.145  -0.118   2.356  0.00  0.00    +0.002 C 
ATOM     17  C   UNL     1      -8.954   0.810   2.112  0.00  0.00    +0.022 C 
ENDBRANCH  10  12
BRANCH   7  18
ATOM     18  C1* UNL     1      -0.566   1.624   1.352  0.00  0.00    +0.253 C 
ATOM     19  C2* UNL     1      -0.013   1.086   0.008  0.00  0.00    +0.195 C 
ATOM     20  C3* UNL     1       1.426   1.658  -0.003  0.00  0.00    +0.178 C 
ATOM     21  C4* UNL     1       1.369   2.841   0.983  0.00  0.00    +0.177 C 
ATOM     22  O4* UNL     1       0.014   2.942   1.451  0.00  0.00    -0.346 OA
BRANCH  20  23
ATOM     23  O3* UNL     1       2.358   0.674   0.450  0.00  0.00    -0.386 OA
ATOM     24  H3* UNL     1       3.276   0.979   0.463  0.00  0.00    +0.210 HD
ENDBRANCH  20  23
BRANCH  19  25
ATOM     25  O2* UNL     1      -0.770   1.589  -1.094  0.00  0.00    -0.385 OA
ATOM     26  H2* UNL     1      -0.434   1.317  -1.959  0.00  0.00    +0.210 HD
ENDBRANCH  19  25
BRANCH  21  27
ATOM     27  C5* UNL     1       1.774   4.133   0.269  0.00  0.00    +0.190 C 
BRANCH  27  28
ATOM     28  O5* UNL     1       1.831   5.202   1.216  0.00  0.00    -0.392 OA
ATOM     29  H5* UNL     1       2.083   6.053   0.832  0.00  0.00    +0.210 HD
ENDBRANCH  27  28
ENDBRANCH  21  27
ENDBRANCH   7  18
TORSDOF 6
