REMARK  Name = ZINC06671691
REMARK  5 active torsions:
REMARK  status: ('A' for Active; 'I' for Inactive)
REMARK    1  A    between atoms: C_1  and  O_2
REMARK    2  A    between atoms: O_2  and  C_3
REMARK    3  A    between atoms: C_3  and  C_5
REMARK    4  A    between atoms: C_5  and  C_22
REMARK    5  A    between atoms: C_9  and  N_19
REMARK                            x       y       z     vdW  Elec       q    Type
REMARK                         _______ _______ _______ _____ _____    ______ ____
ROOT
ATOM      1  C   UNL     1      -1.244  -2.135   0.003  0.00  0.00    +0.190 C 
ATOM      2  C   UNL     1      -0.570  -2.668  -1.262  0.00  0.00    +0.068 C 
ATOM      3  C   UNL     1      -1.371  -2.374  -2.501  0.00  0.00    -0.023 A 
ATOM      4  C   UNL     1      -0.745  -2.413  -3.736  0.00  0.00    +0.038 A 
ATOM      5  C   UNL     1      -1.460  -2.156  -4.889  0.00  0.00    +0.127 A 
ATOM      6  C   UNL     1      -2.809  -1.859  -4.825  0.00  0.00    +0.034 A 
ATOM      7  C   UNL     1      -3.444  -1.813  -3.598  0.00  0.00    +0.025 A 
ATOM      8  C   UNL     1      -2.726  -2.065  -2.441  0.00  0.00    +0.033 A 
ATOM      9  N   UNL     1      -3.333  -2.000  -1.187  0.00  0.00    -0.325 N 
ATOM     10  C   UNL     1      -2.705  -2.592   0.014  0.00  0.00    +0.102 C 
ATOM     11  C   UNL     1      -3.461  -2.016   1.223  0.00  0.00    +0.025 C 
ATOM     12  C   UNL     1      -4.885  -1.797   0.639  0.00  0.00    +0.021 C 
ATOM     13  C   UNL     1      -4.569  -1.319  -0.801  0.00  0.00    +0.105 C 
ENDROOT
BRANCH   5  14
ATOM     14  N   UNL     1      -0.779  -2.200  -6.202  0.00  0.00    +0.056 N 
ATOM     15  O   UNL     1       0.400  -2.461  -6.263  0.00  0.00    -0.126 OA
ATOM     16  O   UNL     1      -1.401  -1.976  -7.214  0.00  0.00    -0.126 OA
ENDBRANCH   5  14
BRANCH   1  17
ATOM     17  C   UNL     1      -0.537  -2.674   1.220  0.00  0.00    +0.375 C 
ATOM     18  O   UNL     1      -0.032  -1.907   2.021  0.00  0.00    -0.245 OA
ATOM     19  O   UNL     1      -0.471  -3.878   1.403  0.00  0.00    -0.245 OA
ENDBRANCH   1  17
BRANCH   1  20
ATOM     20  C   UNL     1      -1.185  -0.630   0.010  0.00  0.00    +0.326 C 
ATOM     21  O   UNL     1      -2.208   0.015   0.023  0.00  0.00    -0.250 OA
BRANCH  20  23
ATOM     22  C   UNL     1      -0.017   1.425   0.010  0.00  0.00    +0.280 C 
ATOM     23  O   UNL     1       0.002  -0.004   0.002  0.00  0.00    -0.467 OA
ENDBRANCH  20  23
ENDBRANCH   1  20
TORSDOF 4
