REMARK  Name = ZINC21247485
REMARK  18 active torsions:
REMARK  status: ('A' for Active; 'I' for Inactive)
REMARK    1  A    between atoms: C_1  and  C_2
REMARK    2  A    between atoms: C_2  and  C_3
REMARK    3  A    between atoms: C_3  and  O_4
REMARK    4  A    between atoms: O_4  and  C_5
REMARK    5  A    between atoms: C_6  and  O_33
REMARK    6  A    between atoms: C_8  and  C_12
REMARK    7  A    between atoms: N_14  and  C_15
REMARK    8  A    between atoms: N_14  and  C_19
REMARK    9  A    between atoms: C_15  and  C_16
REMARK   10  A    between atoms: C_16  and  C_17
REMARK   11  A    between atoms: C_16  and  C_18
REMARK   12  A    between atoms: C_20  and  N_32
REMARK   13  A    between atoms: N_21  and  C_28
REMARK   14  A    between atoms: C_28  and  C_29
REMARK   15  A    between atoms: C_29  and  C_30
REMARK   16  A    between atoms: C_29  and  C_31
REMARK   17  A    between atoms: O_33  and  C_34
REMARK   18  A    between atoms: C_34  and  C_35
REMARK                            x       y       z     vdW  Elec       q    Type
REMARK                         _______ _______ _______ _____ _____    ______ ____
ROOT
ATOM      1  C   UNL     1      -0.359  -2.372   3.806  0.00  0.00    +0.251 C 
ATOM      2  O   UNL     1      -0.994  -3.095   4.550  0.00  0.00    -0.270 OA
ATOM      3  N   UNL     1       0.400  -2.910   2.830  0.00  0.00    -0.260 N 
ENDROOT
BRANCH   3   4
ATOM      4  C   UNL     1       1.056  -2.072   1.905  0.00  0.00    +0.140 A 
ATOM      5  C   UNL     1       0.759  -2.144   0.559  0.00  0.00    +0.127 A 
ATOM      6  N   UNL     1       1.416  -1.314  -0.319  0.00  0.00    -0.280 N 
ATOM      7  C   UNL     1       2.341  -0.445   0.128  0.00  0.00    +0.331 A 
ATOM      8  O   UNL     1       2.915   0.276  -0.665  0.00  0.00    -0.246 OA
ATOM      9  N   UNL     1       2.640  -0.357   1.436  0.00  0.00    -0.273 N 
ATOM     10  H   UNL     1       3.394   0.366   1.781  0.00  0.00    +0.173 HD
ATOM     11  C   UNL     1       2.026  -1.148   2.338  0.00  0.00    +0.277 A 
ATOM     12  O   UNL     1       2.308  -1.063   3.521  0.00  0.00    -0.266 OA
BRANCH   5  13
ATOM     13  N   UNL     1      -0.182  -3.035   0.102  0.00  0.00    -0.343 N 
ATOM     14  H   UNL     1      -0.414  -3.087  -0.972  0.00  0.00    +0.144 HD
ATOM     15  H   UNL     1      -0.703  -3.697   0.810  0.00  0.00    +0.144 HD
ENDBRANCH   5  13
BRANCH   6  16
ATOM     16  C   UNL     1       1.110  -1.379  -1.750  0.00  0.00    +0.131 C 
BRANCH  16  17
ATOM     17  C   UNL     1      -0.024  -0.405  -2.075  0.00  0.00    +0.003 C 
ATOM     18  C   UNL     1       0.448   1.029  -1.827  0.00  0.00    +0.009 C 
ATOM     19  C   UNL     1      -0.428  -0.563  -3.542  0.00  0.00    +0.009 C 
ENDBRANCH  16  17
ENDBRANCH   6  16
ENDBRANCH   3   4
BRANCH   1  23
ATOM     20  C   UNL     1      -0.529   1.849   4.278  0.00  0.00    +0.180 A 
ATOM     21  C   UNL     1      -0.691   1.019   5.387  0.00  0.00    +0.164 A 
ATOM     22  C   UNL     1      -0.636  -0.353   5.236  0.00  0.00    +0.062 A 
ATOM     23  C   UNL     1      -0.418  -0.907   3.972  0.00  0.00    +0.042 A 
ATOM     24  C   UNL     1      -0.251  -0.070   2.866  0.00  0.00    +0.037 A 
ATOM     25  C   UNL     1      -0.313   1.299   3.021  0.00  0.00    +0.087 A 
ATOM     26 CL   UNL     1      -0.113   2.337   1.645  0.00  0.00    -0.080 Cl
BRANCH  20  27
ATOM     27  O   UNL     1      -0.584   3.198   4.428  0.00  0.00    -0.487 OA
BRANCH  27  28
ATOM     28  C   UNL     1       0.647   3.870   4.704  0.00  0.00    +0.229 C 
BRANCH  28  30
ATOM     29  C   UNL     1       1.705   6.092   5.134  0.00  0.00    +0.007 C 
ATOM     30  C   UNL     1       0.388   5.372   4.838  0.00  0.00    +0.038 C 
ENDBRANCH  28  30
ENDBRANCH  27  28
ENDBRANCH  20  27
BRANCH  21  31
ATOM     31  O   UNL     1      -0.902   1.560   6.616  0.00  0.00    -0.489 OA
BRANCH  31  32
ATOM     32  C   UNL     1      -1.058   0.651   7.707  0.00  0.00    +0.226 C 
ATOM     33  C   UNL     1      -1.285   1.438   8.999  0.00  0.00    +0.048 C 
ENDBRANCH  31  32
ENDBRANCH  21  31
ENDBRANCH   1  23
BRANCH   3  34
ATOM     34  C   UNL     1       0.543  -4.364   2.731  0.00  0.00    +0.117 C 
BRANCH  34  35
ATOM     35  C   UNL     1       1.821  -4.802   3.449  0.00  0.00    +0.001 C 
ATOM     36  C   UNL     1       1.686  -4.523   4.947  0.00  0.00    +0.009 C 
ATOM     37  C   UNL     1       2.044  -6.299   3.227  0.00  0.00    +0.009 C 
ENDBRANCH  34  35
ENDBRANCH   3  34
TORSDOF 12
