REMARK  Name = ZINC27832012
REMARK  11 active torsions:
REMARK  status: ('A' for Active; 'I' for Inactive)
REMARK    1  A    between atoms: C_1  and  C_2
REMARK    2  A    between atoms: C_2  and  C_3
REMARK    3  A    between atoms: C_2  and  C_4
REMARK    4  A    between atoms: C_4  and  O_32
REMARK    5  A    between atoms: C_6  and  O_31
REMARK    6  A    between atoms: C_8  and  C_30
REMARK    7  A    between atoms: C_11  and  O_20
REMARK    8  A    between atoms: C_14  and  C_19
REMARK    9  A    between atoms: O_20  and  C_21
REMARK   10  A    between atoms: C_21  and  C_23
REMARK   11  A    between atoms: C_26  and  O_29
REMARK                            x       y       z     vdW  Elec       q    Type
REMARK                         _______ _______ _______ _____ _____    ______ ____
ROOT
ATOM      1  C   UNL     1       2.705   0.607   0.602  0.00  0.00    +0.077 C 
ATOM      2  C   UNL     1       2.239   1.808   1.454  0.00  0.00    +0.067 C 
ATOM      3  C   UNL     1       0.855   2.216   0.919  0.00  0.00    +0.124 C 
ATOM      4  C   UNL     1       0.440   1.105  -0.096  0.00  0.00    +0.005 C 
ATOM      5  C   UNL     1       1.776   0.603  -0.625  0.00  0.00    +0.070 C 
ATOM      6  C   UNL     1       1.653  -0.745  -1.275  0.00  0.00    +0.186 C 
ATOM      7  C   UNL     1       1.405  -0.865  -2.734  0.00  0.00    +0.082 C 
ATOM      8  C   UNL     1       0.044  -0.160  -2.956  0.00  0.00    +0.097 C 
ATOM      9  C   UNL     1       0.192   1.278  -2.534  0.00  0.00    +0.151 C 
ATOM     10  C   UNL     1      -0.249   1.926  -1.268  0.00  0.00    +0.044 C 
ATOM     11  O   UNL     1      -0.269   0.929  -3.773  0.00  0.00    -0.365 OA
ATOM     12  C   UNL     1      -1.171  -0.983  -2.535  0.00  0.00    +0.044 C 
ATOM     13  C   UNL     1      -0.496   0.089   0.564  0.00  0.00    +0.014 C 
ENDROOT
BRANCH   1  15
ATOM     14  C   UNL     1       3.840  -0.854   2.281  0.00  0.00    +0.010 C 
ATOM     15  C   UNL     1       2.575  -0.664   1.443  0.00  0.00    +0.015 C 
ATOM     16  C   UNL     1       1.363  -0.541   2.369  0.00  0.00    +0.010 C 
ENDBRANCH   1  15
BRANCH   3  17
ATOM     17  O   UNL     1      -0.112   2.286   1.978  0.00  0.00    -0.391 OA
ATOM     18  H   UNL     1      -1.153   2.565   1.755  0.00  0.00    +0.210 HD
ENDBRANCH   3  17
BRANCH   1  19
ATOM     19  O   UNL     1       4.061   0.794   0.191  0.00  0.00    -0.388 OA
ATOM     20  H   UNL     1       4.335   1.664  -0.424  0.00  0.00    +0.210 HD
ENDBRANCH   1  19
BRANCH   6  21
ATOM     21  O   UNL     1       2.958  -1.411  -1.124  0.00  0.00    -0.457 OA
BRANCH  21  22
ATOM     22  C   UNL     1       2.944  -2.736  -0.881  0.00  0.00    +0.339 C 
ATOM     23  O   UNL     1       1.886  -3.327  -0.795  0.00  0.00    -0.245 OA
BRANCH  22  24
ATOM     24  C   UNL     1       4.213  -3.470  -0.719  0.00  0.00    +0.059 A 
ATOM     25  C   UNL     1       5.432  -2.793  -0.823  0.00  0.00    +0.018 A 
ATOM     26  C   UNL     1       6.614  -3.480  -0.665  0.00  0.00    +0.046 A 
ATOM     27  C   UNL     1       6.598  -4.848  -0.414  0.00  0.00    +0.117 A 
ATOM     28  C   UNL     1       5.388  -5.525  -0.315  0.00  0.00    +0.046 A 
ATOM     29  C   UNL     1       4.201  -4.845  -0.466  0.00  0.00    +0.018 A 
BRANCH  27  30
ATOM     30  O   UNL     1       7.765  -5.522  -0.264  0.00  0.00    -0.507 OA
ATOM     31  H   UNL     1       7.754  -6.604  -0.066  0.00  0.00    +0.292 HD
ENDBRANCH  27  30
ENDBRANCH  22  24
ENDBRANCH  21  22
ENDBRANCH   6  21
TORSDOF 7
