REMARK  Name = ZINC64002732
REMARK  4 active torsions:
REMARK  status: ('A' for Active; 'I' for Inactive)
REMARK    1  A    between atoms: C_10  and  C_11
REMARK    2  A    between atoms: C_11  and  C_13
REMARK    3  A    between atoms: C_13  and  N_14
REMARK    4  A    between atoms: C_17  and  C_20
REMARK                            x       y       z     vdW  Elec       q    Type
REMARK                         _______ _______ _______ _____ _____    ______ ____
ROOT
ATOM      1  C   UNL     1      -1.267  -0.746   0.010  0.00  0.00    +0.177 C 
ATOM      2  O   UNL     1      -1.261  -1.959   0.004  0.00  0.00    -0.291 OA
ENDROOT
BRANCH   1  12
ATOM      3  C   UNL     1      -0.018   1.463   0.010  0.00  0.00    +0.013 A 
ATOM      4  C   UNL     1       1.118   2.194   0.003  0.00  0.00    +0.026 A 
ATOM      5  C   UNL     1       2.378   1.561  -0.012  0.00  0.00    +0.056 A 
ATOM      6  N   UNL     1       3.623   1.990  -0.022  0.00  0.00    -0.268 N 
ATOM      7  C   UNL     1       4.453   0.907  -0.036  0.00  0.00    +0.308 C 
ATOM      8  O   UNL     1       5.665   0.957  -0.047  0.00  0.00    -0.252 OA
ATOM      9  N   UNL     1       3.706  -0.256  -0.035  0.00  0.00    -0.268 N 
ATOM     10  C   UNL     1       2.442   0.067  -0.021  0.00  0.00    +0.057 A 
ATOM     11  C   UNL     1       1.184  -0.691  -0.013  0.00  0.00    +0.036 A 
ATOM     12  C   UNL     1       0.002  -0.004   0.002  0.00  0.00    +0.021 A 
ATOM     13  H   UNL     1       4.061  -1.159  -0.044  0.00  0.00    +0.156 HD
ATOM     14  H   UNL     1       3.903   2.919  -0.020  0.00  0.00    +0.156 HD
ENDBRANCH   1  12
BRANCH   1  15
ATOM     15  C   UNL     1      -2.576  -0.000   0.027  0.00  0.00    +0.164 C 
BRANCH  15  16
ATOM     16  N   UNL     1      -3.688  -0.961   0.032  0.00  0.00    -0.295 NA
ATOM     17  C   UNL     1      -3.706  -1.737   1.279  0.00  0.00    +0.085 C 
ATOM     18  C   UNL     1      -4.782  -2.822   1.189  0.00  0.00    +0.028 C 
ATOM     19  C   UNL     1      -6.145  -2.166   0.955  0.00  0.00    +0.077 C 
ATOM     20  C   UNL     1      -6.084  -1.325  -0.323  0.00  0.00    +0.028 C 
ATOM     21  C   UNL     1      -4.971  -0.283  -0.190  0.00  0.00    +0.085 C 
BRANCH  19  22
ATOM     22  C   UNL     1      -7.199  -3.232   0.806  0.00  0.00    +0.214 C 
ATOM     23  O   UNL     1      -6.891  -4.403   0.880  0.00  0.00    -0.276 OA
ATOM     24  N   UNL     1      -8.483  -2.885   0.591  0.00  0.00    -0.329 N 
ATOM     25  H   UNL     1      -8.729  -1.949   0.532  0.00  0.00    +0.145 HD
ATOM     26  H   UNL     1      -9.162  -3.572   0.496  0.00  0.00    +0.145 HD
ENDBRANCH  19  22
ENDBRANCH  15  16
ENDBRANCH   1  15
TORSDOF 4
