REMARK  Name = ZINC13995329
REMARK  8 active torsions:
REMARK  status: ('A' for Active; 'I' for Inactive)
REMARK    1  A    between atoms: C_1  and  C_2
REMARK    2  A    between atoms: C_5  and  N_8
REMARK    3  A    between atoms: C_13  and  C_33
REMARK    4  A    between atoms: C_16  and  C_22
REMARK    5  A    between atoms: C_19  and  C_21
REMARK    6  A    between atoms: C_25  and  O_28
REMARK    7  A    between atoms: O_28  and  C_29
REMARK    8  A    between atoms: C_29  and  C_30
REMARK                            x       y       z     vdW  Elec       q    Type
REMARK                         _______ _______ _______ _____ _____    ______ ____
ROOT
ATOM      1  N   UNL     1       0.126  -4.115  -0.184  0.00  0.00    -0.206 N 
ATOM      2  C   UNL     1       0.019  -4.912   0.950  0.00  0.00    +0.141 C 
ATOM      3  N   UNL     1       0.052  -4.392   2.151  0.00  0.00    -0.163 NA
ATOM      4  C   UNL     1      -0.013  -4.827   3.355  0.00  0.00    +0.251 C 
ATOM      5  O   UNL     1       0.124  -3.980   4.216  0.00  0.00    -0.272 OA
ATOM      6  C   UNL     1      -0.229  -6.200   3.856  0.00  0.00    +0.132 C 
ATOM      7  S   UNL     1       0.598  -7.453   2.866  0.00  0.00    -0.135 S 
ATOM      8  C   UNL     1      -0.275  -7.496   1.297  0.00  0.00    +0.112 C 
ATOM      9  C   UNL     1      -0.112  -6.234   0.505  0.00  0.00    +0.027 C 
ATOM     10  C   UNL     1      -0.074  -6.231  -0.858  0.00  0.00    +0.027 C 
ATOM     11  N   UNL     1       0.067  -4.954  -1.298  0.00  0.00    -0.262 N 
ATOM     12  C   UNL     1      -0.177  -7.451  -1.736  0.00  0.00    +0.062 C 
ATOM     13  C   UNL     1       0.293  -6.287   5.291  0.00  0.00    +0.029 C 
ATOM     14  H   UNL     1       0.119  -4.674  -2.226  0.00  0.00    +0.170 HD
ENDROOT
BRANCH   1  19
ATOM     15  C   UNL     1       0.684   1.528  -0.268  0.00  0.00    +0.044 C 
ATOM     16  C   UNL     1       0.536   0.029  -0.246  0.00  0.00    -0.050 A 
ATOM     17  C   UNL     1      -0.429  -0.557   0.552  0.00  0.00    +0.005 A 
ATOM     18  C   UNL     1      -0.568  -1.931   0.575  0.00  0.00    +0.025 A 
ATOM     19  C   UNL     1       0.264  -2.724  -0.205  0.00  0.00    +0.055 A 
ATOM     20  C   UNL     1       1.232  -2.132  -1.007  0.00  0.00    +0.025 A 
ATOM     21  C   UNL     1       1.361  -0.758  -1.029  0.00  0.00    +0.005 A 
ENDBRANCH   1  19
BRANCH   8  22
ATOM     22  C   UNL     1       0.250  -8.650   0.481  0.00  0.00    -0.030 A 
ATOM     23  C   UNL     1       1.608  -8.770   0.250  0.00  0.00    +0.008 A 
ATOM     24  C   UNL     1       2.092  -9.826  -0.498  0.00  0.00    +0.046 A 
ATOM     25  C   UNL     1       1.214 -10.766  -1.017  0.00  0.00    +0.121 A 
ATOM     26  C   UNL     1      -0.148 -10.643  -0.784  0.00  0.00    +0.046 A 
ATOM     27  C   UNL     1      -0.626  -9.589  -0.031  0.00  0.00    +0.008 A 
BRANCH  25  28
ATOM     28  O   UNL     1       1.687 -11.806  -1.754  0.00  0.00    -0.483 OA
BRANCH  28  29
ATOM     29  C   UNL     1       0.726 -12.735  -2.256  0.00  0.00    +0.324 C 
BRANCH  29  30
ATOM     30  C   UNL     1       1.430 -13.811  -3.043  0.00  0.00    +0.248 C 
ATOM     31  O   UNL     1       2.637 -13.784  -3.161  0.00  0.00    -0.272 OA
ATOM     32  N   UNL     1       0.719 -14.803  -3.615  0.00  0.00    -0.327 N 
ATOM     33  H   UNL     1      -0.246 -14.825  -3.520  0.00  0.00    +0.145 HD
ATOM     34  H   UNL     1       1.173 -15.495  -4.121  0.00  0.00    +0.145 HD
ENDBRANCH  29  30
ENDBRANCH  28  29
ENDBRANCH  25  28
ENDBRANCH   8  22
TORSDOF 5
