REMARK  Name = ZINC01133411
REMARK  6 active torsions:
REMARK  status: ('A' for Active; 'I' for Inactive)
REMARK    1  A    between atoms: C_1  and  C_2
REMARK    2  A    between atoms: C_2  and  C_23
REMARK    3  A    between atoms: C_7  and  N_9
REMARK    4  A    between atoms: N_9  and  S_10
REMARK    5  A    between atoms: S_10  and  C_13
REMARK    6  A    between atoms: C_13  and  C_14
REMARK                            x       y       z     vdW  Elec       q    Type
REMARK                         _______ _______ _______ _____ _____    ______ ____
ROOT
ATOM      1  C   UNL     1      -0.019   1.526   0.010  0.00  0.00    +0.011 C 
ATOM      2  C   UNL     1       0.002  -0.004   0.002  0.00  0.00    -0.022 C 
ATOM      3  C   UNL     1       0.686  -0.491  -1.279  0.00  0.00    +0.063 C 
ATOM      4  C   UNL     1       2.129  -0.009  -1.258  0.00  0.00    +0.062 A 
ATOM      5  C   UNL     1       2.754   0.210  -0.023  0.00  0.00    +0.079 A 
ATOM      6  S   UNL     1       4.365   0.749  -0.507  0.00  0.00    -0.046 S 
ATOM      7  C   UNL     1       4.137   0.657  -2.176  0.00  0.00    +0.202 A 
ATOM      8  N   UNL     1       2.887   0.236  -2.298  0.00  0.00    -0.226 NA
ATOM      9  C   UNL     1       2.169   0.016   1.222  0.00  0.00    +0.172 C 
ATOM     10  O   UNL     1       2.773   0.252   2.249  0.00  0.00    -0.291 OA
ATOM     11  C   UNL     1       0.743  -0.503   1.243  0.00  0.00    +0.087 C 
ATOM     12  C   UNL     1      -1.436  -0.526   0.032  0.00  0.00    +0.011 C 
ENDROOT
BRANCH   7  13
ATOM     13  N   UNL     1       5.038   0.951  -3.175  0.00  0.00    -0.075 NA
BRANCH  13  14
ATOM     14  S   UNL     1       6.563   1.467  -2.789  0.00  0.00    +0.068 S 
ATOM     15  O   UNL     1       6.370   2.710  -2.129  0.00  0.00    -0.153 OA
ATOM     16  O   UNL     1       7.156   0.369  -2.108  0.00  0.00    -0.153 OA
BRANCH  14  17
ATOM     17  C   UNL     1       7.384   1.728  -4.385  0.00  0.00    +0.225 C 
BRANCH  17  18
ATOM     18  C   UNL     1       8.795   2.204  -4.152  0.00  0.00    -0.025 A 
ATOM     19  C   UNL     1       9.060   3.557  -4.050  0.00  0.00    +0.005 A 
ATOM     20  C   UNL     1      10.354   3.993  -3.836  0.00  0.00    +0.000 A 
ATOM     21  C   UNL     1      11.383   3.077  -3.725  0.00  0.00    +0.000 A 
ATOM     22  C   UNL     1      11.118   1.724  -3.826  0.00  0.00    +0.000 A 
ATOM     23  C   UNL     1       9.823   1.287  -4.035  0.00  0.00    +0.005 A 
ENDBRANCH  17  18
ENDBRANCH  14  17
ENDBRANCH  13  14
ENDBRANCH   7  13
TORSDOF 4
