REMARK  Name = ZINC04160222
REMARK  6 active torsions:
REMARK  status: ('A' for Active; 'I' for Inactive)
REMARK    1  A    between atoms: C_1  and  C_2
REMARK    2  A    between atoms: C_9  and  C_14
REMARK    3  A    between atoms: C_14  and  C_16
REMARK    4  A    between atoms: C_14  and  N_63
REMARK    5  A    between atoms: N_20  and  C_21
REMARK    6  A    between atoms: C_30  and  C_33
REMARK                            x       y       z     vdW  Elec       q    Type
REMARK                         _______ _______ _______ _____ _____    ______ ____
ROOT
ATOM      1  C   UNL     1       2.574  -0.651  -0.027  0.00  0.00    +0.039 C 
ENDROOT
BRANCH   1  10
ATOM      2  C   UNL     1       1.116  -4.295  -6.368  0.00  0.00    +0.044 C 
ATOM      3  C   UNL     1       2.039  -3.470  -5.509  0.00  0.00    -0.050 A 
ATOM      4  C   UNL     1       3.295  -3.120  -5.987  0.00  0.00    +0.005 A 
ATOM      5  C   UNL     1       4.155  -2.366  -5.219  0.00  0.00    +0.026 A 
ATOM      6  C   UNL     1       3.763  -1.950  -3.950  0.00  0.00    +0.049 A 
ATOM      7  C   UNL     1       2.490  -2.307  -3.469  0.00  0.00    -0.001 A 
ATOM      8  C   UNL     1       1.633  -3.073  -4.267  0.00  0.00    +0.013 A 
ATOM      9  C   UNL     1       2.088  -1.868  -2.131  0.00  0.00    +0.017 A 
ATOM     10  C   UNL     1       2.958  -1.123  -1.406  0.00  0.00    +0.011 A 
ATOM     11  C   UNL     1       4.224  -0.791  -1.935  0.00  0.00    +0.251 A 
ATOM     12  O   UNL     1       4.992  -0.124  -1.265  0.00  0.00    -0.268 OA
ATOM     13  N   UNL     1       4.603  -1.194  -3.161  0.00  0.00    -0.322 N 
ATOM     14  H   UNL     1       5.508  -0.941  -3.504  0.00  0.00    +0.169 HD
ENDBRANCH   1  10
BRANCH   1  21
ATOM     15  C   UNL     1       3.774  -2.544   0.888  0.00  0.00    -0.077 C 
ATOM     16  C   UNL     1       4.936  -2.946   1.800  0.00  0.00    -0.018 C 
ATOM     17  C   UNL     1       4.630  -2.503   3.233  0.00  0.00    -0.001 C 
ATOM     18  C   UNL     1       4.394  -0.990   3.252  0.00  0.00    -0.031 C 
ATOM     19  C   UNL     1       3.248  -0.645   2.299  0.00  0.00    -0.074 C 
ATOM     20  C   UNL     1       4.029  -0.547   4.671  0.00  0.00    +0.005 C 
ATOM     21  N   UNL     1       3.615  -1.075   0.932  0.00  0.00    +0.389 N 
ATOM     22  H   UNL     1       4.506  -0.635   0.673  0.00  0.00    -0.080 HD
ENDBRANCH   1  21
BRANCH   1  23
ATOM     23  C   UNL     1       2.486   0.854  -0.017  0.00  0.00    +0.143 A 
ATOM     24  N   UNL     1       3.490   1.696  -0.022  0.00  0.00    -0.115 NA
ATOM     25  N   UNL     1       3.007   2.891  -0.011  0.00  0.00    -0.023 NA
ATOM     26  N   UNL     1       1.721   2.832  -0.005  0.00  0.00    -0.044 NA
ATOM     27  N   UNL     1       1.362   1.593  -0.002  0.00  0.00    -0.227 N 
BRANCH  27  28
ATOM     28  C   UNL     1      -0.013   1.086   0.008  0.00  0.00    +0.111 C 
ATOM     29  C   UNL     1      -0.729   1.579   1.267  0.00  0.00    +0.027 C 
ATOM     30  C   UNL     1      -2.164   1.050   1.278  0.00  0.00    +0.002 C 
ATOM     31  C   UNL     1      -2.904   1.556   0.038  0.00  0.00    +0.000 C 
ATOM     32  C   UNL     1      -2.188   1.063  -1.221  0.00  0.00    +0.002 C 
ATOM     33  C   UNL     1      -0.753   1.593  -1.232  0.00  0.00    +0.027 C 
ENDBRANCH  27  28
ENDBRANCH   1  23
TORSDOF 4
