REMARK  Name = ZINC61594295
REMARK  9 active torsions:
REMARK  status: ('A' for Active; 'I' for Inactive)
REMARK    1  A    between atoms: C_1  and  C_2
REMARK    2  A    between atoms: C_2  and  C_3
REMARK    3  A    between atoms: C_3  and  C_5
REMARK    4  A    between atoms: C_3  and  N_23
REMARK    5  A    between atoms: C_5  and  C_7
REMARK    6  A    between atoms: C_5  and  S_13
REMARK    7  A    between atoms: S_13  and  C_14
REMARK    8  A    between atoms: N_20  and  C_21
REMARK    9  A    between atoms: C_21  and  C_22
REMARK                            x       y       z     vdW  Elec       q    Type
REMARK                         _______ _______ _______ _____ _____    ______ ____
ROOT
ATOM      1  C   UNL     1       0.746  -2.030  -1.292  0.00  0.00    +0.076 C 
ENDROOT
BRANCH   1   2
ATOM      2  C   UNL     1       1.562  -2.555  -2.446  0.00  0.00    +0.003 A 
ATOM      3  C   UNL     1       2.676  -3.326  -2.422  0.00  0.00    +0.013 A 
ATOM      4  C   UNL     1       3.263  -3.692  -3.619  0.00  0.00    +0.023 A 
ATOM      5  C   UNL     1       2.707  -3.268  -4.781  0.00  0.00    +0.055 A 
ATOM      6  S   UNL     1       1.306  -2.328  -4.198  0.00  0.00    -0.085 S 
ATOM      7 BR   UNL     1       3.267  -3.595  -6.558  0.00  0.00    -0.043 Br
ENDBRANCH   1   2
BRANCH   1   8
ATOM      8  C   UNL     1       0.728  -0.501  -1.335  0.00  0.00    -0.057 C 
BRANCH   8   9
ATOM      9  N   UNL     1       2.104   0.008  -1.266  0.00  0.00    +0.381 N 
ATOM     10  H   UNL     1       2.534  -0.299  -0.406  0.00  0.00    -0.090 HD
ATOM     11  H   UNL     1       2.633  -0.344  -2.050  0.00  0.00    -0.090 HD
ATOM     12  H   UNL     1       2.092   1.017  -1.295  0.00  0.00    -0.090 HD
ENDBRANCH   8   9
BRANCH   8  14
ATOM     13  C   UNL     1      -0.206   1.553  -0.262  0.00  0.00    +0.002 C 
ATOM     14  C   UNL     1      -0.073   0.033  -0.146  0.00  0.00    -0.018 C 
ENDBRANCH   8  14
ENDBRANCH   1   8
BRANCH   1  15
ATOM     15  S   UNL     1      -0.951  -2.659  -1.415  0.00  0.00    -0.079 S 
BRANCH  15  16
ATOM     16  C   UNL     1      -0.786  -4.389  -1.128  0.00  0.00    +0.193 A 
ATOM     17  N   UNL     1       0.337  -5.028  -0.961  0.00  0.00    -0.145 NA
ATOM     18  N   UNL     1       0.039  -6.383  -0.760  0.00  0.00    -0.226 N 
ATOM     19  H   UNL     1       0.680  -7.095  -0.609  0.00  0.00    +0.194 HD
ATOM     20  C   UNL     1      -1.302  -6.514  -0.815  0.00  0.00    +0.345 A 
ATOM     21  O   UNL     1      -1.930  -7.550  -0.684  0.00  0.00    -0.245 OA
ATOM     22  N   UNL     1      -1.822  -5.290  -1.035  0.00  0.00    -0.271 N 
BRANCH  22  23
ATOM     23  C   UNL     1      -3.247  -4.974  -1.160  0.00  0.00    +0.125 C 
ATOM     24  C   UNL     1      -3.670  -5.093  -2.625  0.00  0.00    +0.027 C 
ENDBRANCH  22  23
ENDBRANCH  15  16
ENDBRANCH   1  15
TORSDOF 7
