REMARK  Name = ZINC66792812
REMARK  6 active torsions:
REMARK  status: ('A' for Active; 'I' for Inactive)
REMARK    1  A    between atoms: C_5  and  C_7
REMARK    2  A    between atoms: N_12  and  C_14
REMARK    3  A    between atoms: C_14  and  N_15
REMARK    4  A    between atoms: N_15  and  C_16
REMARK    5  A    between atoms: N_15  and  C_25
REMARK    6  A    between atoms: C_16  and  C_17
REMARK                            x       y       z     vdW  Elec       q    Type
REMARK                         _______ _______ _______ _____ _____    ______ ____
ROOT
ATOM      1  C   UNL     1       3.648  -4.628  -0.258  0.00  0.00    +0.074 C 
ENDROOT
BRANCH   1   7
ATOM      2  C   UNL     1       1.008  -2.208  -0.656  0.00  0.00    +0.094 A 
ATOM      3  C   UNL     1      -0.174  -2.984  -0.650  0.00  0.00    +0.035 A 
ATOM      4  C   UNL     1      -0.058  -4.335  -0.508  0.00  0.00    +0.074 A 
ATOM      5  C   UNL     1       1.240  -4.877  -0.377  0.00  0.00    +0.266 A 
ATOM      6  O   UNL     1       1.393  -6.081  -0.248  0.00  0.00    -0.266 OA
ATOM      7  N   UNL     1       2.306  -4.056  -0.395  0.00  0.00    -0.246 N 
ATOM      8  N   UNL     1       2.180  -2.786  -0.534  0.00  0.00    -0.170 NA
BRANCH   2  13
ATOM      9  C   UNL     1      -0.390   1.256  -1.081  0.00  0.00    +0.001 A 
ATOM     10  C   UNL     1       0.766   2.016  -1.093  0.00  0.00    +0.003 A 
ATOM     11  C   UNL     1       2.001   1.409  -0.964  0.00  0.00    +0.039 A 
ATOM     12  C   UNL     1       2.087   0.036  -0.821  0.00  0.00    +0.133 A 
ATOM     13  C   UNL     1       0.924  -0.735  -0.808  0.00  0.00    +0.037 A 
ATOM     14  C   UNL     1      -0.317  -0.115  -0.940  0.00  0.00    +0.013 A 
ATOM     15  F   UNL     1       3.294  -0.557  -0.695  0.00  0.00    -0.205 F 
ENDBRANCH   2  13
ENDBRANCH   1   7
BRANCH   1  16
ATOM     16  N   UNL     1       4.319  -4.623  -1.565  0.00  0.00    +0.397 N 
ATOM     17  H   UNL     1       3.743  -5.104  -2.240  0.00  0.00    -0.078 HD
BRANCH  16  18
ATOM     18  C   UNL     1       4.529  -3.236  -2.002  0.00  0.00    -0.066 C 
ATOM     19  C   UNL     1       3.644  -2.709  -3.133  0.00  0.00    -0.017 C 
ATOM     20  C   UNL     1       5.120  -3.017  -3.396  0.00  0.00    -0.017 C 
ENDBRANCH  16  18
BRANCH  16  21
ATOM     21  C   UNL     1       5.615  -5.303  -1.453  0.00  0.00    -0.037 C 
BRANCH  21  22
ATOM     22  C   UNL     1       5.393  -6.760  -1.135  0.00  0.00    -0.028 A 
ATOM     23  C   UNL     1       5.568  -7.219   0.157  0.00  0.00    +0.007 A 
ATOM     24  C   UNL     1       5.363  -8.554   0.451  0.00  0.00    +0.039 A 
ATOM     25  C   UNL     1       4.983  -9.433  -0.550  0.00  0.00    +0.126 A 
ATOM     26  C   UNL     1       4.807  -8.974  -1.843  0.00  0.00    +0.076 A 
ATOM     27  C   UNL     1       5.007  -7.635  -2.135  0.00  0.00    +0.127 A 
ATOM     28  F   UNL     1       4.830  -7.185  -3.396  0.00  0.00    -0.205 F 
ATOM     29  F   UNL     1       4.784 -10.738  -0.263  0.00  0.00    -0.205 F 
ENDBRANCH  21  22
ENDBRANCH  16  21
ENDBRANCH   1  16
TORSDOF 6
