REMARK  Name = ZINC10497906
REMARK  10 active torsions:
REMARK  status: ('A' for Active; 'I' for Inactive)
REMARK    1  A    between atoms: C_1  and  C_2
REMARK    2  A    between atoms: C_2  and  O_3
REMARK    3  A    between atoms: O_3  and  C_4
REMARK    4  A    between atoms: C_4  and  C_6
REMARK    5  A    between atoms: C_7  and  C_21
REMARK    6  A    between atoms: C_12  and  C_14
REMARK    7  A    between atoms: C_21  and  S_22
REMARK    8  A    between atoms: S_22  and  C_23
REMARK    9  A    between atoms: N_27  and  C_28
REMARK   10  A    between atoms: C_33  and  C_34
REMARK                            x       y       z     vdW  Elec       q    Type
REMARK                         _______ _______ _______ _____ _____    ______ ____
ROOT
ATOM      1  C   UNL     1      -8.868   3.056   1.373  0.00  0.00    +0.079 C 
ATOM      2  C   UNL     1      -8.077   1.991   1.627  0.00  0.00    +0.034 C 
ATOM      3  N   UNL     1      -8.455   1.030   2.520  0.00  0.00    -0.272 N 
ATOM      4  C   UNL     1      -9.610   1.057   3.196  0.00  0.00    +0.304 C 
ATOM      5  O   UNL     1      -9.859   0.154   3.971  0.00  0.00    -0.252 OA
ATOM      6  N   UNL     1     -10.505   2.053   3.046  0.00  0.00    -0.288 N 
ATOM      7  C   UNL     1     -10.192   3.141   2.104  0.00  0.00    +0.144 C 
ATOM      8  H   UNL     1      -7.852   0.285   2.673  0.00  0.00    +0.156 HD
ATOM      9  H   UNL     1     -11.337   2.053   3.546  0.00  0.00    +0.151 HD
ENDROOT
BRANCH   7  10
ATOM     10  C   UNL     1     -11.293   3.197   1.076  0.00  0.00    -0.022 A 
ATOM     11  C   UNL     1     -11.826   2.026   0.571  0.00  0.00    +0.007 A 
ATOM     12  C   UNL     1     -12.839   2.076  -0.368  0.00  0.00    +0.020 A 
ATOM     13  C   UNL     1     -13.311   3.299  -0.810  0.00  0.00    +0.041 A 
ATOM     14  C   UNL     1     -12.773   4.471  -0.309  0.00  0.00    +0.020 A 
ATOM     15  C   UNL     1     -11.764   4.419   0.634  0.00  0.00    +0.007 A 
ATOM     16 CL   UNL     1     -14.579   3.364  -1.995  0.00  0.00    -0.084 Cl
ENDBRANCH   7  10
BRANCH   1  17
ATOM     17  C   UNL     1      -8.475   4.056   0.453  0.00  0.00    +0.339 C 
ATOM     18  O   UNL     1      -7.471   3.905  -0.217  0.00  0.00    -0.245 OA
BRANCH  17  19
ATOM     19  O   UNL     1      -9.215   5.177   0.318  0.00  0.00    -0.462 OA
BRANCH  19  21
ATOM     20  C   UNL     1      -9.718   7.336  -0.643  0.00  0.00    +0.048 C 
ATOM     21  C   UNL     1      -8.759   6.144  -0.630  0.00  0.00    +0.229 C 
ENDBRANCH  19  21
ENDBRANCH  17  19
ENDBRANCH   1  17
BRANCH   2  22
ATOM     22  C   UNL     1      -6.753   1.865   0.917  0.00  0.00    +0.128 C 
BRANCH  22  23
ATOM     23  S   UNL     1      -6.974   0.911  -0.605  0.00  0.00    -0.078 S 
BRANCH  23  24
ATOM     24  C   UNL     1      -5.320   0.919  -1.213  0.00  0.00    +0.214 A 
ATOM     25  N   UNL     1      -4.279   1.489  -0.644  0.00  0.00    -0.101 NA
ATOM     26  N   UNL     1      -3.223   1.305  -1.351  0.00  0.00    -0.022 NA
ATOM     27  N   UNL     1      -3.497   0.612  -2.402  0.00  0.00    -0.038 NA
ATOM     28  N   UNL     1      -4.875   0.336  -2.361  0.00  0.00    -0.187 N 
BRANCH  28  29
ATOM     29  C   UNL     1      -5.628  -0.387  -3.297  0.00  0.00    +0.073 A 
ATOM     30  C   UNL     1      -6.861   0.092  -3.718  0.00  0.00    +0.028 A 
ATOM     31  C   UNL     1      -7.603  -0.626  -4.636  0.00  0.00    +0.002 A 
ATOM     32  C   UNL     1      -7.116  -1.819  -5.139  0.00  0.00    +0.000 A 
ATOM     33  C   UNL     1      -5.886  -2.296  -4.725  0.00  0.00    +0.005 A 
ATOM     34  C   UNL     1      -5.139  -1.582  -3.808  0.00  0.00    -0.025 A 
ATOM     35  C   UNL     1      -3.799  -2.103  -3.358  0.00  0.00    +0.046 C 
ENDBRANCH  28  29
ENDBRANCH  23  24
ENDBRANCH  22  23
ENDBRANCH   2  22
TORSDOF 8
