REMARK  Name = ZINC11661586
REMARK  12 active torsions:
REMARK  status: ('A' for Active; 'I' for Inactive)
REMARK    1  A    between atoms: C_1  and  O_2
REMARK    2  A    between atoms: O_2  and  C_3
REMARK    3  A    between atoms: C_3  and  C_4
REMARK    4  A    between atoms: C_4  and  C_5
REMARK    5  A    between atoms: C_5  and  C_6
REMARK    6  A    between atoms: C_11  and  C_12
REMARK    7  A    between atoms: C_11  and  N_67
REMARK    8  A    between atoms: C_15  and  S_24
REMARK    9  A    between atoms: N_16  and  C_17
REMARK   10  A    between atoms: C_17  and  C_18
REMARK   11  A    between atoms: S_24  and  C_27
REMARK   12  A    between atoms: C_27  and  C_28
REMARK                            x       y       z     vdW  Elec       q    Type
REMARK                         _______ _______ _______ _____ _____    ______ ____
ROOT
ATOM      1  C   UNL     1      -0.718   1.572   1.248  0.00  0.00    +0.023 A 
ATOM      2  C   UNL     1      -1.639   0.899   1.963  0.00  0.00    +0.133 A 
ATOM      3  N   UNL     1      -2.018   1.677   2.988  0.00  0.00    -0.220 NA
ATOM      4  C   UNL     1      -1.367   2.806   2.935  0.00  0.00    +0.251 A 
ATOM      5  N   UNL     1      -0.541   2.780   1.867  0.00  0.00    -0.313 N 
ENDROOT
BRANCH   4   6
ATOM      6  S   UNL     1      -1.532   4.141   4.073  0.00  0.00    +0.030 S 
ATOM      7  O   UNL     1      -1.161   5.296   3.333  0.00  0.00    -0.166 OA
ATOM      8  O   UNL     1      -2.845   4.009   4.600  0.00  0.00    -0.166 OA
BRANCH   6   9
ATOM      9  C   UNL     1      -0.304   3.807   5.365  0.00  0.00    +0.179 C 
BRANCH   9  10
ATOM     10  C   UNL     1      -0.358   4.915   6.419  0.00  0.00    +0.011 C 
ATOM     11  C   UNL     1       0.887   5.788   6.591  0.00  0.00    +0.005 C 
ATOM     12  C   UNL     1       0.524   4.754   7.659  0.00  0.00    +0.005 C 
ENDBRANCH   9  10
ENDBRANCH   6   9
ENDBRANCH   4   6
BRANCH   1  13
ATOM     13  C   UNL     1      -0.013   1.086   0.008  0.00  0.00    -0.023 C 
BRANCH  13  19
ATOM     14  C   UNL     1      -2.047   1.380  -3.741  0.00  0.00    -0.014 C 
ATOM     15  C   UNL     1      -0.641   1.970  -3.598  0.00  0.00    -0.015 C 
ATOM     16  C   UNL     1       0.058   1.323  -2.400  0.00  0.00    -0.078 C 
ATOM     17  C   UNL     1      -2.061   0.974  -1.278  0.00  0.00    -0.078 C 
ATOM     18  C   UNL     1      -2.824   1.611  -2.442  0.00  0.00    -0.015 C 
ATOM     19  N   UNL     1      -0.726   1.602  -1.178  0.00  0.00    +0.383 N 
ATOM     20  H   UNL     1      -0.842   2.618  -1.082  0.00  0.00    -0.081 HD
BRANCH  14  21
ATOM     21  C   UNL     1      -2.773   2.065  -4.901  0.00  0.00    +0.005 C 
BRANCH  21  22
ATOM     22  C   UNL     1      -4.129   1.391  -5.123  0.00  0.00    +0.028 C 
BRANCH  22  23
ATOM     23  C   UNL     1      -4.855   2.076  -6.283  0.00  0.00    +0.159 C 
BRANCH  23  25
ATOM     24  C   UNL     1      -6.884   2.014  -7.557  0.00  0.00    +0.193 C 
ATOM     25  O   UNL     1      -6.121   1.447  -6.490  0.00  0.00    -0.383 OA
ENDBRANCH  23  25
ENDBRANCH  22  23
ENDBRANCH  21  22
ENDBRANCH  14  21
ENDBRANCH  13  19
ENDBRANCH   1  13
BRANCH   5  26
ATOM     26  C   UNL     1       0.372   3.846   1.447  0.00  0.00    +0.156 C 
BRANCH  26  27
ATOM     27  C   UNL     1      -0.353   4.788   0.484  0.00  0.00    +0.138 C 
ATOM     28  C   UNL     1       0.633   5.848  -0.052  0.00  0.00    +0.035 C 
ATOM     29  C   UNL     1      -0.242   7.131  -0.076  0.00  0.00    +0.031 C 
ATOM     30  C   UNL     1      -1.143   6.895   1.163  0.00  0.00    +0.160 C 
ATOM     31  O   UNL     1      -1.398   5.481   1.177  0.00  0.00    -0.375 OA
ENDBRANCH  26  27
ENDBRANCH   5  26
TORSDOF 11
