REMARK  Name = ZINC01302369
REMARK  1 active torsions:
REMARK  status: ('A' for Active; 'I' for Inactive)
REMARK    1  A    between atoms: C_11  and  C_22
REMARK                            x       y       z     vdW  Elec       q    Type
REMARK                         _______ _______ _______ _____ _____    ______ ____
ROOT
ATOM      1  C   UNL     1      -0.017   1.393   0.010  0.00  0.00    +0.001 A 
ATOM      2  C   UNL     1       1.140   2.137   0.003  0.00  0.00    +0.001 A 
ATOM      3  C   UNL     1       2.403   1.535  -0.013  0.00  0.00    +0.012 A 
ATOM      4  C   UNL     1       2.437   0.154  -0.021  0.00  0.00    +0.031 A 
ATOM      5  C   UNL     1       1.246  -0.615  -0.013  0.00  0.00    +0.007 A 
ATOM      6  C   UNL     1       0.002  -0.004   0.002  0.00  0.00    +0.010 A 
ATOM      7  C   UNL     1       1.643  -2.027  -0.026  0.00  0.00    +0.048 C 
ATOM      8  C   UNL     1       3.012  -2.107  -0.038  0.00  0.00    +0.034 C 
ATOM      9  C   UNL     1       3.563  -0.805  -0.037  0.00  0.00    +0.193 C 
ATOM     10  O   UNL     1       4.746  -0.525  -0.047  0.00  0.00    -0.287 OA
ATOM     11  C   UNL     1       3.749  -3.421  -0.049  0.00  0.00    +0.093 C 
ATOM     12  C   UNL     1       2.785  -4.534  -0.373  0.00  0.00    +0.067 A 
ATOM     13  C   UNL     1       1.435  -4.364  -0.345  0.00  0.00    +0.114 A 
ATOM     14  N   UNL     1       0.614  -5.428  -0.646  0.00  0.00    -0.295 N 
ATOM     15  C   UNL     1       1.135  -6.625  -0.970  0.00  0.00    +0.328 A 
ATOM     16  O   UNL     1       0.392  -7.551  -1.232  0.00  0.00    -0.247 OA
ATOM     17  N   UNL     1       2.466  -6.811  -1.007  0.00  0.00    -0.275 N 
ATOM     18  C   UNL     1       3.305  -5.798  -0.718  0.00  0.00    +0.260 A 
ATOM     19  O   UNL     1       4.511  -5.974  -0.754  0.00  0.00    -0.267 OA
ATOM     20  N   UNL     1       0.853  -3.155  -0.030  0.00  0.00    -0.300 N 
ATOM     21  H   UNL     1      -0.091  -3.100   0.185  0.00  0.00    +0.154 HD
ATOM     22  H   UNL     1       2.825  -7.680  -1.245  0.00  0.00    +0.173 HD
ATOM     23  H   UNL     1      -0.349  -5.314  -0.623  0.00  0.00    +0.172 HD
ENDROOT
BRANCH  11  24
ATOM     24  C   UNL     1       4.360  -3.665   1.307  0.00  0.00    -0.035 A 
ATOM     25  C   UNL     1       3.551  -3.749   2.425  0.00  0.00    +0.007 A 
ATOM     26  C   UNL     1       4.110  -3.974   3.668  0.00  0.00    +0.038 A 
ATOM     27  C   UNL     1       5.482  -4.114   3.795  0.00  0.00    +0.123 A 
ATOM     28  C   UNL     1       6.292  -4.029   2.675  0.00  0.00    +0.038 A 
ATOM     29  C   UNL     1       5.729  -3.810   1.431  0.00  0.00    +0.007 A 
ATOM     30  F   UNL     1       6.030  -4.332   5.010  0.00  0.00    -0.205 F 
ENDBRANCH  11  24
TORSDOF 1
