REMARK  Name = ZINC36273176
REMARK  10 active torsions:
REMARK  status: ('A' for Active; 'I' for Inactive)
REMARK    1  A    between atoms: C_1  and  C_2
REMARK    2  A    between atoms: C_2  and  N_3
REMARK    3  A    between atoms: N_3  and  C_4
REMARK    4  A    between atoms: N_3  and  C_6
REMARK    5  A    between atoms: C_4  and  C_5
REMARK    6  A    between atoms: C_6  and  C_7
REMARK    7  A    between atoms: C_8  and  C_17
REMARK    8  A    between atoms: C_13  and  N_16
REMARK    9  A    between atoms: N_23  and  C_30
REMARK   10  A    between atoms: C_26  and  C_29
REMARK                            x       y       z     vdW  Elec       q    Type
REMARK                         _______ _______ _______ _____ _____    ______ ____
ROOT
ATOM      1  C   UNL     1      -3.416  -1.996   0.631  0.00  0.00    +0.035 A 
ATOM      2  C   UNL     1      -3.796  -2.324   1.898  0.00  0.00    +0.091 A 
ATOM      3  N   UNL     1      -5.017  -2.878   1.841  0.00  0.00    -0.228 NA
ATOM      4  C   UNL     1      -5.420  -2.911   0.578  0.00  0.00    +0.138 A 
ATOM      5  N   UNL     1      -4.437  -2.359  -0.202  0.00  0.00    -0.303 N 
ATOM      6  C   UNL     1      -4.599  -2.262  -1.556  0.00  0.00    +0.115 A 
ATOM      7  C   UNL     1      -5.734  -2.708  -2.148  0.00  0.00    +0.041 A 
ATOM      8  C   UNL     1      -6.762  -3.276  -1.369  0.00  0.00    +0.028 A 
ATOM      9  C   UNL     1      -6.604  -3.384  -0.023  0.00  0.00    +0.048 A 
ENDROOT
BRANCH   2  10
ATOM     10  C   UNL     1      -2.998  -2.105   3.129  0.00  0.00    +0.004 A 
ATOM     11  C   UNL     1      -1.631  -2.378   3.132  0.00  0.00    +0.014 A 
ATOM     12  C   UNL     1      -0.886  -2.176   4.276  0.00  0.00    +0.048 A 
ATOM     13  C   UNL     1      -1.495  -1.699   5.425  0.00  0.00    +0.143 A 
ATOM     14  C   UNL     1      -2.862  -1.424   5.428  0.00  0.00    +0.079 A 
ATOM     15  C   UNL     1      -3.612  -1.621   4.282  0.00  0.00    +0.037 A 
ATOM     16  N   UNL     1      -3.463  -0.944   6.601  0.00  0.00    -0.268 N 
ATOM     17  C   UNL     1      -2.677  -0.462   7.589  0.00  0.00    +0.260 C 
ATOM     18  O   UNL     1      -3.172  -0.069   8.624  0.00  0.00    -0.271 OA
ATOM     19  C   UNL     1      -1.182  -0.414   7.399  0.00  0.00    +0.256 C 
ATOM     20  O   UNL     1      -0.770  -1.495   6.558  0.00  0.00    -0.478 OA
ATOM     21  C   UNL     1      -0.794   0.914   6.747  0.00  0.00    +0.062 C 
ATOM     22  C   UNL     1      -4.920  -0.965   6.753  0.00  0.00    +0.138 C 
ENDBRANCH   2  10
BRANCH   7  23
ATOM     23  N   UNL     1      -5.886  -2.603  -3.537  0.00  0.00    -0.357 N 
ATOM     24  H   UNL     1      -5.180  -2.211  -4.074  0.00  0.00    +0.142 HD
ATOM     25  H   UNL     1      -6.699  -2.921  -3.961  0.00  0.00    +0.142 HD
ENDBRANCH   7  23
BRANCH   1  26
ATOM     26  C   UNL     1      -2.116  -1.349   0.225  0.00  0.00    -0.022 C 
BRANCH  26  27
ATOM     27  N   UNL     1      -1.147  -2.389  -0.144  0.00  0.00    +0.383 N 
ATOM     28  H   UNL     1      -1.066  -3.056   0.608  0.00  0.00    -0.081 HD
BRANCH  27  30
ATOM     29  C   UNL     1      -0.660  -4.239  -1.674  0.00  0.00    -0.017 C 
ATOM     30  C   UNL     1      -1.604  -3.076  -1.360  0.00  0.00    -0.082 C 
ENDBRANCH  27  30
BRANCH  27  31
ATOM     31  C   UNL     1       0.163  -1.771  -0.394  0.00  0.00    -0.082 C 
ATOM     32  C   UNL     1       0.704  -1.179   0.909  0.00  0.00    -0.017 C 
ENDBRANCH  27  31
ENDBRANCH  26  27
ENDBRANCH   1  26
TORSDOF 6
