REMARK  Name = ZINC25257200
REMARK  9 active torsions:
REMARK  status: ('A' for Active; 'I' for Inactive)
REMARK    1  A    between atoms: C_4  and  C_7
REMARK    2  A    between atoms: C_7  and  C_8
REMARK    3  A    between atoms: C_8  and  C_10
REMARK    4  A    between atoms: C_8  and  N_24
REMARK    5  A    between atoms: N_12  and  N_13
REMARK    6  A    between atoms: C_14  and  C_16
REMARK    7  A    between atoms: C_25  and  O_27
REMARK    8  A    between atoms: O_27  and  C_28
REMARK    9  A    between atoms: C_28  and  C_29
REMARK                            x       y       z     vdW  Elec       q    Type
REMARK                         _______ _______ _______ _____ _____    ______ ____
ROOT
ATOM      1  C   UNL     1      -2.945   0.711   1.462  0.00  0.00    +0.168 C 
ENDROOT
BRANCH   1   2
ATOM      2  C   UNL     1      -4.299   0.049   1.467  0.00  0.00    +0.250 C 
ATOM      3  O   UNL     1      -4.434  -1.051   1.961  0.00  0.00    -0.272 OA
ATOM      4  N   UNL     1      -5.359   0.678   0.922  0.00  0.00    -0.233 N 
ATOM      5  H   UNL     1      -5.236   1.675   0.474  0.00  0.00    +0.173 HD
BRANCH   4   6
ATOM      6  N   UNL     1      -6.617   0.062   0.927  0.00  0.00    -0.230 N 
ATOM      7  C   UNL     1      -7.677   0.692   0.382  0.00  0.00    +0.262 C 
ATOM      8  O   UNL     1      -7.541   1.794  -0.113  0.00  0.00    -0.269 OA
ATOM      9  H   UNL     1      -6.740  -0.935   1.375  0.00  0.00    +0.173 HD
BRANCH   7  10
ATOM     10  C   UNL     1      -9.005   0.043   0.387  0.00  0.00    +0.058 A 
ATOM     11  C   UNL     1      -9.163  -1.225   0.949  0.00  0.00    +0.034 A 
ATOM     12  C   UNL     1     -10.407  -1.824   0.955  0.00  0.00    +0.042 A 
ATOM     13  C   UNL     1     -11.494  -1.174   0.394  0.00  0.00    +0.021 A 
ATOM     14  C   UNL     1     -11.343   0.079  -0.170  0.00  0.00    +0.022 A 
ATOM     15  C   UNL     1     -10.105   0.692  -0.177  0.00  0.00    +0.053 A 
ATOM     16 CL   UNL     1      -9.918   2.266  -0.885  0.00  0.00    -0.083 Cl
ATOM     17 CL   UNL     1     -10.607  -3.397   1.660  0.00  0.00    -0.084 Cl
ENDBRANCH   7  10
ENDBRANCH   4   6
ENDBRANCH   1   2
BRANCH   1  18
ATOM     18  N   UNL     1      -1.968  -0.170   2.108  0.00  0.00    -0.269 N 
ATOM     19  C   UNL     1      -0.861   0.351   2.672  0.00  0.00    +0.401 C 
ATOM     20  O   UNL     1      -0.672   1.551   2.646  0.00  0.00    -0.226 OA
ATOM     21  H   UNL     1      -2.139  -1.256   2.132  0.00  0.00    +0.153 HD
BRANCH  19  22
ATOM     22  O   UNL     1       0.037  -0.459   3.266  0.00  0.00    -0.446 OA
BRANCH  22  23
ATOM     23  C   UNL     1       1.206   0.172   3.853  0.00  0.00    +0.269 C 
BRANCH  23  24
ATOM     24  C   UNL     1       2.090  -0.883   4.466  0.00  0.00    -0.010 A 
ATOM     25  C   UNL     1       1.916  -1.248   5.788  0.00  0.00    +0.007 A 
ATOM     26  C   UNL     1       2.724  -2.219   6.349  0.00  0.00    +0.000 A 
ATOM     27  C   UNL     1       3.713  -2.818   5.591  0.00  0.00    +0.000 A 
ATOM     28  C   UNL     1       3.891  -2.449   4.271  0.00  0.00    +0.000 A 
ATOM     29  C   UNL     1       3.079  -1.482   3.708  0.00  0.00    +0.007 A 
ENDBRANCH  23  24
ENDBRANCH  22  23
ENDBRANCH  19  22
ENDBRANCH   1  18
BRANCH   1  30
ATOM     30  C   UNL     1      -2.514   0.980   0.019  0.00  0.00    +0.067 C 
BRANCH  30  34
ATOM     31  C   UNL     1       1.156   3.165   0.008  0.00  0.00    +0.000 A 
ATOM     32  C   UNL     1       1.175   1.783   0.000  0.00  0.00    +0.000 A 
ATOM     33  C   UNL     1      -0.013   1.076   0.008  0.00  0.00    +0.004 A 
ATOM     34  C   UNL     1      -1.219   1.751   0.017  0.00  0.00    -0.045 A 
ATOM     35  C   UNL     1      -1.238   3.133   0.030  0.00  0.00    +0.004 A 
ATOM     36  C   UNL     1      -0.050   3.840   0.022  0.00  0.00    +0.000 A 
ENDBRANCH  30  34
ENDBRANCH   1  30
TORSDOF 9
