REMARK  Name = ZINC11995049
REMARK  10 active torsions:
REMARK  status: ('A' for Active; 'I' for Inactive)
REMARK    1  A    between atoms: C_1  and  C_2
REMARK    2  A    between atoms: C_2  and  C_3
REMARK    3  A    between atoms: C_6  and  C_9
REMARK    4  A    between atoms: N_13  and  C_17
REMARK    5  A    between atoms: C_17  and  C_18
REMARK    6  A    between atoms: C_18  and  C_19
REMARK    7  A    between atoms: C_19  and  C_20
REMARK    8  A    between atoms: N_22  and  N_23
REMARK    9  A    between atoms: C_24  and  C_26
REMARK   10  A    between atoms: C_29  and  N_32
REMARK                            x       y       z     vdW  Elec       q    Type
REMARK                         _______ _______ _______ _____ _____    ______ ____
ROOT
ATOM      1  C   UNL     1       6.625   4.183  -1.204  0.00  0.00    +0.029 C 
ENDROOT
BRANCH   1   2
ATOM      2  C   UNL     1       6.089   4.217   0.228  0.00  0.00    +0.115 C 
BRANCH   2   7
ATOM      3  C   UNL     1       1.177   3.557   0.009  0.00  0.00    +0.028 C 
ATOM      4  C   UNL     1       2.343   4.243   0.104  0.00  0.00    +0.077 C 
ATOM      5  C   UNL     1       3.734   3.741   0.111  0.00  0.00    +0.258 C 
ATOM      6  O   UNL     1       3.986   2.554   0.022  0.00  0.00    -0.269 OA
ATOM      7  N   UNL     1       4.690   4.649   0.216  0.00  0.00    -0.255 N 
ATOM      8  C   UNL     1       4.405   5.964   0.314  0.00  0.00    +0.121 C 
ATOM      9  S   UNL     1       5.492   7.279   0.457  0.00  0.00    -0.027 S 
ATOM     10  S   UNL     1       2.621   6.003   0.249  0.00  0.00    -0.061 S 
BRANCH   3  14
ATOM     11  C   UNL     1       1.187  -0.679   0.201  0.00  0.00    -0.048 A 
ATOM     12  C   UNL     1       2.037   0.049   1.016  0.00  0.00    +0.004 A 
ATOM     13  C   UNL     1       2.039   1.426   0.960  0.00  0.00    +0.008 A 
ATOM     14  C   UNL     1       1.181   2.088   0.075  0.00  0.00    -0.024 A 
ATOM     15  C   UNL     1       0.326   1.345  -0.746  0.00  0.00    +0.008 A 
ATOM     16  C   UNL     1       0.335  -0.032  -0.677  0.00  0.00    +0.004 A 
BRANCH  11  18
ATOM     17  C   UNL     1       0.174  -2.651   1.313  0.00  0.00    +0.009 C 
ATOM     18  C   UNL     1       1.191  -2.185   0.269  0.00  0.00    +0.032 C 
ENDBRANCH  11  18
ENDBRANCH   3  14
ENDBRANCH   2   7
ENDBRANCH   1   2
BRANCH   1  19
ATOM     19  C   UNL     1       8.087   3.732  -1.192  0.00  0.00    +0.099 C 
BRANCH  19  20
ATOM     20  C   UNL     1       8.614   3.698  -2.603  0.00  0.00    +0.229 C 
ATOM     21  O   UNL     1       7.892   4.005  -3.528  0.00  0.00    -0.274 OA
ATOM     22  N   UNL     1       9.889   3.327  -2.837  0.00  0.00    -0.234 N 
ATOM     23  H   UNL     1      10.466   3.082  -2.098  0.00  0.00    +0.173 HD
BRANCH  22  24
ATOM     24  N   UNL     1      10.379   3.296  -4.149  0.00  0.00    -0.230 N 
ATOM     25  C   UNL     1      11.654   2.925  -4.384  0.00  0.00    +0.260 C 
ATOM     26  O   UNL     1      12.377   2.618  -3.457  0.00  0.00    -0.269 OA
ATOM     27  H   UNL     1       9.802   3.542  -4.889  0.00  0.00    +0.173 HD
BRANCH  25  28
ATOM     28  C   UNL     1      12.171   2.893  -5.768  0.00  0.00    +0.038 A 
ATOM     29  C   UNL     1      11.341   3.240  -6.835  0.00  0.00    +0.015 A 
ATOM     30  C   UNL     1      11.832   3.211  -8.124  0.00  0.00    +0.033 A 
ATOM     31  C   UNL     1      13.140   2.830  -8.362  0.00  0.00    +0.126 A 
ATOM     32  C   UNL     1      13.967   2.480  -7.309  0.00  0.00    +0.033 A 
ATOM     33  C   UNL     1      13.490   2.509  -6.014  0.00  0.00    +0.015 A 
BRANCH  31  34
ATOM     34  N   UNL     1      13.659   2.796  -9.748  0.00  0.00    +0.056 N 
ATOM     35  O   UNL     1      14.810   2.462  -9.960  0.00  0.00    -0.126 OA
ATOM     36  O   UNL     1      12.933   3.104 -10.677  0.00  0.00    -0.126 OA
ENDBRANCH  31  34
ENDBRANCH  25  28
ENDBRANCH  22  24
ENDBRANCH  19  20
ENDBRANCH   1  19
TORSDOF 9
