REMARK  Name = ZINC40958135
REMARK  6 active torsions:
REMARK  status: ('A' for Active; 'I' for Inactive)
REMARK    1  A    between atoms: C_5  and  C_7
REMARK    2  A    between atoms: C_8  and  C_9
REMARK    3  A    between atoms: N_11  and  C_12
REMARK    4  A    between atoms: N_15  and  C_18
REMARK    5  A    between atoms: C_18  and  C_19
REMARK    6  A    between atoms: C_21  and  C_24
REMARK                            x       y       z     vdW  Elec       q    Type
REMARK                         _______ _______ _______ _____ _____    ______ ____
ROOT
ATOM      1  C   UNL     1      -0.998  -6.476  -0.024  0.00  0.00    +0.070 C 
ATOM      2  C   UNL     1      -0.886  -6.978  -1.467  0.00  0.00    +0.004 C 
ATOM      3  C   UNL     1      -0.937  -8.507  -1.475  0.00  0.00    -0.076 C 
ATOM      4  N   UNL     1      -2.206  -8.961  -0.894  0.00  0.00    +0.386 N 
ATOM      5  C   UNL     1      -2.288  -8.545   0.511  0.00  0.00    -0.076 C 
ATOM      6  C   UNL     1      -2.289  -7.017   0.595  0.00  0.00    +0.004 C 
ATOM      7  H   UNL     1      -2.974  -8.557  -1.409  0.00  0.00    -0.081 HD
ENDROOT
BRANCH   1  10
ATOM      8  C   UNL     1       0.128  -4.315  -0.023  0.00  0.00    +0.237 C 
ATOM      9  O   UNL     1       1.193  -4.903  -0.037  0.00  0.00    -0.271 OA
ATOM     10  N   UNL     1      -1.026  -5.012  -0.016  0.00  0.00    -0.309 N 
ATOM     11  H   UNL     1      -1.876  -4.543  -0.005  0.00  0.00    +0.149 HD
BRANCH   8  13
ATOM     12  C   UNL     1       1.253  -2.155  -0.022  0.00  0.00    +0.014 C 
ATOM     13  C   UNL     1       0.099  -2.852  -0.015  0.00  0.00    +0.068 C 
BRANCH  12  18
ATOM     14  C   UNL     1      -0.017   1.374   0.010  0.00  0.00    +0.001 A 
ATOM     15  C   UNL     1       1.170   2.087   0.002  0.00  0.00    +0.001 A 
ATOM     16  C   UNL     1       2.384   1.424  -0.013  0.00  0.00    +0.020 A 
ATOM     17  C   UNL     1       2.420   0.044  -0.021  0.00  0.00    +0.048 A 
ATOM     18  C   UNL     1       1.225  -0.683  -0.013  0.00  0.00    -0.007 A 
ATOM     19  C   UNL     1       0.002  -0.004   0.002  0.00  0.00    +0.009 A 
ATOM     20 CL   UNL     1       3.945  -0.787  -0.040  0.00  0.00    -0.083 Cl
ENDBRANCH  12  18
ENDBRANCH   8  13
ENDBRANCH   1  10
BRANCH   4  21
ATOM     21  C   UNL     1      -2.284 -10.426  -0.975  0.00  0.00    +0.022 C 
BRANCH  21  22
ATOM     22  C   UNL     1      -3.636 -10.885  -0.493  0.00  0.00    +0.211 A 
ATOM     23  N   UNL     1      -4.694 -11.047  -1.235  0.00  0.00    -0.193 NA
ATOM     24  C   UNL     1      -5.726 -11.466  -0.481  0.00  0.00    +0.202 A 
ATOM     25  N   UNL     1      -5.321 -11.573   0.760  0.00  0.00    -0.056 NA
ATOM     26  O   UNL     1      -3.951 -11.200   0.770  0.00  0.00    -0.340 OA
BRANCH  24  27
ATOM     27  C   UNL     1      -7.095 -11.758  -0.973  0.00  0.00    +0.023 A 
ATOM     28  C   UNL     1      -7.398 -11.610  -2.325  0.00  0.00    +0.013 A 
ATOM     29  C   UNL     1      -8.673 -11.883  -2.777  0.00  0.00    +0.021 A 
ATOM     30  C   UNL     1      -9.650 -12.303  -1.891  0.00  0.00    +0.041 A 
ATOM     31  C   UNL     1      -9.353 -12.452  -0.547  0.00  0.00    +0.021 A 
ATOM     32  C   UNL     1      -8.079 -12.188  -0.086  0.00  0.00    +0.013 A 
ATOM     33 CL   UNL     1     -11.252 -12.645  -2.466  0.00  0.00    -0.084 Cl
ENDBRANCH  24  27
ENDBRANCH  21  22
ENDBRANCH   4  21
TORSDOF 6
