REMARK  Name = ZINC39223214
REMARK  10 active torsions:
REMARK  status: ('A' for Active; 'I' for Inactive)
REMARK    1  A    between atoms: C_1  and  C_2
REMARK    2  A    between atoms: C_2  and  C_3
REMARK    3  A    between atoms: C_2  and  C_4
REMARK    4  A    between atoms: C_2  and  C_5
REMARK    5  A    between atoms: C_8  and  C_10
REMARK    6  A    between atoms: C_12  and  C_37
REMARK    7  A    between atoms: C_13  and  N_36
REMARK    8  A    between atoms: N_14  and  N_22
REMARK    9  A    between atoms: N_22  and  C_23
REMARK   10  A    between atoms: C_24  and  C_30
REMARK                            x       y       z     vdW  Elec       q    Type
REMARK                         _______ _______ _______ _____ _____    ______ ____
ROOT
ATOM      1  C   UNL     1       1.802  -1.931  -4.833  0.00  0.00    +0.104 C 
ATOM      2  C   UNL     1       1.461  -3.390  -4.903  0.00  0.00    +0.079 C 
ATOM      3  C   UNL     1       0.293  -3.812  -5.453  0.00  0.00    +0.119 C 
ATOM      4  N   UNL     1      -0.598  -2.899  -5.965  0.00  0.00    -0.211 N 
ATOM      5  C   UNL     1      -0.187  -1.636  -6.296  0.00  0.00    +0.039 C 
ATOM      6  C   UNL     1       0.955  -1.129  -5.789  0.00  0.00    +0.027 C 
ATOM      7  C   UNL     1       1.391   0.161  -6.137  0.00  0.00    +0.162 C 
ATOM      8  O   UNL     1       2.421   0.591  -5.657  0.00  0.00    -0.292 OA
ATOM      9  C   UNL     1       0.607   1.018  -7.092  0.00  0.00    +0.080 C 
ATOM     10  C   UNL     1      -0.165   0.113  -8.057  0.00  0.00    +0.014 C 
ATOM     11  C   UNL     1      -1.046  -0.827  -7.237  0.00  0.00    +0.053 C 
ENDROOT
BRANCH   1  15
ATOM     12  C   UNL     1       0.711  -0.711  -0.977  0.00  0.00    -0.005 A 
ATOM     13  C   UNL     1       1.992  -0.446  -1.330  0.00  0.00    +0.012 A 
ATOM     14  C   UNL     1       2.432  -0.817  -2.587  0.00  0.00    +0.012 A 
ATOM     15  C   UNL     1       1.568  -1.435  -3.429  0.00  0.00    +0.003 A 
ATOM     16  S   UNL     1       0.083  -1.515  -2.442  0.00  0.00    -0.097 S 
BRANCH  12  18
ATOM     17  C   UNL     1      -0.105   1.104   0.502  0.00  0.00    +0.016 C 
ATOM     18  C   UNL     1       0.002  -0.411   0.319  0.00  0.00    -0.006 C 
ATOM     19  C   UNL     1       0.792  -1.012   1.483  0.00  0.00    +0.016 C 
ATOM     20  C   UNL     1      -1.401  -1.021   0.286  0.00  0.00    +0.016 C 
ENDBRANCH  12  18
ENDBRANCH   1  15
BRANCH   3  21
ATOM     21  N   UNL     1       0.001  -5.154  -5.499  0.00  0.00    -0.344 N 
ATOM     22  H   UNL     1       0.629  -5.799  -5.138  0.00  0.00    +0.144 HD
ATOM     23  H   UNL     1      -0.832  -5.456  -5.892  0.00  0.00    +0.144 HD
ENDBRANCH   3  21
BRANCH   4  24
ATOM     24  N   UNL     1      -1.937  -3.265  -6.151  0.00  0.00    -0.260 N 
ATOM     25  H   UNL     1      -2.272  -3.446  -7.043  0.00  0.00    +0.170 HD
BRANCH  24  26
ATOM     26  C   UNL     1      -2.763  -3.365  -5.087  0.00  0.00    +0.059 C 
ATOM     27  C   UNL     1      -4.071  -3.826  -5.214  0.00  0.00    +0.110 C 
ATOM     28  N   UNL     1      -4.870  -3.919  -4.160  0.00  0.00    -0.155 NA
ATOM     29  N   UNL     1      -4.565  -3.616  -2.959  0.00  0.00    -0.080 NA
ATOM     30  C   UNL     1      -3.360  -3.151  -2.598  0.00  0.00    +0.260 C 
ATOM     31  O   UNL     1      -3.113  -2.876  -1.441  0.00  0.00    -0.272 OA
ATOM     32  C   UNL     1      -2.313  -2.987  -3.685  0.00  0.00    +0.153 C 
BRANCH  27  33
ATOM     33  C   UNL     1      -4.578  -4.218  -6.551  0.00  0.00    +0.003 A 
ATOM     34  C   UNL     1      -3.825  -5.062  -7.365  0.00  0.00    +0.010 A 
ATOM     35  C   UNL     1      -4.303  -5.424  -8.608  0.00  0.00    +0.001 A 
ATOM     36  C   UNL     1      -5.527  -4.952  -9.046  0.00  0.00    +0.000 A 
ATOM     37  C   UNL     1      -6.279  -4.114  -8.242  0.00  0.00    +0.001 A 
ATOM     38  C   UNL     1      -5.814  -3.749  -6.995  0.00  0.00    +0.010 A 
ENDBRANCH  27  33
ENDBRANCH  24  26
ENDBRANCH   4  24
BRANCH   2  39
ATOM     39  C   UNL     1       2.382  -4.355  -4.380  0.00  0.00    +0.099 C 
ATOM     40  N   UNL     1       3.113  -5.120  -3.966  0.00  0.00    -0.191 NA
ENDBRANCH   2  39
TORSDOF 7
