REMARK  Name = ZINC39908889
REMARK  7 active torsions:
REMARK  status: ('A' for Active; 'I' for Inactive)
REMARK    1  A    between atoms: C_1  and  N_2
REMARK    2  A    between atoms: C_3  and  C_19
REMARK    3  A    between atoms: C_22  and  O_27
REMARK    4  A    between atoms: C_23  and  O_25
REMARK    5  A    between atoms: O_25  and  C_26
REMARK    6  A    between atoms: O_27  and  C_28
REMARK    7  A    between atoms: C_28  and  C_29
REMARK                            x       y       z     vdW  Elec       q    Type
REMARK                         _______ _______ _______ _____ _____    ______ ____
ROOT
ATOM      1  C   UNL     1      -0.018   1.461   0.010  0.00  0.00    +0.133 C 
ATOM      2  N   UNL     1       0.002  -0.004   0.002  0.00  0.00    -0.287 N 
ATOM      3  C   UNL     1      -1.177  -0.885   0.003  0.00  0.00    +0.144 C 
ATOM      4  C   UNL     1      -0.644  -2.280  -0.005  0.00  0.00    +0.072 A 
ATOM      5  C   UNL     1      -1.329  -3.577   0.001  0.00  0.00    +0.199 A 
ATOM      6  O   UNL     1      -2.530  -3.697  -0.162  0.00  0.00    -0.287 OA
ATOM      7  C   UNL     1      -0.419  -4.729   0.224  0.00  0.00    +0.066 A 
ATOM      8  C   UNL     1      -0.937  -6.003   0.455  0.00  0.00    +0.035 A 
ATOM      9  C   UNL     1      -0.077  -7.059   0.665  0.00  0.00    +0.042 A 
ATOM     10  C   UNL     1       1.296  -6.853   0.647  0.00  0.00    +0.023 A 
ATOM     11  C   UNL     1       1.818  -5.600   0.418  0.00  0.00    +0.048 A 
ATOM     12  C   UNL     1       0.969  -4.515   0.201  0.00  0.00    +0.140 A 
ATOM     13  O   UNL     1       1.509  -3.296  -0.032  0.00  0.00    -0.450 OA
ATOM     14  C   UNL     1       0.720  -2.204  -0.016  0.00  0.00    +0.199 A 
ATOM     15  C   UNL     1       1.104  -0.781  -0.013  0.00  0.00    +0.283 C 
ATOM     16  O   UNL     1       2.247  -0.369  -0.021  0.00  0.00    -0.267 OA
ATOM     17 CL   UNL     1      -0.712  -8.649   0.953  0.00  0.00    -0.084 Cl
ENDROOT
BRANCH   3  18
ATOM     18  C   UNL     1      -2.002  -0.649   1.242  0.00  0.00    -0.019 A 
ATOM     19  C   UNL     1      -1.376  -0.408   2.451  0.00  0.00    +0.009 A 
ATOM     20  C   UNL     1      -2.128  -0.192   3.591  0.00  0.00    +0.050 A 
ATOM     21  C   UNL     1      -3.511  -0.215   3.523  0.00  0.00    +0.162 A 
ATOM     22  C   UNL     1      -4.141  -0.457   2.306  0.00  0.00    +0.162 A 
ATOM     23  C   UNL     1      -3.382  -0.669   1.166  0.00  0.00    +0.055 A 
BRANCH  22  24
ATOM     24  O   UNL     1      -5.499  -0.481   2.234  0.00  0.00    -0.491 OA
ATOM     25  C   UNL     1      -6.077  -0.736   0.952  0.00  0.00    +0.277 C 
ENDBRANCH  22  24
BRANCH  21  26
ATOM     26  O   UNL     1      -4.252  -0.003   4.643  0.00  0.00    -0.484 OA
BRANCH  26  27
ATOM     27  C   UNL     1      -3.538   0.239   5.857  0.00  0.00    +0.256 C 
BRANCH  27  28
ATOM     28  C   UNL     1      -4.518   0.451   6.983  0.00  0.00    +0.006 C 
ATOM     29  C   UNL     1      -4.328  -0.140   8.136  0.00  0.00    +0.007 C 
ENDBRANCH  27  28
ENDBRANCH  26  27
ENDBRANCH  21  26
ENDBRANCH   3  18
TORSDOF 5
