REMARK  Name = ZINC39933632
REMARK  7 active torsions:
REMARK  status: ('A' for Active; 'I' for Inactive)
REMARK    1  A    between atoms: C_1  and  N_2
REMARK    2  A    between atoms: C_3  and  C_27
REMARK    3  A    between atoms: C_6  and  S_7
REMARK    4  A    between atoms: S_7  and  C_8
REMARK    5  A    between atoms: C_8  and  C_10
REMARK    6  A    between atoms: C_8  and  C_16
REMARK    7  A    between atoms: C_16  and  C_18
REMARK                            x       y       z     vdW  Elec       q    Type
REMARK                         _______ _______ _______ _____ _____    ______ ____
ROOT
ATOM      1  C   UNL     1       0.405  -1.911   3.669  0.00  0.00    +0.155 C 
ENDROOT
BRANCH   1   2
ATOM      2  C   UNL     1       1.625  -2.696   3.263  0.00  0.00    -0.027 A 
ATOM      3  C   UNL     1       2.886  -2.166   3.460  0.00  0.00    +0.005 A 
ATOM      4  C   UNL     1       4.006  -2.886   3.087  0.00  0.00    +0.000 A 
ATOM      5  C   UNL     1       3.864  -4.137   2.517  0.00  0.00    +0.000 A 
ATOM      6  C   UNL     1       2.603  -4.668   2.320  0.00  0.00    +0.000 A 
ATOM      7  C   UNL     1       1.484  -3.950   2.697  0.00  0.00    +0.005 A 
ENDBRANCH   1   2
BRANCH   1   8
ATOM      8  C   UNL     1       0.459  -1.629   5.149  0.00  0.00    +0.179 C 
ATOM      9  O   UNL     1       0.913  -0.577   5.550  0.00  0.00    -0.291 OA
BRANCH   8  10
ATOM     10  C   UNL     1      -0.018  -2.588   6.068  0.00  0.00    +0.025 C 
ATOM     11  C   UNL     1      -0.045  -2.484   7.447  0.00  0.00    +0.006 A 
ATOM     12  C   UNL     1       0.361  -1.468   8.343  0.00  0.00    +0.010 A 
ATOM     13  C   UNL     1       0.215  -1.638   9.677  0.00  0.00    +0.001 A 
ATOM     14  C   UNL     1      -0.336  -2.804  10.232  0.00  0.00    +0.002 A 
ATOM     15  C   UNL     1      -0.755  -3.833   9.464  0.00  0.00    +0.026 A 
ATOM     16  C   UNL     1      -0.631  -3.729   8.001  0.00  0.00    +0.043 A 
ATOM     17  N   UNL     1      -0.948  -4.552   7.042  0.00  0.00    -0.380 N 
ATOM     18  C   UNL     1      -0.613  -3.943   5.750  0.00  0.00    +0.152 C 
ATOM     19  H   UNL     1      -1.346  -5.428   7.162  0.00  0.00    +0.160 HD
ENDBRANCH   8  10
ENDBRANCH   1   8
BRANCH   1  20
ATOM     20  S   UNL     1       0.362  -0.344   2.757  0.00  0.00    -0.070 S 
BRANCH  20  26
ATOM     21  C   UNL     1       0.119   1.459  -0.004  0.00  0.00    +0.153 C 
ATOM     22  N   UNL     1       0.062  -0.005  -0.004  0.00  0.00    -0.305 N 
ATOM     23  C   UNL     1      -0.087  -0.831  -1.094  0.00  0.00    +0.167 A 
ATOM     24  N   UNL     1      -0.086  -2.064  -0.646  0.00  0.00    -0.128 NA
ATOM     25  N   UNL     1       0.051  -2.067   0.632  0.00  0.00    -0.122 NA
ATOM     26  C   UNL     1       0.153  -0.835   1.077  0.00  0.00    +0.193 A 
BRANCH  23  27
ATOM     27  C   UNL     1      -0.223  -0.408  -2.504  0.00  0.00    +0.054 A 
ATOM     28  C   UNL     1       0.647   0.544  -3.038  0.00  0.00    +0.014 A 
ATOM     29  C   UNL     1       0.516   0.933  -4.354  0.00  0.00    +0.001 A 
ATOM     30  C   UNL     1      -0.476   0.383  -5.147  0.00  0.00    +0.003 A 
ATOM     31  C   UNL     1      -1.342  -0.561  -4.627  0.00  0.00    +0.039 A 
ATOM     32  C   UNL     1      -1.219  -0.965  -3.311  0.00  0.00    +0.134 A 
ATOM     33  F   UNL     1      -2.062  -1.892  -2.805  0.00  0.00    -0.205 F 
ENDBRANCH  23  27
ENDBRANCH  20  26
ENDBRANCH   1  20
TORSDOF 6
