REMARK  Name = ZINC14161371
REMARK  9 active torsions:
REMARK  status: ('A' for Active; 'I' for Inactive)
REMARK    1  A    between atoms: C_1  and  C_2
REMARK    2  A    between atoms: C_4  and  C_36
REMARK    3  A    between atoms: C_6  and  N_8
REMARK    4  A    between atoms: N_10  and  C_11
REMARK    5  A    between atoms: C_11  and  N_13
REMARK    6  A    between atoms: N_13  and  C_14
REMARK    7  A    between atoms: N_18  and  C_21
REMARK    8  A    between atoms: C_21  and  C_22
REMARK    9  A    between atoms: C_21  and  C_29
REMARK                            x       y       z     vdW  Elec       q    Type
REMARK                         _______ _______ _______ _____ _____    ______ ____
ROOT
ATOM      1  N   UNL     1       0.137  -2.369   1.919  0.00  0.00    -0.181 NA
ATOM      2  C   UNL     1       0.406  -1.888   3.114  0.00  0.00    +0.192 C 
ATOM      3  N   UNL     1      -0.132  -0.687   3.509  0.00  0.00    -0.269 N 
ATOM      4  N   UNL     1       1.223  -2.584   3.963  0.00  0.00    -0.300 N 
ATOM      5  C   UNL     1       2.107  -1.881   4.905  0.00  0.00    +0.123 C 
ATOM      6  C   UNL     1       3.527  -2.438   4.747  0.00  0.00    +0.104 C 
ATOM      7  N   UNL     1       3.496  -3.899   4.896  0.00  0.00    -0.289 NA
ATOM      8  C   UNL     1       2.692  -4.526   3.838  0.00  0.00    +0.104 C 
ATOM      9  C   UNL     1       1.234  -4.055   3.963  0.00  0.00    +0.123 C 
ATOM     10  H   UNL     1      -0.244   0.030   2.864  0.00  0.00    +0.156 HD
ENDROOT
BRANCH   1  16
ATOM     11  C   UNL     1      -3.332   0.891   1.524  0.00  0.00    +0.066 C 
ATOM     12  C   UNL     1      -2.483  -0.203   0.929  0.00  0.00    +0.044 A 
ATOM     13  C   UNL     1      -2.662  -0.591  -0.390  0.00  0.00    +0.046 A 
ATOM     14  C   UNL     1      -1.861  -1.601  -0.901  0.00  0.00    +0.044 A 
ATOM     15  N   UNL     1      -0.955  -2.164  -0.121  0.00  0.00    -0.216 NA
ATOM     16  C   UNL     1      -0.806  -1.770   1.141  0.00  0.00    +0.253 A 
ATOM     17  N   UNL     1      -1.556  -0.800   1.658  0.00  0.00    -0.216 NA
ATOM     18  C   UNL     1      -2.023  -2.053  -2.329  0.00  0.00    +0.066 C 
ENDBRANCH   1  16
BRANCH   3  19
ATOM     19  C   UNL     1      -0.505  -0.504   4.791  0.00  0.00    +0.136 C 
ATOM     20  S   UNL     1      -0.255  -1.748   5.940  0.00  0.00    -0.019 S 
BRANCH  19  21
ATOM     21  N   UNL     1      -1.075   0.658   5.168  0.00  0.00    -0.329 N 
ATOM     22  C   UNL     1      -1.480   0.856   6.562  0.00  0.00    +0.127 C 
ATOM     23  H   UNL     1      -1.217   1.362   4.517  0.00  0.00    +0.147 HD
ENDBRANCH  19  21
ENDBRANCH   3  19
BRANCH   7  24
ATOM     24  C   UNL     1       4.856  -4.454   4.923  0.00  0.00    +0.117 C 
BRANCH  24  25
ATOM     25  C   UNL     1       5.624  -3.846   6.068  0.00  0.00    -0.026 A 
ATOM     26  C   UNL     1       5.036  -3.740   7.315  0.00  0.00    +0.008 A 
ATOM     27  C   UNL     1       5.740  -3.184   8.366  0.00  0.00    +0.038 A 
ATOM     28  C   UNL     1       7.034  -2.732   8.170  0.00  0.00    +0.123 A 
ATOM     29  C   UNL     1       7.622  -2.839   6.920  0.00  0.00    +0.038 A 
ATOM     30  C   UNL     1       6.918  -3.401   5.872  0.00  0.00    +0.008 A 
ATOM     31  F   UNL     1       7.723  -2.187   9.196  0.00  0.00    -0.205 F 
ENDBRANCH  24  25
BRANCH  24  32
ATOM     32  C   UNL     1       4.785  -5.949   5.102  0.00  0.00    -0.026 A 
ATOM     33  C   UNL     1       3.854  -6.497   5.965  0.00  0.00    +0.008 A 
ATOM     34  C   UNL     1       3.788  -7.867   6.130  0.00  0.00    +0.038 A 
ATOM     35  C   UNL     1       4.654  -8.691   5.431  0.00  0.00    +0.123 A 
ATOM     36  C   UNL     1       5.585  -8.141   4.567  0.00  0.00    +0.038 A 
ATOM     37  C   UNL     1       5.646  -6.770   4.399  0.00  0.00    +0.008 A 
ATOM     38  F   UNL     1       4.590 -10.031   5.592  0.00  0.00    -0.205 F 
ENDBRANCH  24  32
ENDBRANCH   7  24
TORSDOF 6
