REMARK  Name = ZINC14233299
REMARK  6 active torsions:
REMARK  status: ('A' for Active; 'I' for Inactive)
REMARK    1  A    between atoms: C_3  and  C_6
REMARK    2  A    between atoms: C_6  and  N_7
REMARK    3  A    between atoms: N_7  and  C_8
REMARK    4  A    between atoms: N_7  and  C_27
REMARK    5  A    between atoms: C_8  and  N_9
REMARK    6  A    between atoms: N_14  and  C_17
REMARK                            x       y       z     vdW  Elec       q    Type
REMARK                         _______ _______ _______ _____ _____    ______ ____
ROOT
ATOM      1  N   UNL     1       5.863   3.665   2.176  0.00  0.00    -0.204 N 
ATOM      2  C   UNL     1       5.403   4.875   2.561  0.00  0.00    +0.311 C 
ATOM      3  O   UNL     1       4.540   5.537   2.024  0.00  0.00    -0.264 OA
ATOM      4  C   UNL     1       6.185   5.227   3.791  0.00  0.00    +0.310 C 
ATOM      5  O   UNL     1       6.088   6.234   4.460  0.00  0.00    -0.264 OA
ATOM      6  N   UNL     1       7.020   4.185   3.996  0.00  0.00    -0.211 N 
ATOM      7  C   UNL     1       6.815   3.268   3.037  0.00  0.00    +0.320 C 
ATOM      8  O   UNL     1       7.415   2.215   2.956  0.00  0.00    -0.251 OA
ENDROOT
BRANCH   6   9
ATOM      9  C   UNL     1       7.989   4.072   5.089  0.00  0.00    +0.047 C 
ATOM     10  C   UNL     1       7.668   2.834   5.928  0.00  0.00    +0.030 C 
ATOM     11  C   UNL     1       8.680   2.716   7.070  0.00  0.00    -0.008 C 
ATOM     12  C   UNL     1       8.602   3.964   7.952  0.00  0.00    +0.007 C 
ATOM     13  C   UNL     1       8.923   5.202   7.112  0.00  0.00    -0.008 C 
ATOM     14  C   UNL     1       7.911   5.320   5.971  0.00  0.00    +0.030 C 
ATOM     15  C   UNL     1      10.333   5.074   6.533  0.00  0.00    +0.007 C 
ATOM     16  C   UNL     1      10.411   3.826   5.652  0.00  0.00    -0.008 C 
ATOM     17  C   UNL     1      10.090   2.588   6.491  0.00  0.00    +0.007 C 
ATOM     18  C   UNL     1       9.399   3.944   4.510  0.00  0.00    +0.030 C 
ENDBRANCH   6   9
BRANCH   1  19
ATOM     19  C   UNL     1       5.397   2.906   1.013  0.00  0.00    +0.206 C 
BRANCH  19  20
ATOM     20  N   UNL     1       4.116   2.261   1.331  0.00  0.00    -0.277 NA
BRANCH  20  21
ATOM     21  C   UNL     1       4.326   1.009   2.072  0.00  0.00    +0.081 C 
ATOM     22  C   UNL     1       3.068   0.685   2.894  0.00  0.00    +0.043 C 
ATOM     23  C   UNL     1       3.190  -0.777   3.410  0.00  0.00    +0.167 C 
ATOM     24  S   UNL     1       3.896  -1.602   1.921  0.00  0.00    -0.029 S 
ATOM     25  O   UNL     1       4.951  -2.464   2.327  0.00  0.00    -0.174 OA
ATOM     26  O   UNL     1       2.834  -2.120   1.133  0.00  0.00    -0.174 OA
ATOM     27  C   UNL     1       4.612  -0.137   1.072  0.00  0.00    +0.184 C 
ENDBRANCH  20  21
BRANCH  20  28
ATOM     28  C   UNL     1       3.328   2.026   0.114  0.00  0.00    +0.128 C 
BRANCH  28  31
ATOM     29  C   UNL     1      -0.257   1.519   1.299  0.00  0.00    +0.008 A 
ATOM     30  C   UNL     1       0.918   2.196   1.034  0.00  0.00    +0.012 A 
ATOM     31  C   UNL     1       1.960   1.519   0.491  0.00  0.00    +0.004 A 
ATOM     32  S   UNL     1       1.289  -0.129   0.339  0.00  0.00    -0.100 S 
ATOM     33  C   UNL     1      -0.333   0.197   1.009  0.00  0.00    +0.045 A 
ENDBRANCH  28  31
ENDBRANCH  20  28
ENDBRANCH  19  20
ENDBRANCH   1  19
TORSDOF 6
