REMARK  Name = ZINC18068136
REMARK  7 active torsions:
REMARK  status: ('A' for Active; 'I' for Inactive)
REMARK    1  A    between atoms: C_1  and  C_2
REMARK    2  A    between atoms: C_2  and  O_3
REMARK    3  A    between atoms: O_3  and  C_4
REMARK    4  A    between atoms: C_6  and  C_11
REMARK    5  A    between atoms: C_9  and  O_10
REMARK    6  A    between atoms: N_19  and  C_22
REMARK    7  A    between atoms: N_29  and  C_30
REMARK                            x       y       z     vdW  Elec       q    Type
REMARK                         _______ _______ _______ _____ _____    ______ ____
ROOT
ATOM      1  C   UNL     1       0.744  -4.712  -0.298  0.00  0.00    +0.157 C 
ATOM      2  C   UNL     1       0.875  -5.541  -1.597  0.00  0.00    +0.145 C 
ATOM      3  C   UNL     1       0.247  -6.909  -1.216  0.00  0.00    +0.249 C 
ATOM      4  C   UNL     1       1.424  -7.857  -1.251  0.00  0.00    +0.259 C 
ATOM      5  O   UNL     1       1.377  -9.043  -1.004  0.00  0.00    -0.272 OA
ATOM      6  N   UNL     1       2.527  -7.183  -1.598  0.00  0.00    -0.208 N 
ATOM      7  C   UNL     1       2.336  -5.860  -1.830  0.00  0.00    +0.235 C 
ATOM      8  O   UNL     1       3.183  -5.060  -2.164  0.00  0.00    -0.274 OA
ATOM      9  O   UNL     1      -0.222  -6.758   0.136  0.00  0.00    -0.257 OA
ATOM     10  N   UNL     1       0.607  -5.753   0.749  0.00  0.00    -0.244 N 
ENDROOT
BRANCH   1  13
ATOM     11  C   UNL     1      -1.481  -1.680  -0.657  0.00  0.00    +0.162 A 
ATOM     12  C   UNL     1      -0.355  -2.487  -0.614  0.00  0.00    +0.055 A 
ATOM     13  C   UNL     1      -0.481  -3.837  -0.345  0.00  0.00    -0.018 A 
ATOM     14  C   UNL     1      -1.730  -4.386  -0.119  0.00  0.00    +0.009 A 
ATOM     15  C   UNL     1      -2.857  -3.587  -0.161  0.00  0.00    +0.049 A 
ATOM     16  C   UNL     1      -2.737  -2.232  -0.424  0.00  0.00    +0.158 A 
BRANCH  16  17
ATOM     17  O   UNL     1      -3.845  -1.443  -0.460  0.00  0.00    -0.503 OA
ATOM     18  H   UNL     1      -4.253  -1.379  -1.334  0.00  0.00    +0.292 HD
ENDBRANCH  16  17
BRANCH  11  19
ATOM     19  O   UNL     1      -1.358  -0.352  -0.921  0.00  0.00    -0.489 OA
BRANCH  19  21
ATOM     20  C   UNL     1      -0.100   1.648  -1.429  0.00  0.00    +0.048 C 
ATOM     21  C   UNL     1      -0.038   0.145  -1.151  0.00  0.00    +0.226 C 
ENDBRANCH  19  21
ENDBRANCH  11  19
ENDBRANCH   1  13
BRANCH   6  22
ATOM     22  C   UNL     1       3.783  -7.795  -1.721  0.00  0.00    +0.044 A 
ATOM     23  C   UNL     1       4.798  -7.482  -0.828  0.00  0.00    +0.024 A 
ATOM     24  C   UNL     1       6.034  -8.086  -0.951  0.00  0.00    +0.002 A 
ATOM     25  C   UNL     1       6.260  -9.002  -1.963  0.00  0.00    +0.000 A 
ATOM     26  C   UNL     1       5.250  -9.315  -2.854  0.00  0.00    +0.002 A 
ATOM     27  C   UNL     1       4.011  -8.718  -2.732  0.00  0.00    +0.024 A 
ENDBRANCH   6  22
BRANCH  10  28
ATOM     28  C   UNL     1       1.152  -5.750   2.035  0.00  0.00    +0.065 A 
ATOM     29  C   UNL     1       1.924  -4.676   2.461  0.00  0.00    +0.028 A 
ATOM     30  C   UNL     1       2.462  -4.676   3.733  0.00  0.00    +0.002 A 
ATOM     31  C   UNL     1       2.233  -5.743   4.582  0.00  0.00    +0.000 A 
ATOM     32  C   UNL     1       1.465  -6.814   4.161  0.00  0.00    +0.002 A 
ATOM     33  C   UNL     1       0.920  -6.818   2.892  0.00  0.00    +0.028 A 
ENDBRANCH  10  28
TORSDOF 6
