REMARK  Name = ZINC45739769
REMARK  8 active torsions:
REMARK  status: ('A' for Active; 'I' for Inactive)
REMARK    1  A    between atoms: C_4  and  C_7
REMARK    2  A    between atoms: C_7  and  C_8
REMARK    3  A    between atoms: N_10  and  C_11
REMARK    4  A    between atoms: C_11  and  C_12
REMARK    5  A    between atoms: C_12  and  C_13
REMARK    6  A    between atoms: C_13  and  O_15
REMARK    7  A    between atoms: O_15  and  C_16
REMARK    8  A    between atoms: C_16  and  C_17
REMARK                            x       y       z     vdW  Elec       q    Type
REMARK                         _______ _______ _______ _____ _____    ______ ____
ROOT
ATOM      1  C   UNL     1      10.389  -4.437   6.038  0.00  0.00    +0.258 C 
ATOM      2  O   UNL     1      11.003  -4.624   5.009  0.00  0.00    -0.271 OA
ATOM      3  N   UNL     1      10.985  -4.653   7.227  0.00  0.00    -0.252 N 
ATOM      4  C   UNL     1      10.351  -4.301   8.430  0.00  0.00    +0.059 A 
ATOM      5  C   UNL     1       9.437  -3.263   8.476  0.00  0.00    +0.025 A 
ATOM      6  C   UNL     1       8.829  -2.937   9.675  0.00  0.00    +0.002 A 
ATOM      7  C   UNL     1       9.134  -3.643  10.823  0.00  0.00    +0.002 A 
ATOM      8  C   UNL     1      10.046  -4.682  10.784  0.00  0.00    +0.025 A 
ATOM      9  C   UNL     1      10.658  -5.018   9.587  0.00  0.00    +0.055 A 
ATOM     10  N   UNL     1      11.576  -6.073   9.528  0.00  0.00    -0.282 N 
ATOM     11  C   UNL     1      12.368  -6.236   8.450  0.00  0.00    +0.241 C 
ATOM     12  O   UNL     1      13.131  -7.178   8.403  0.00  0.00    -0.273 OA
ATOM     13  C   UNL     1      12.314  -5.268   7.306  0.00  0.00    +0.118 C 
ATOM     14  C   UNL     1      13.383  -4.178   7.492  0.00  0.00    +0.036 C 
ATOM     15  C   UNL     1      14.583  -4.676   6.647  0.00  0.00    +0.003 C 
ATOM     16  C   UNL     1      13.893  -5.308   5.412  0.00  0.00    +0.003 C 
ATOM     17  C   UNL     1      12.634  -5.990   5.989  0.00  0.00    +0.036 C 
ATOM     18  H   UNL     1      11.644  -6.692  10.271  0.00  0.00    +0.155 HD
ENDROOT
BRANCH   1  19
ATOM     19  C   UNL     1       8.959  -3.963   5.987  0.00  0.00    +0.328 C 
BRANCH  19  20
ATOM     20  O   UNL     1       8.401  -4.268   4.707  0.00  0.00    -0.455 OA
BRANCH  20  21
ATOM     21  C   UNL     1       7.125  -3.909   4.497  0.00  0.00    +0.309 C 
ATOM     22  O   UNL     1       6.502  -3.354   5.371  0.00  0.00    -0.251 OA
BRANCH  21  23
ATOM     23  C   UNL     1       6.469  -4.198   3.172  0.00  0.00    +0.139 C 
BRANCH  23  24
ATOM     24  C   UNL     1       5.026  -3.691   3.195  0.00  0.00    +0.115 C 
BRANCH  24  27
ATOM     25  C   UNL     1       3.107  -3.611   1.696  0.00  0.00    +0.217 C 
ATOM     26  O   UNL     1       2.482  -3.054   2.573  0.00  0.00    -0.275 OA
ATOM     27  N   UNL     1       4.389  -3.972   1.907  0.00  0.00    -0.315 N 
ATOM     28  H   UNL     1       4.889  -4.418   1.205  0.00  0.00    +0.149 HD
BRANCH  25  29
ATOM     29  C   UNL     1       2.451  -3.901   0.370  0.00  0.00    +0.130 C 
BRANCH  29  33
ATOM     30  C   UNL     1      -1.578  -2.484   0.434  0.00  0.00    +0.000 A 
ATOM     31  C   UNL     1      -0.559  -1.651   0.011  0.00  0.00    +0.000 A 
ATOM     32  C   UNL     1       0.745  -2.109  -0.009  0.00  0.00    +0.004 A 
ATOM     33  C   UNL     1       1.030  -3.400   0.393  0.00  0.00    -0.039 A 
ATOM     34  C   UNL     1       0.011  -4.233   0.817  0.00  0.00    +0.004 A 
ATOM     35  C   UNL     1      -1.293  -3.775   0.836  0.00  0.00    +0.000 A 
ENDBRANCH  29  33
ENDBRANCH  25  29
ENDBRANCH  24  27
ENDBRANCH  23  24
ENDBRANCH  21  23
ENDBRANCH  20  21
ENDBRANCH  19  20
ENDBRANCH   1  19
TORSDOF 8
