REMARK  Name = ZINC04654587
REMARK  7 active torsions:
REMARK  status: ('A' for Active; 'I' for Inactive)
REMARK    1  A    between atoms: C_1  and  C_2
REMARK    2  A    between atoms: C_4  and  N_9
REMARK    3  A    between atoms: C_13  and  C_31
REMARK    4  A    between atoms: C_19  and  S_20
REMARK    5  A    between atoms: S_20  and  C_21
REMARK    6  A    between atoms: C_21  and  C_22
REMARK    7  A    between atoms: C_26  and  N_28
REMARK                            x       y       z     vdW  Elec       q    Type
REMARK                         _______ _______ _______ _____ _____    ______ ____
ROOT
ATOM      1  N   UNL     1      -0.139   8.534  -2.458  0.00  0.00    -0.275 N 
ATOM      2  C   UNL     1      -0.155   9.910  -2.286  0.00  0.00    +0.124 A 
ATOM      3  N   UNL     1      -0.176  10.723  -3.308  0.00  0.00    -0.384 N 
ATOM      4  C   UNL     1      -0.149  10.416  -0.902  0.00  0.00    +0.082 A 
ATOM      5  C   UNL     1      -0.160  11.653  -0.314  0.00  0.00    +0.072 A 
ATOM      6  N   UNL     1      -0.145  11.474   1.018  0.00  0.00    -0.177 NA
ATOM      7  H   UNL     1      -0.106   9.574   2.273  0.00  0.00    +0.191 HD
ATOM      8  N   UNL     1      -0.123  10.105   1.310  0.00  0.00    -0.260 N 
ATOM      9  C   UNL     1      -0.125   9.427   0.186  0.00  0.00    +0.162 A 
ATOM     10  N   UNL     1      -0.116   8.105  -0.135  0.00  0.00    -0.204 NA
ATOM     11  C   UNL     1      -0.117   7.695  -1.375  0.00  0.00    +0.177 A 
ATOM     12  C   UNL     1      -0.184  12.977  -1.033  0.00  0.00    +0.068 C 
ATOM     13  H   UNL     1      -0.189  11.811  -3.145  0.00  0.00    +0.157 HD
ATOM     14  H   UNL     1      -0.181  10.320  -4.332  0.00  0.00    +0.157 HD
ENDROOT
BRANCH   1  18
ATOM     15  C   UNL     1      -2.404   5.903  -5.940  0.00  0.00    +0.045 C 
ATOM     16  C   UNL     1      -1.229   6.718  -5.465  0.00  0.00    -0.030 A 
ATOM     17  C   UNL     1      -1.226   7.246  -4.189  0.00  0.00    +0.031 A 
ATOM     18  C   UNL     1      -0.143   7.997  -3.751  0.00  0.00    +0.051 A 
ATOM     19  C   UNL     1       0.933   8.219  -4.601  0.00  0.00    +0.028 A 
ATOM     20  C   UNL     1       0.928   7.683  -5.873  0.00  0.00    +0.022 A 
ATOM     21  C   UNL     1      -0.153   6.936  -6.307  0.00  0.00    +0.044 A 
ATOM     22 CL   UNL     1      -0.159   6.271  -7.911  0.00  0.00    -0.083 Cl
ENDBRANCH   1  18
BRANCH  11  23
ATOM     23  S   UNL     1      -0.097   5.958  -1.674  0.00  0.00    -0.083 S 
BRANCH  23  24
ATOM     24  C   UNL     1      -0.073   5.347   0.030  0.00  0.00    +0.112 C 
BRANCH  24  25
ATOM     25  C   UNL     1      -0.053   3.840   0.022  0.00  0.00    -0.035 A 
ATOM     26  C   UNL     1       1.154   3.165   0.008  0.00  0.00    +0.004 A 
ATOM     27  C   UNL     1       1.172   1.783   0.000  0.00  0.00    +0.003 A 
ATOM     28  C   UNL     1      -0.016   1.076   0.008  0.00  0.00    +0.033 A 
ATOM     29  C   UNL     1      -1.222   1.751   0.017  0.00  0.00    +0.126 A 
ATOM     30  C   UNL     1      -1.240   3.133   0.030  0.00  0.00    +0.037 A 
BRANCH  29  31
ATOM     31  N   UNL     1      -2.494   0.994   0.019  0.00  0.00    +0.056 N 
ATOM     32  O   UNL     1      -2.478  -0.224   0.013  0.00  0.00    -0.126 OA
ATOM     33  O   UNL     1      -3.557   1.589   0.028  0.00  0.00    -0.126 OA
ENDBRANCH  29  31
ENDBRANCH  24  25
ENDBRANCH  23  24
ENDBRANCH  11  23
TORSDOF 5
