REMARK  Name = ZINC05832636
REMARK  7 active torsions:
REMARK  status: ('A' for Active; 'I' for Inactive)
REMARK    1  A    between atoms: C_1  and  C_2
REMARK    2  A    between atoms: C_2  and  C_3
REMARK    3  A    between atoms: C_2  and  C_4
REMARK    4  A    between atoms: C_4  and  C_5
REMARK    5  A    between atoms: C_5  and  C_6
REMARK    6  A    between atoms: C_6  and  C_8
REMARK    7  A    between atoms: C_6  and  C_23
REMARK                            x       y       z     vdW  Elec       q    Type
REMARK                         _______ _______ _______ _____ _____    ______ ____
ROOT
ATOM      1  C   UNL     1      -3.499   3.512   1.240  0.00  0.00    -0.028 C 
ATOM      2  C   UNL     1      -4.873   2.924   1.425  0.00  0.00    -0.058 A 
ATOM      3  C   UNL     1      -5.704   3.477   2.390  0.00  0.00    +0.002 A 
ATOM      4  C   UNL     1      -6.970   2.967   2.596  0.00  0.00    +0.000 A 
ATOM      5  C   UNL     1      -7.414   1.899   1.839  0.00  0.00    +0.000 A 
ATOM      6  C   UNL     1      -6.590   1.349   0.878  0.00  0.00    +0.004 A 
ATOM      7  C   UNL     1      -5.319   1.861   0.669  0.00  0.00    -0.047 A 
ATOM      8  C   UNL     1      -4.457   1.234  -0.397  0.00  0.00    +0.023 C 
ATOM      9  C   UNL     1      -2.998   1.641  -0.193  0.00  0.00    -0.063 C 
ATOM     10  C   UNL     1      -2.168   1.208  -1.403  0.00  0.00    -0.012 C 
ATOM     11  C   UNL     1      -0.710   1.624  -1.197  0.00  0.00    -0.001 C 
ATOM     12  C   UNL     1      -0.162   0.956   0.066  0.00  0.00    -0.000 C 
ATOM     13  C   UNL     1      -0.991   1.394   1.275  0.00  0.00    -0.001 C 
ATOM     14  C   UNL     1      -2.450   0.978   1.071  0.00  0.00    -0.012 C 
ATOM     15  N   UNL     1      -2.932   3.107  -0.053  0.00  0.00    +0.388 N 
ATOM     16  H   UNL     1      -1.952   3.410  -0.105  0.00  0.00    -0.084 HD
ATOM     17  H   UNL     1      -3.466   3.546  -0.812  0.00  0.00    -0.084 HD
ENDROOT
BRANCH   1  18
ATOM     18  C   UNL     1      -3.593   5.039   1.288  0.00  0.00    +0.065 C 
BRANCH  18  19
ATOM     19  C   UNL     1      -4.526   5.519   0.207  0.00  0.00    +0.212 C 
ATOM     20  O   UNL     1      -5.109   4.717  -0.491  0.00  0.00    -0.276 OA
ATOM     21  N   UNL     1      -4.712   6.840   0.015  0.00  0.00    -0.329 N 
ATOM     22  H   UNL     1      -4.189   7.482   0.521  0.00  0.00    +0.145 HD
ATOM     23  H   UNL     1      -5.368   7.149  -0.629  0.00  0.00    +0.145 HD
ENDBRANCH  18  19
BRANCH  18  24
ATOM     24  C   UNL     1      -2.204   5.642   1.069  0.00  0.00    +0.012 C 
BRANCH  24  25
ATOM     25  C   UNL     1      -1.294   5.266   2.240  0.00  0.00    +0.004 C 
BRANCH  25  27
ATOM     26  C   UNL     1       0.123   7.300   1.931  0.00  0.00    +0.007 C 
ATOM     27  C   UNL     1       0.124   5.770   1.966  0.00  0.00    -0.017 C 
ATOM     28  C   UNL     1       1.061   5.287   3.076  0.00  0.00    +0.007 C 
ENDBRANCH  25  27
ENDBRANCH  24  25
ENDBRANCH  18  24
ENDBRANCH   1  18
TORSDOF 5
