REMARK  Name = ZINC08921051
REMARK  9 active torsions:
REMARK  status: ('A' for Active; 'I' for Inactive)
REMARK    1  A    between atoms: C_1  and  C_2
REMARK    2  A    between atoms: C_4  and  C_31
REMARK    3  A    between atoms: C_5  and  C_9
REMARK    4  A    between atoms: C_6  and  C_8
REMARK    5  A    between atoms: C_9  and  C_11
REMARK    6  A    between atoms: C_11  and  C_12
REMARK    7  A    between atoms: C_12  and  O_30
REMARK    8  A    between atoms: N_19  and  C_22
REMARK    9  A    between atoms: C_22  and  C_23
REMARK                            x       y       z     vdW  Elec       q    Type
REMARK                         _______ _______ _______ _____ _____    ______ ____
ROOT
ATOM      1  C   UNL     1      -4.392   4.870   5.666  0.00  0.00    +0.175 C 
ATOM      2  C   UNL     1      -5.803   5.404   5.582  0.00  0.00    +0.016 A 
ATOM      3  C   UNL     1      -7.034   4.790   5.524  0.00  0.00    +0.024 A 
ATOM      4  C   UNL     1      -8.185   5.556   5.450  0.00  0.00    +0.018 A 
ATOM      5  C   UNL     1      -8.092   6.936   5.435  0.00  0.00    +0.017 A 
ATOM      6  C   UNL     1      -6.860   7.553   5.493  0.00  0.00    +0.025 A 
ATOM      7  C   UNL     1      -5.697   6.788   5.567  0.00  0.00    +0.043 A 
ATOM      8  N   UNL     1      -4.357   7.170   5.633  0.00  0.00    -0.264 N 
ATOM      9  C   UNL     1      -3.529   6.114   5.694  0.00  0.00    +0.257 C 
ATOM     10  O   UNL     1      -2.318   6.149   5.758  0.00  0.00    -0.272 OA
ATOM     11 BR   UNL     1      -9.879   4.718   5.370  0.00  0.00    -0.050 Br
ENDROOT
BRANCH   1  12
ATOM     12  O   UNL     1      -4.215   4.108   6.861  0.00  0.00    -0.374 OA
ATOM     13  H   UNL     1      -3.318   3.765   6.981  0.00  0.00    +0.211 HD
ENDBRANCH   1  12
BRANCH   1  14
ATOM     14  C   UNL     1      -4.066   4.019   4.436  0.00  0.00    +0.129 C 
BRANCH  14  15
ATOM     15  C   UNL     1      -2.655   3.500   4.544  0.00  0.00    +0.167 C 
ATOM     16  O   UNL     1      -1.984   3.767   5.517  0.00  0.00    -0.292 OA
BRANCH  15  21
ATOM     17  C   UNL     1      -0.462   0.251   0.339  0.00  0.00    +0.044 C 
ATOM     18  C   UNL     1      -1.036   1.103   1.442  0.00  0.00    -0.050 A 
ATOM     19  C   UNL     1      -1.768   0.512   2.457  0.00  0.00    +0.007 A 
ATOM     20  C   UNL     1      -2.292   1.284   3.473  0.00  0.00    -0.039 A 
ATOM     21  C   UNL     1      -2.093   2.668   3.468  0.00  0.00    +0.023 A 
ATOM     22  C   UNL     1      -1.357   3.258   2.435  0.00  0.00    -0.039 A 
ATOM     23  C   UNL     1      -0.834   2.472   1.430  0.00  0.00    +0.007 A 
ATOM     24  C   UNL     1      -1.137   4.749   2.421  0.00  0.00    +0.044 C 
ATOM     25  C   UNL     1      -3.084   0.638   4.580  0.00  0.00    +0.044 C 
ENDBRANCH  15  21
ENDBRANCH  14  15
ENDBRANCH   1  14
BRANCH   8  26
ATOM     26  C   UNL     1      -3.904   8.564   5.637  0.00  0.00    +0.148 C 
BRANCH  26  27
ATOM     27  C   UNL     1      -3.825   9.062   7.057  0.00  0.00    -0.030 A 
ATOM     28  C   UNL     1      -4.924   9.666   7.640  0.00  0.00    +0.005 A 
ATOM     29  C   UNL     1      -4.853  10.119   8.944  0.00  0.00    +0.000 A 
ATOM     30  C   UNL     1      -3.680   9.978   9.662  0.00  0.00    +0.000 A 
ATOM     31  C   UNL     1      -2.580   9.379   9.078  0.00  0.00    +0.000 A 
ATOM     32  C   UNL     1      -2.652   8.921   7.775  0.00  0.00    +0.005 A 
ENDBRANCH  26  27
ENDBRANCH   8  26
TORSDOF 6
