REMARK  Name = ZINC63731442
REMARK  9 active torsions:
REMARK  status: ('A' for Active; 'I' for Inactive)
REMARK    1  A    between atoms: C_1  and  C_2
REMARK    2  A    between atoms: C_2  and  O_3
REMARK    3  A    between atoms: O_3  and  C_4
REMARK    4  A    between atoms: C_9  and  N_10
REMARK    5  A    between atoms: C_11  and  C_13
REMARK    6  A    between atoms: C_13  and  S_14
REMARK    7  A    between atoms: S_14  and  C_15
REMARK    8  A    between atoms: C_20  and  C_23
REMARK    9  A    between atoms: N_26  and  C_27
REMARK                            x       y       z     vdW  Elec       q    Type
REMARK                         _______ _______ _______ _____ _____    ______ ____
ROOT
ATOM      1  C   UNL     1       4.946  -0.745  -7.781  0.00  0.00    +0.260 C 
ATOM      2  N   UNL     1       5.884   0.062  -6.995  0.00  0.00    -0.230 NA
ATOM      3  C   UNL     1       5.486   1.151  -6.421  0.00  0.00    +0.185 C 
ATOM      4  C   UNL     1       4.096   1.679  -6.637  0.00  0.00    +0.083 C 
ATOM      5  C   UNL     1       4.021   2.792  -5.901  0.00  0.00    +0.075 C 
ATOM      6  N   UNL     1       5.218   2.982  -5.305  0.00  0.00    -0.152 NA
ATOM      7  N   UNL     1       6.071   2.060  -5.602  0.00  0.00    -0.129 NA
ATOM      8  C   UNL     1       2.812   3.681  -5.760  0.00  0.00    +0.068 C 
ATOM      9  C   UNL     1       3.179   0.958  -7.544  0.00  0.00    +0.133 C 
ATOM     10  N   UNL     1       1.887   1.134  -7.572  0.00  0.00    -0.285 NA
ATOM     11  N   UNL     1       3.871   0.058  -8.372  0.00  0.00    -0.253 N 
ATOM     12  H   UNL     1       1.471   1.773  -6.971  0.00  0.00    +0.188 HD
ENDROOT
BRANCH  11  13
ATOM     13  C   UNL     1       3.541  -0.068  -9.725  0.00  0.00    +0.038 A 
ATOM     14  C   UNL     1       4.150  -1.044 -10.502  0.00  0.00    +0.024 A 
ATOM     15  C   UNL     1       3.822  -1.167 -11.838  0.00  0.00    +0.017 A 
ATOM     16  C   UNL     1       2.887  -0.317 -12.402  0.00  0.00    +0.018 A 
ATOM     17  C   UNL     1       2.278   0.657 -11.630  0.00  0.00    +0.017 A 
ATOM     18  C   UNL     1       2.598   0.780 -10.293  0.00  0.00    +0.024 A 
ATOM     19 BR   UNL     1       2.440  -0.487 -14.232  0.00  0.00    -0.050 Br
ENDBRANCH  11  13
BRANCH   1  20
ATOM     20  S   UNL     1       4.211  -2.005  -6.703  0.00  0.00    -0.106 S 
BRANCH  20  21
ATOM     21  C   UNL     1       3.341  -1.045  -5.434  0.00  0.00    +0.168 C 
BRANCH  21  23
ATOM     22  N   UNL     1       1.968  -1.491  -3.426  0.00  0.00    -0.282 N 
ATOM     23  C   UNL     1       2.677  -1.984  -4.461  0.00  0.00    +0.227 C 
ATOM     24  O   UNL     1       2.780  -3.183  -4.608  0.00  0.00    -0.275 OA
ATOM     25  H   UNL     1       1.816  -0.536  -3.353  0.00  0.00    +0.155 HD
BRANCH  22  31
ATOM     26  C   UNL     1       0.340  -1.982  -1.703  0.00  0.00    +0.142 A 
ATOM     27  C   UNL     1      -0.171  -2.846  -0.748  0.00  0.00    +0.047 A 
ATOM     28  C   UNL     1       0.425  -4.076  -0.539  0.00  0.00    +0.004 A 
ATOM     29  C   UNL     1       1.531  -4.448  -1.281  0.00  0.00    +0.002 A 
ATOM     30  C   UNL     1       2.046  -3.592  -2.236  0.00  0.00    +0.027 A 
ATOM     31  C   UNL     1       1.450  -2.358  -2.455  0.00  0.00    +0.076 A 
BRANCH  26  32
ATOM     32  O   UNL     1      -0.245  -0.772  -1.910  0.00  0.00    -0.490 OA
BRANCH  32  34
ATOM     33  C   UNL     1      -1.899   0.936  -1.476  0.00  0.00    +0.048 C 
ATOM     34  C   UNL     1      -1.381  -0.454  -1.103  0.00  0.00    +0.226 C 
ENDBRANCH  32  34
ENDBRANCH  26  32
ENDBRANCH  22  31
ENDBRANCH  21  23
ENDBRANCH  20  21
ENDBRANCH   1  20
TORSDOF 7
