REMARK  Name = ZINC39632169
REMARK  11 active torsions:
REMARK  status: ('A' for Active; 'I' for Inactive)
REMARK    1  A    between atoms: C_1  and  C_2
REMARK    2  A    between atoms: C_2  and  C_4
REMARK    3  A    between atoms: C_2  and  N_11
REMARK    4  A    between atoms: C_4  and  C_5
REMARK    5  A    between atoms: C_5  and  C_6
REMARK    6  A    between atoms: C_6  and  C_7
REMARK    7  A    between atoms: C_7  and  C_8
REMARK    8  A    between atoms: C_7  and  C_9
REMARK    9  A    between atoms: C_7  and  O_10
REMARK   10  A    between atoms: C_12  and  C_14
REMARK   11  A    between atoms: C_25  and  C_27
REMARK                            x       y       z     vdW  Elec       q    Type
REMARK                         _______ _______ _______ _____ _____    ______ ____
ROOT
ATOM      1  C   UNL     1       2.898  -0.525   3.115  0.00  0.00    +0.100 C 
ATOM      2  C   UNL     1       2.865  -2.049   3.362  0.00  0.00    +0.121 C 
ATOM      3  N   UNL     1       4.234  -2.512   3.033  0.00  0.00    -0.296 N 
ATOM      4  C   UNL     1       5.120  -1.449   3.566  0.00  0.00    +0.115 C 
ATOM      5  C   UNL     1       4.379  -0.134   3.252  0.00  0.00    -0.004 C 
ATOM      6  C   UNL     1       4.893   0.461   1.944  0.00  0.00    -0.010 C 
ATOM      7  C   UNL     1       6.351   0.893   2.124  0.00  0.00    -0.082 C 
ATOM      8  N   UNL     1       6.440   1.884   3.203  0.00  0.00    +0.379 N 
ATOM      9  C   UNL     1       6.032   1.276   4.476  0.00  0.00    -0.082 C 
ATOM     10  C   UNL     1       4.560   0.860   4.396  0.00  0.00    -0.010 C 
ATOM     11  C   UNL     1       4.593  -3.643   2.395  0.00  0.00    +0.252 C 
ATOM     12  O   UNL     1       5.769  -3.929   2.279  0.00  0.00    -0.270 OA
ATOM     13  H   UNL     1       7.391   2.212   3.279  0.00  0.00    -0.086 HD
ATOM     14  H   UNL     1       5.833   2.663   2.994  0.00  0.00    -0.086 HD
ENDROOT
BRANCH  11  15
ATOM     15  C   UNL     1       3.558  -4.535   1.836  0.00  0.00    +0.108 A 
ATOM     16  C   UNL     1       3.198  -4.436   0.487  0.00  0.00    +0.138 A 
ATOM     17  C   UNL     1       2.229  -5.275  -0.028  0.00  0.00    +0.041 A 
ATOM     18  C   UNL     1       1.614  -6.210   0.785  0.00  0.00    +0.026 A 
ATOM     19  C   UNL     1       1.963  -6.315   2.120  0.00  0.00    +0.077 A 
ATOM     20  C   UNL     1       2.936  -5.486   2.650  0.00  0.00    +0.156 A 
ATOM     21  F   UNL     1       3.280  -5.593   3.952  0.00  0.00    -0.203 F 
ATOM     22 CL   UNL     1       1.183  -7.492   3.129  0.00  0.00    -0.081 Cl
ATOM     23  F   UNL     1       3.797  -3.523  -0.308  0.00  0.00    -0.205 F 
ENDBRANCH  11  15
BRANCH   1  25
ATOM     24  N   UNL     1       1.844   0.994   1.471  0.00  0.00    -0.312 N 
ATOM     25  C   UNL     1       2.398  -0.207   1.729  0.00  0.00    +0.218 C 
ATOM     26  O   UNL     1       2.496  -1.033   0.845  0.00  0.00    -0.275 OA
ATOM     27  H   UNL     1       1.833   1.680   2.156  0.00  0.00    +0.149 HD
BRANCH  24  29
ATOM     28  C   UNL     1       2.341   1.777  -0.792  0.00  0.00    +0.028 C 
ATOM     29  C   UNL     1       1.256   1.262   0.156  0.00  0.00    +0.070 C 
BRANCH  29  30
ATOM     30  C   UNL     1       0.157   2.317   0.294  0.00  0.00    +0.022 C 
BRANCH  30  31
ATOM     31  C   UNL     1      -0.988   1.753   1.139  0.00  0.00    +0.005 C 
BRANCH  31  32
ATOM     32  C   UNL     1      -2.139   2.760   1.175  0.00  0.00    +0.034 C 
BRANCH  32  33
ATOM     33  C   UNL     1      -3.303   2.176   1.979  0.00  0.00    +0.061 C 
ATOM     34  C   UNL     1      -4.444   3.193   2.036  0.00  0.00    +0.041 C 
ATOM     35  C   UNL     1      -3.795   0.894   1.305  0.00  0.00    +0.041 C 
BRANCH  33  36
ATOM     36  O   UNL     1      -2.862   1.879   3.305  0.00  0.00    -0.389 OA
ATOM     37  H   UNL     1      -2.536   2.647   3.793  0.00  0.00    +0.210 HD
ENDBRANCH  33  36
ENDBRANCH  32  33
ENDBRANCH  31  32
ENDBRANCH  30  31
ENDBRANCH  29  30
ENDBRANCH  24  29
ENDBRANCH   1  25
TORSDOF 8
