REMARK  Name = ZINC38684211
REMARK  16 active torsions:
REMARK  status: ('A' for Active; 'I' for Inactive)
REMARK    1  A    between atoms: C_1  and  C_2
REMARK    2  A    between atoms: C_2  and  C_3
REMARK    3  A    between atoms: C_2  and  C_4
REMARK    4  A    between atoms: C_4  and  O_5
REMARK    5  A    between atoms: O_5  and  C_6
REMARK    6  A    between atoms: C_9  and  C_14
REMARK    7  A    between atoms: C_11  and  O_12
REMARK    8  A    between atoms: O_12  and  C_13
REMARK    9  A    between atoms: C_19  and  O_28
REMARK   10  A    between atoms: C_23  and  N_27
REMARK   11  A    between atoms: C_24  and  C_25
REMARK   12  A    between atoms: O_28  and  C_29
REMARK   13  A    between atoms: C_29  and  C_31
REMARK   14  A    between atoms: C_34  and  O_37
REMARK   15  A    between atoms: O_37  and  C_38
REMARK   16  A    between atoms: C_38  and  C_39
REMARK                            x       y       z     vdW  Elec       q    Type
REMARK                         _______ _______ _______ _____ _____    ______ ____
ROOT
ATOM      1  C   UNL     1      -6.356  -4.588  -0.183  0.00  0.00    +0.098 C 
ATOM      2  C   UNL     1      -7.184  -4.093  -1.340  0.00  0.00    +0.008 A 
ATOM      3  C   UNL     1      -6.846  -4.469  -2.628  0.00  0.00    +0.012 A 
ATOM      4  C   UNL     1      -7.593  -4.026  -3.701  0.00  0.00    +0.047 A 
ATOM      5  C   UNL     1      -8.688  -3.200  -3.490  0.00  0.00    +0.135 A 
ATOM      6  C   UNL     1      -9.029  -2.822  -2.201  0.00  0.00    +0.093 A 
ATOM      7  C   UNL     1      -8.276  -3.268  -1.123  0.00  0.00    +0.138 A 
ATOM      8  O   UNL     1      -8.623  -2.889   0.132  0.00  0.00    -0.441 OA
ATOM      9  C   UNL     1      -8.180  -3.588   1.189  0.00  0.00    +0.199 C 
ATOM     10  C   UNL     1      -7.111  -4.410   1.104  0.00  0.00    +0.098 C 
ENDROOT
BRANCH   1  14
ATOM     11  C   UNL     1      -2.708  -2.364  -0.003  0.00  0.00    +0.162 A 
ATOM     12  C   UNL     1      -3.925  -1.714   0.117  0.00  0.00    +0.050 A 
ATOM     13  C   UNL     1      -5.103  -2.435   0.058  0.00  0.00    +0.008 A 
ATOM     14  C   UNL     1      -5.069  -3.806  -0.120  0.00  0.00    -0.031 A 
ATOM     15  C   UNL     1      -3.858  -4.461  -0.240  0.00  0.00    +0.054 A 
ATOM     16  C   UNL     1      -2.674  -3.743  -0.188  0.00  0.00    +0.162 A 
BRANCH  16  17
ATOM     17  O   UNL     1      -1.482  -4.385  -0.311  0.00  0.00    -0.491 OA
ATOM     18  C   UNL     1      -1.524  -5.801  -0.498  0.00  0.00    +0.277 C 
ENDBRANCH  16  17
BRANCH  11  19
ATOM     19  O   UNL     1      -1.548  -1.656   0.055  0.00  0.00    -0.488 OA
BRANCH  19  20
ATOM     20  C   UNL     1      -1.659  -0.244   0.246  0.00  0.00    +0.232 C 
BRANCH  20  22
ATOM     21  C   UNL     1      -0.382   1.900   0.364  0.00  0.00    +0.010 C 
ATOM     22  C   UNL     1      -0.261   0.377   0.285  0.00  0.00    +0.020 C 
ATOM     23  C   UNL     1       0.493  -0.140   1.511  0.00  0.00    +0.010 C 
ENDBRANCH  20  22
ENDBRANCH  19  20
ENDBRANCH  11  19
ENDBRANCH   1  14
BRANCH   9  24
ATOM     24  N   UNL     1      -8.832  -3.464   2.391  0.00  0.00    -0.328 N 
ATOM     25  H   UNL     1      -9.601  -2.877   2.467  0.00  0.00    +0.145 HD
ATOM     26  H   UNL     1      -8.524  -3.962   3.164  0.00  0.00    +0.145 HD
ENDBRANCH   9  24
BRANCH  10  27
ATOM     27  C   UNL     1      -6.688  -5.127   2.270  0.00  0.00    +0.101 C 
ATOM     28  N   UNL     1      -6.353  -5.695   3.194  0.00  0.00    -0.191 NA
ENDBRANCH  10  27
BRANCH   5  29
ATOM     29  O   UNL     1      -9.425  -2.763  -4.545  0.00  0.00    -0.422 OA
BRANCH  29  30
ATOM     30  C   UNL     1     -10.173  -3.664  -5.211  0.00  0.00    +0.344 C 
ATOM     31  O   UNL     1     -10.258  -4.805  -4.801  0.00  0.00    -0.245 OA
BRANCH  30  32
ATOM     32  C   UNL     1     -10.889  -3.266  -6.437  0.00  0.00    +0.060 A 
ATOM     33  C   UNL     1     -10.788  -1.956  -6.914  0.00  0.00    +0.018 A 
ATOM     34  C   UNL     1     -11.458  -1.588  -8.059  0.00  0.00    +0.046 A 
ATOM     35  C   UNL     1     -12.233  -2.518  -8.742  0.00  0.00    +0.121 A 
ATOM     36  C   UNL     1     -12.337  -3.822  -8.271  0.00  0.00    +0.046 A 
ATOM     37  C   UNL     1     -11.666  -4.199  -7.130  0.00  0.00    +0.018 A 
BRANCH  35  38
ATOM     38  O   UNL     1     -12.892  -2.152  -9.870  0.00  0.00    -0.488 OA
BRANCH  38  39
ATOM     39  C   UNL     1     -13.671  -3.157 -10.522  0.00  0.00    +0.256 C 
BRANCH  39  40
ATOM     40  C   UNL     1     -14.324  -2.571 -11.747  0.00  0.00    +0.006 C 
ATOM     41  C   UNL     1     -14.311  -3.234 -12.877  0.00  0.00    +0.007 C 
ENDBRANCH  39  40
ENDBRANCH  38  39
ENDBRANCH  35  38
ENDBRANCH  30  32
ENDBRANCH  29  30
ENDBRANCH   5  29
TORSDOF 13
