REMARK  Name = ZINC35966650
REMARK  12 active torsions:
REMARK  status: ('A' for Active; 'I' for Inactive)
REMARK    1  A    between atoms: C_1  and  C_2
REMARK    2  A    between atoms: C_2  and  N_3
REMARK    3  A    between atoms: C_6  and  C_11
REMARK    4  A    between atoms: C_16  and  C_17
REMARK    5  A    between atoms: N_23  and  C_25
REMARK    6  A    between atoms: C_25  and  C_27
REMARK    7  A    between atoms: C_25  and  C_31
REMARK    8  A    between atoms: C_27  and  C_28
REMARK    9  A    between atoms: C_28  and  C_29
REMARK   10  A    between atoms: C_28  and  C_30
REMARK   11  A    between atoms: N_33  and  C_34
REMARK   12  A    between atoms: C_34  and  C_35
REMARK                            x       y       z     vdW  Elec       q    Type
REMARK                         _______ _______ _______ _____ _____    ______ ____
ROOT
ATOM      1  N   UNL     1       0.771  -0.480   1.166  0.00  0.00    -0.257 N 
ATOM      2  C   UNL     1       2.130  -0.611   1.174  0.00  0.00    +0.042 C 
ATOM      3  C   UNL     1       2.783  -1.056   2.268  0.00  0.00    +0.058 C 
ATOM      4  C   UNL     1       1.955  -1.407   3.488  0.00  0.00    +0.142 C 
ATOM      5  N   UNL     1       0.497  -1.230   3.377  0.00  0.00    -0.288 N 
ATOM      6  C   UNL     1      -0.008  -0.769   2.216  0.00  0.00    +0.307 C 
ATOM      7  O   UNL     1      -1.210  -0.617   2.117  0.00  0.00    -0.252 OA
ATOM      8  C   UNL     1       4.171  -1.103   2.025  0.00  0.00    +0.247 C 
ATOM      9  O   UNL     1       4.999  -1.468   2.839  0.00  0.00    -0.270 OA
ATOM     10  N   UNL     1       4.460  -0.693   0.777  0.00  0.00    -0.281 N 
ATOM     11  C   UNL     1       3.188  -0.344   0.127  0.00  0.00    +0.160 C 
ATOM     12  H   UNL     1      -0.086  -1.438   4.125  0.00  0.00    +0.151 HD
ENDROOT
BRANCH   4  13
ATOM     13  C   UNL     1       2.223  -2.849   3.833  0.00  0.00    -0.011 A 
ATOM     14  C   UNL     1       1.741  -3.856   3.017  0.00  0.00    +0.006 A 
ATOM     15  C   UNL     1       1.987  -5.179   3.334  0.00  0.00    +0.000 A 
ATOM     16  C   UNL     1       2.715  -5.495   4.465  0.00  0.00    +0.001 A 
ATOM     17  C   UNL     1       3.198  -4.488   5.280  0.00  0.00    +0.013 A 
ATOM     18  C   UNL     1       2.956  -3.165   4.961  0.00  0.00    +0.060 A 
BRANCH  18  19
ATOM     19  C   UNL     1       3.487  -2.067   5.847  0.00  0.00    +0.418 C 
ATOM     20  F   UNL     1       4.250  -2.627   6.877  0.00  0.00    -0.166 F 
ATOM     21  F   UNL     1       4.286  -1.204   5.090  0.00  0.00    -0.166 F 
ATOM     22  F   UNL     1       2.417  -1.352   6.395  0.00  0.00    -0.166 F 
ENDBRANCH  18  19
ENDBRANCH   4  13
BRANCH   1  24
ATOM     23  C   UNL     1       0.042   1.537  -0.009  0.00  0.00    +0.025 C 
ATOM     24  C   UNL     1       0.131   0.011  -0.057  0.00  0.00    +0.111 C 
ENDBRANCH   1  24
BRANCH  10  25
ATOM     25  C   UNL     1       5.794  -0.608   0.178  0.00  0.00    +0.163 C 
BRANCH  25  26
ATOM     26  C   UNL     1       6.648   0.338   0.983  0.00  0.00    +0.234 C 
ATOM     27  O   UNL     1       6.187   0.887   1.961  0.00  0.00    -0.274 OA
ATOM     28  N   UNL     1       7.923   0.573   0.615  0.00  0.00    -0.311 N 
ATOM     29  H   UNL     1       8.291   0.134  -0.167  0.00  0.00    +0.149 HD
BRANCH  28  30
ATOM     30  C   UNL     1       8.753   1.493   1.398  0.00  0.00    +0.135 C 
BRANCH  30  31
ATOM     31  C   UNL     1      10.146   1.581   0.772  0.00  0.00    +0.135 C 
ATOM     32  C   UNL     1      11.063   2.452   1.656  0.00  0.00    +0.035 C 
ATOM     33  C   UNL     1      11.878   3.249   0.601  0.00  0.00    +0.031 C 
ATOM     34  C   UNL     1      10.818   3.429  -0.515  0.00  0.00    +0.160 C 
ATOM     35  O   UNL     1      10.062   2.205  -0.515  0.00  0.00    -0.375 OA
ENDBRANCH  30  31
ENDBRANCH  28  30
ENDBRANCH  25  26
BRANCH  25  36
ATOM     36  C   UNL     1       6.439  -1.996   0.170  0.00  0.00    +0.035 C 
BRANCH  36  37
ATOM     37  C   UNL     1       5.641  -2.924  -0.748  0.00  0.00    -0.015 C 
ATOM     38  C   UNL     1       5.740  -2.424  -2.190  0.00  0.00    +0.007 C 
ATOM     39  C   UNL     1       6.209  -4.341  -0.659  0.00  0.00    +0.007 C 
ENDBRANCH  36  37
ENDBRANCH  25  36
ENDBRANCH  10  25
TORSDOF 9
