REMARK  Name = ZINC51168894
REMARK  7 active torsions:
REMARK  status: ('A' for Active; 'I' for Inactive)
REMARK    1  A    between atoms: C_1  and  C_2
REMARK    2  A    between atoms: C_2  and  C_3
REMARK    3  A    between atoms: C_2  and  C_4
REMARK    4  A    between atoms: C_6  and  N_17
REMARK    5  A    between atoms: C_8  and  C_10
REMARK    6  A    between atoms: C_13  and  O_16
REMARK    7  A    between atoms: N_17  and  N_18
REMARK                            x       y       z     vdW  Elec       q    Type
REMARK                         _______ _______ _______ _____ _____    ______ ____
ROOT
ATOM      1  C   UNL     1       0.731  -0.503   1.223  0.00  0.00    +0.050 A 
ATOM      2  C   UNL     1       2.109  -0.614   1.217  0.00  0.00    +0.068 A 
ATOM      3  C   UNL     1       2.745  -1.081   2.370  0.00  0.00    +0.136 A 
ATOM      4  N   UNL     1       2.008  -1.401   3.428  0.00  0.00    -0.212 NA
ATOM      5  C   UNL     1       0.688  -1.280   3.393  0.00  0.00    +0.162 A 
ATOM      6  N   UNL     1       0.059  -0.835   2.314  0.00  0.00    -0.232 NA
ENDROOT
BRANCH   5   7
ATOM      7  C   UNL     1      -0.103  -1.647   4.592  0.00  0.00    +0.019 A 
ATOM      8  C   UNL     1      -1.493  -1.532   4.574  0.00  0.00    +0.015 A 
ATOM      9  C   UNL     1      -2.226  -1.874   5.690  0.00  0.00    +0.046 A 
ATOM     10  C   UNL     1      -1.581  -2.331   6.832  0.00  0.00    +0.117 A 
ATOM     11  C   UNL     1      -0.198  -2.446   6.854  0.00  0.00    +0.046 A 
ATOM     12  C   UNL     1       0.541  -2.112   5.739  0.00  0.00    +0.015 A 
BRANCH  10  13
ATOM     13  O   UNL     1      -2.306  -2.666   7.931  0.00  0.00    -0.507 OA
ATOM     14  H   UNL     1      -2.581  -3.593   7.953  0.00  0.00    +0.292 HD
ENDBRANCH  10  13
ENDBRANCH   5   7
BRANCH   1  16
ATOM     15  C   UNL     1      -0.019   1.526   0.010  0.00  0.00    +0.014 C 
ATOM     16  C   UNL     1       0.002  -0.004   0.002  0.00  0.00    +0.032 C 
ATOM     17  C   UNL     1       0.718  -0.497  -1.257  0.00  0.00    +0.014 C 
ENDBRANCH   1  16
BRANCH   3  18
ATOM     18  N   UNL     1       4.124  -1.208   2.409  0.00  0.00    -0.267 N 
ATOM     19  H   UNL     1       4.655  -0.972   1.632  0.00  0.00    +0.167 HD
BRANCH  18  20
ATOM     20  N   UNL     1       4.736  -1.665   3.542  0.00  0.00    -0.255 NA
ATOM     21  H   UNL     1       5.737  -1.704   3.421  0.00  0.00    +0.140 HD
ATOM     22  H   UNL     1       4.489  -1.099   4.340  0.00  0.00    +0.140 HD
ENDBRANCH  18  20
ENDBRANCH   3  18
TORSDOF 5
