REMARK  Name = ZINC42631237
REMARK  3 active torsions:
REMARK  status: ('A' for Active; 'I' for Inactive)
REMARK    1  A    between atoms: C_3  and  C_6
REMARK    2  A    between atoms: C_12  and  C_14
REMARK    3  A    between atoms: C_14  and  N_15
REMARK                            x       y       z     vdW  Elec       q    Type
REMARK                         _______ _______ _______ _____ _____    ______ ____
ROOT
ATOM      1  C   UNL     1       3.741   1.824  -0.024  0.00  0.00    +0.087 A 
ATOM      2  C   UNL     1       4.789   0.944  -0.044  0.00  0.00    +0.077 A 
ATOM      3  S   UNL     1       6.173   2.075  -0.050  0.00  0.00    -0.060 S 
ATOM      4  C   UNL     1       5.227   3.591  -0.026  0.00  0.00    +0.165 A 
ATOM      5  N   UNL     1       3.990   3.131  -0.021  0.00  0.00    -0.224 NA
ATOM      6  N   UNL     1       5.676   4.906  -0.019  0.00  0.00    -0.263 N 
ATOM      7  C   UNL     1       6.998   5.167  -0.032  0.00  0.00    +0.237 C 
ATOM      8  O   UNL     1       7.796   4.254  -0.049  0.00  0.00    -0.274 OA
ATOM      9  H   UNL     1       5.037   5.636  -0.004  0.00  0.00    +0.157 HD
ENDROOT
BRANCH   1  12
ATOM     10  C   UNL     1      -0.016   1.353   0.009  0.00  0.00    +0.008 A 
ATOM     11  C   UNL     1       1.179   2.041   0.002  0.00  0.00    +0.017 A 
ATOM     12  C   UNL     1       2.348   1.328  -0.013  0.00  0.00    +0.038 A 
ATOM     13  S   UNL     1       1.752  -0.355  -0.017  0.00  0.00    -0.095 S 
ATOM     14  C   UNL     1       0.002  -0.004   0.002  0.00  0.00    +0.046 A 
ENDBRANCH   1  12
BRANCH   7  15
ATOM     15  C   UNL     1       7.484   6.593  -0.024  0.00  0.00    +0.214 C 
BRANCH  15  16
ATOM     16  N   UNL     1       8.949   6.610  -0.041  0.00  0.00    -0.215 N 
ATOM     17  C   UNL     1       9.720   6.603   1.066  0.00  0.00    +0.247 C 
ATOM     18  O   UNL     1       9.348   6.582   2.220  0.00  0.00    -0.273 OA
ATOM     19  C   UNL     1      11.146   6.625   0.565  0.00  0.00    +0.113 C 
ATOM     20  C   UNL     1      11.888   5.372   1.017  0.00  0.00    +0.035 C 
ATOM     21  C   UNL     1      13.319   5.400   0.474  0.00  0.00    +0.003 C 
ATOM     22  C   UNL     1      14.035   6.651   0.989  0.00  0.00    +0.000 C 
ATOM     23  C   UNL     1      13.292   7.899   0.508  0.00  0.00    +0.003 C 
ATOM     24  C   UNL     1      11.861   7.881   1.052  0.00  0.00    +0.035 C 
ATOM     25  N   UNL     1      11.010   6.644  -0.897  0.00  0.00    -0.285 N 
ATOM     26  C   UNL     1       9.689   6.628  -1.157  0.00  0.00    +0.310 C 
ATOM     27  O   UNL     1       9.220   6.633  -2.278  0.00  0.00    -0.252 OA
ATOM     28  H   UNL     1      11.730   6.661  -1.547  0.00  0.00    +0.151 HD
ENDBRANCH  15  16
ENDBRANCH   7  15
TORSDOF 3
