REMARK  Name = ZINC36556066
REMARK  18 active torsions:
REMARK  status: ('A' for Active; 'I' for Inactive)
REMARK    1  A    between atoms: C_1  and  C_2
REMARK    2  A    between atoms: C_5  and  C_7
REMARK    3  A    between atoms: C_7  and  N_8
REMARK    4  A    between atoms: N_8  and  C_9
REMARK    5  A    between atoms: C_9  and  C_11
REMARK    6  A    between atoms: C_9  and  C_25
REMARK    7  A    between atoms: N_27  and  C_28
REMARK    8  A    between atoms: C_28  and  C_29
REMARK    9  A    between atoms: C_28  and  C_30
REMARK   10  A    between atoms: C_28  and  C_31
REMARK   11  A    between atoms: C_31  and  C_32
REMARK   12  A    between atoms: C_32  and  C_33
REMARK   13  A    between atoms: C_32  and  C_34
REMARK   14  A    between atoms: C_32  and  C_35
REMARK   15  A    between atoms: C_36  and  C_38
REMARK   16  A    between atoms: C_38  and  C_39
REMARK   17  A    between atoms: C_39  and  C_40
REMARK   18  A    between atoms: C_39  and  C_41
REMARK                            x       y       z     vdW  Elec       q    Type
REMARK                         _______ _______ _______ _____ _____    ______ ____
ROOT
ATOM      1  C   UNL     1       5.395  -3.756  -4.251  0.00  0.00    +0.193 C 
ENDROOT
BRANCH   1   2
ATOM      2  C   UNL     1       4.803  -2.500  -4.837  0.00  0.00    -0.010 A 
ATOM      3  C   UNL     1       3.466  -2.325  -4.808  0.00  0.00    +0.015 A 
ATOM      4  C   UNL     1       2.863  -1.164  -5.344  0.00  0.00    -0.017 A 
ATOM      5  C   UNL     1       1.472  -0.990  -5.308  0.00  0.00    +0.008 A 
ATOM      6  C   UNL     1       0.917   0.140  -5.832  0.00  0.00    +0.001 A 
ATOM      7  C   UNL     1       1.711   1.126  -6.406  0.00  0.00    +0.001 A 
ATOM      8  C   UNL     1       3.069   0.987  -6.457  0.00  0.00    +0.009 A 
ATOM      9  C   UNL     1       3.667  -0.159  -5.927  0.00  0.00    -0.010 A 
ATOM     10  C   UNL     1       5.120  -0.350  -5.960  0.00  0.00    -0.010 A 
ATOM     11  C   UNL     1       5.662  -1.529  -5.402  0.00  0.00    -0.012 A 
ATOM     12  C   UNL     1       7.051  -1.719  -5.423  0.00  0.00    +0.009 A 
ATOM     13  C   UNL     1       7.856  -0.766  -5.974  0.00  0.00    +0.001 A 
ATOM     14  C   UNL     1       7.319   0.396  -6.517  0.00  0.00    +0.001 A 
ATOM     15  C   UNL     1       5.970   0.605  -6.522  0.00  0.00    +0.009 A 
ENDBRANCH   1   2
BRANCH   1  16
ATOM     16  C   UNL     1       5.665  -3.547  -2.784  0.00  0.00    +0.239 C 
ATOM     17  O   UNL     1       4.741  -3.402  -2.011  0.00  0.00    -0.273 OA
ATOM     18  N   UNL     1       6.933  -3.521  -2.329  0.00  0.00    -0.308 N 
ATOM     19  H   UNL     1       7.672  -3.636  -2.946  0.00  0.00    +0.149 HD
BRANCH  18  20
ATOM     20  C   UNL     1       7.196  -3.317  -0.902  0.00  0.00    +0.030 C 
ATOM     21  C   UNL     1       6.826  -1.884  -0.515  0.00  0.00    +0.031 C 
ATOM     22  C   UNL     1       6.356  -4.299  -0.084  0.00  0.00    +0.031 C 
BRANCH  20  23
ATOM     23  C   UNL     1       8.680  -3.555  -0.618  0.00  0.00    +0.031 C 
BRANCH  23  24
ATOM     24  C   UNL     1       9.155  -4.790  -1.387  0.00  0.00    -0.036 C 
ATOM     25  C   UNL     1       9.646  -4.368  -2.774  0.00  0.00    +0.010 C 
ATOM     26  C   UNL     1      10.300  -5.458  -0.623  0.00  0.00    +0.010 C 
ATOM     27  C   UNL     1       7.995  -5.776  -1.534  0.00  0.00    +0.010 C 
ENDBRANCH  23  24
ENDBRANCH  20  23
ENDBRANCH  18  20
ENDBRANCH   1  16
BRANCH   1  28
ATOM     28  N   UNL     1       4.452  -4.865  -4.421  0.00  0.00    -0.279 N 
ATOM     29  C   UNL     1       4.187  -5.341  -5.654  0.00  0.00    +0.217 C 
ATOM     30  O   UNL     1       3.407  -6.259  -5.794  0.00  0.00    -0.276 OA
BRANCH  28  31
ATOM     31  C   UNL     1       3.799  -5.457  -3.251  0.00  0.00    +0.183 C 
BRANCH  31  36
ATOM     32  C   UNL     1       0.227  -2.227  -1.752  0.00  0.00    +0.086 C 
ATOM     33  C   UNL     1       0.897  -3.412  -2.399  0.00  0.00    +0.102 A 
ATOM     34  C   UNL     1       0.279  -4.377  -3.103  0.00  0.00    +0.045 A 
ATOM     35  C   UNL     1       1.280  -5.283  -3.523  0.00  0.00    +0.046 A 
ATOM     36  C   UNL     1       2.450  -4.816  -3.051  0.00  0.00    +0.122 A 
ATOM     37  O   UNL     1       2.212  -3.679  -2.376  0.00  0.00    -0.463 OA
ENDBRANCH  31  36
ENDBRANCH  28  31
BRANCH  29  38
ATOM     38  C   UNL     1       4.859  -4.732  -6.857  0.00  0.00    +0.099 C 
BRANCH  38  39
ATOM     39  C   UNL     1       4.386  -5.451  -8.123  0.00  0.00    -0.008 C 
ATOM     40  C   UNL     1       2.890  -5.199  -8.324  0.00  0.00    +0.008 C 
ATOM     41  C   UNL     1       5.160  -4.918  -9.331  0.00  0.00    +0.008 C 
ENDBRANCH  38  39
ENDBRANCH  29  38
ENDBRANCH   1  28
TORSDOF 10
