REMARK  Name = ZINC63490751
REMARK  6 active torsions:
REMARK  status: ('A' for Active; 'I' for Inactive)
REMARK    1  A    between atoms: C_6  and  O_7
REMARK    2  A    between atoms: O_7  and  C_8
REMARK    3  A    between atoms: C_8  and  C_9
REMARK    4  A    between atoms: N_11  and  C_12
REMARK    5  A    between atoms: C_12  and  C_13
REMARK    6  A    between atoms: C_13  and  C_14
REMARK                            x       y       z     vdW  Elec       q    Type
REMARK                         _______ _______ _______ _____ _____    ______ ____
ROOT
ATOM      1  C   UNL     1      -3.554  -0.883   0.021  0.00  0.00    +0.251 C 
ATOM      2  O   UNL     1      -3.375  -2.082   0.014  0.00  0.00    -0.272 OA
ATOM      3  N   UNL     1      -4.808  -0.389   0.033  0.00  0.00    -0.312 N 
ATOM      4  H   UNL     1      -4.951   0.571   0.039  0.00  0.00    +0.149 HD
ENDROOT
BRANCH   1   5
ATOM      5  C   UNL     1      -2.375   0.055   0.018  0.00  0.00    +0.324 C 
BRANCH   5   6
ATOM      6  O   UNL     1      -1.163  -0.703   0.006  0.00  0.00    -0.483 OA
BRANCH   6  12
ATOM      7  C   UNL     1      -0.017   1.383   0.010  0.00  0.00    +0.046 A 
ATOM      8  C   UNL     1       1.168   2.090   0.002  0.00  0.00    +0.011 A 
ATOM      9  C   UNL     1       2.387   1.425  -0.011  0.00  0.00    -0.001 A 
ATOM     10  C   UNL     1       2.407   0.042  -0.012  0.00  0.00    +0.139 A 
ATOM     11  C   UNL     1       1.215  -0.673  -0.009  0.00  0.00    +0.092 A 
ATOM     12  C   UNL     1       0.002  -0.004   0.002  0.00  0.00    +0.125 A 
ATOM     13  O   UNL     1       3.575  -0.655  -0.006  0.00  0.00    -0.425 OA
ATOM     14  C   UNL     1       4.694   0.025  -0.322  0.00  0.00    +0.316 C 
ATOM     15  O   UNL     1       5.520  -0.446  -1.066  0.00  0.00    -0.250 OA
ATOM     16  C   UNL     1       4.881   1.393   0.282  0.00  0.00    +0.106 C 
ATOM     17  C   UNL     1       3.642   2.256  -0.028  0.00  0.00    +0.036 C 
ATOM     18  C   UNL     1       3.578   3.272   1.132  0.00  0.00    +0.009 C 
ATOM     19  C   UNL     1       4.364   2.657   2.303  0.00  0.00    +0.001 C 
ATOM     20  C   UNL     1       4.888   1.277   1.823  0.00  0.00    +0.015 C 
ENDBRANCH   6  12
ENDBRANCH   5   6
ENDBRANCH   1   5
BRANCH   3  21
ATOM     21  C   UNL     1      -5.955  -1.300   0.035  0.00  0.00    +0.108 C 
BRANCH  21  22
ATOM     22  C   UNL     1      -7.252  -0.488   0.049  0.00  0.00    +0.052 C 
BRANCH  22  23
ATOM     23  C   UNL     1      -8.431  -1.426   0.051  0.00  0.00    -0.040 C 
ATOM     24  C   UNL     1      -9.122  -1.860   1.130  0.00  0.00    +0.000 A 
ATOM     25  C   UNL     1      -8.987  -1.599   2.568  0.00  0.00    +0.030 A 
ATOM     26  C   UNL     1      -9.849  -2.193   3.426  0.00  0.00    +0.042 A 
ATOM     27  C   UNL     1     -10.864  -3.050   2.977  0.00  0.00    +0.022 A 
ATOM     28  C   UNL     1     -11.051  -3.337   1.671  0.00  0.00    +0.027 A 
ATOM     29  C   UNL     1     -10.203  -2.768   0.682  0.00  0.00    +0.043 A 
ATOM     30  N   UNL     1     -10.180  -2.890  -0.623  0.00  0.00    -0.380 N 
ATOM     31  C   UNL     1      -9.086  -2.068  -1.151  0.00  0.00    +0.144 C 
ATOM     32 CL   UNL     1      -9.692  -1.887   5.128  0.00  0.00    -0.084 Cl
ATOM     33  H   UNL     1     -10.788  -3.430  -1.152  0.00  0.00    +0.160 HD
ENDBRANCH  22  23
ENDBRANCH  21  22
ENDBRANCH   3  21
TORSDOF 6
