REMARK  Name = ZINC15108315
REMARK  11 active torsions:
REMARK  status: ('A' for Active; 'I' for Inactive)
REMARK    1  A    between atoms: C_1  and  C_2
REMARK    2  A    between atoms: C_2  and  C_3
REMARK    3  A    between atoms: C_3  and  C_4
REMARK    4  A    between atoms: C_4  and  O_5
REMARK    5  A    between atoms: O_5  and  C_6
REMARK    6  A    between atoms: C_6  and  C_8
REMARK    7  A    between atoms: C_11  and  N_14
REMARK    8  A    between atoms: C_20  and  C_27
REMARK    9  A    between atoms: N_25  and  C_26
REMARK   10  A    between atoms: C_30  and  O_33
REMARK   11  A    between atoms: O_33  and  C_34
REMARK                            x       y       z     vdW  Elec       q    Type
REMARK                         _______ _______ _______ _____ _____    ______ ____
ROOT
ATOM      1  N   UNL     1      -1.135   1.958   0.018  0.00  0.00    -0.262 N 
ATOM      2  C   UNL     1      -0.720   3.369   0.027  0.00  0.00    +0.165 C 
ATOM      3  C   UNL     1       0.792   3.329   0.012  0.00  0.00    +0.042 C 
ATOM      4  C   UNL     1       1.137   2.025   0.002  0.00  0.00    +0.058 C 
ATOM      5  C   UNL     1      -0.014   1.213   0.009  0.00  0.00    +0.251 C 
ATOM      6  O   UNL     1       0.002  -0.004   0.002  0.00  0.00    -0.270 OA
ATOM      7  C   UNL     1       2.615   1.688  -0.015  0.00  0.00    +0.142 C 
ATOM      8  N   UNL     1       3.557   2.819  -0.017  0.00  0.00    -0.288 N 
ATOM      9  C   UNL     1       3.058   4.071  -0.006  0.00  0.00    +0.307 C 
ATOM     10  O   UNL     1       3.828   5.012  -0.008  0.00  0.00    -0.252 OA
ATOM     11  N   UNL     1       1.740   4.312   0.008  0.00  0.00    -0.260 N 
ATOM     12  C   UNL     1       1.292   5.707   0.020  0.00  0.00    +0.139 C 
ATOM     13  H   UNL     1       4.515   2.667  -0.027  0.00  0.00    +0.151 HD
ENDROOT
BRANCH   1  17
ATOM     14  C   UNL     1      -5.048   0.535   0.025  0.00  0.00    +0.059 A 
ATOM     15  C   UNL     1      -3.976  -0.363   0.016  0.00  0.00    +0.017 A 
ATOM     16  C   UNL     1      -2.684   0.111   0.013  0.00  0.00    +0.024 A 
ATOM     17  C   UNL     1      -2.444   1.482   0.020  0.00  0.00    +0.037 A 
ATOM     18  C   UNL     1      -3.508   2.378   0.035  0.00  0.00    +0.024 A 
ATOM     19  C   UNL     1      -4.803   1.911   0.032  0.00  0.00    +0.017 A 
BRANCH  14  20
ATOM     20  C   UNL     1      -6.434   0.031   0.027  0.00  0.00    +0.339 C 
ATOM     21  O   UNL     1      -6.645  -1.166   0.021  0.00  0.00    -0.245 OA
BRANCH  20  22
ATOM     22  O   UNL     1      -7.466   0.897   0.036  0.00  0.00    -0.461 OA
BRANCH  22  23
ATOM     23  C   UNL     1      -8.802   0.330   0.038  0.00  0.00    +0.232 C 
BRANCH  23  24
ATOM     24  C   UNL     1      -9.835   1.459   0.049  0.00  0.00    +0.041 C 
BRANCH  24  26
ATOM     25  C   UNL     1     -12.277   1.990   0.061  0.00  0.00    +0.004 C 
ATOM     26  C   UNL     1     -11.244   0.861   0.050  0.00  0.00    -0.000 C 
ENDBRANCH  24  26
ENDBRANCH  23  24
ENDBRANCH  22  23
ENDBRANCH  20  22
ENDBRANCH  14  20
ENDBRANCH   1  17
BRANCH   7  27
ATOM     27  C   UNL     1       2.911   0.840   1.195  0.00  0.00    -0.022 A 
ATOM     28  C   UNL     1       3.082   1.436   2.431  0.00  0.00    +0.009 A 
ATOM     29  C   UNL     1       3.349   0.661   3.543  0.00  0.00    +0.046 A 
ATOM     30  C   UNL     1       3.456  -0.717   3.417  0.00  0.00    +0.120 A 
ATOM     31  C   UNL     1       3.289  -1.312   2.175  0.00  0.00    +0.046 A 
ATOM     32  C   UNL     1       3.017  -0.533   1.067  0.00  0.00    +0.009 A 
BRANCH  30  33
ATOM     33  O   UNL     1       3.723  -1.481   4.508  0.00  0.00    -0.495 OA
ATOM     34  C   UNL     1       3.882  -0.800   5.754  0.00  0.00    +0.277 C 
ENDBRANCH  30  33
ENDBRANCH   7  27
TORSDOF 8
