REMARK  Name = ZINC05523954
REMARK  7 active torsions:
REMARK  status: ('A' for Active; 'I' for Inactive)
REMARK    1  A    between atoms: C_1  and  C_2
REMARK    2  A    between atoms: C_2  and  O_3
REMARK    3  A    between atoms: O_3  and  C_4
REMARK    4  A    between atoms: C_4  and  C_6
REMARK    5  A    between atoms: C_8  and  C_20
REMARK    6  A    between atoms: C_14  and  C_15
REMARK    7  A    between atoms: C_14  and  O_19
REMARK                            x       y       z     vdW  Elec       q    Type
REMARK                         _______ _______ _______ _____ _____    ______ ____
ROOT
ATOM      1  C   UNL     1      -0.013   1.086   0.008  0.00  0.00    +0.181 C 
ATOM      2  C   UNL     1       1.423   1.620  -0.003  0.00  0.00    +0.125 C 
ATOM      3  N   UNL     1       1.395   3.078   0.121  0.00  0.00    -0.292 N 
ATOM      4  C   UNL     1       0.402   3.704   0.770  0.00  0.00    +0.302 C 
ATOM      5  O   UNL     1       0.431   4.916   0.853  0.00  0.00    -0.253 OA
ATOM      6  N   UNL     1      -0.622   3.044   1.333  0.00  0.00    -0.264 N 
ATOM      7  C   UNL     1      -0.709   1.584   1.279  0.00  0.00    +0.246 C 
ATOM      8  H   UNL     1       2.108   3.603  -0.275  0.00  0.00    +0.151 HD
ATOM      9  H   UNL     1      -1.319   3.545   1.785  0.00  0.00    +0.153 HD
ENDROOT
BRANCH   2  10
ATOM     10  C   UNL     1       2.093   1.238  -1.298  0.00  0.00    -0.008 A 
ATOM     11  C   UNL     1       2.192   2.160  -2.323  0.00  0.00    +0.008 A 
ATOM     12  C   UNL     1       2.812   1.811  -3.508  0.00  0.00    +0.020 A 
ATOM     13  C   UNL     1       3.323   0.536  -3.674  0.00  0.00    +0.042 A 
ATOM     14  C   UNL     1       3.219  -0.388  -2.651  0.00  0.00    +0.040 A 
ATOM     15  C   UNL     1       2.604  -0.038  -1.462  0.00  0.00    +0.047 A 
ATOM     16 CL   UNL     1       2.472  -1.198  -0.177  0.00  0.00    -0.083 Cl
ATOM     17 CL   UNL     1       4.095   0.097  -5.165  0.00  0.00    -0.083 Cl
ENDBRANCH   2  10
BRANCH   7  18
ATOM     18  C   UNL     1      -0.021   0.985   2.507  0.00  0.00    +0.436 C 
ATOM     19  F   UNL     1       1.322   1.377   2.527  0.00  0.00    -0.166 F 
ATOM     20  F   UNL     1      -0.657   1.440   3.667  0.00  0.00    -0.166 F 
ATOM     21  F   UNL     1      -0.098  -0.411   2.451  0.00  0.00    -0.166 F 
ENDBRANCH   7  18
BRANCH   1  22
ATOM     22  C   UNL     1      -0.749   1.589  -1.207  0.00  0.00    +0.317 C 
ATOM     23  O   UNL     1      -0.183   2.296  -2.006  0.00  0.00    -0.250 OA
BRANCH  22  24
ATOM     24  O   UNL     1      -2.033   1.250  -1.401  0.00  0.00    -0.465 OA
BRANCH  24  26
ATOM     25  C   UNL     1      -4.128   1.282  -2.643  0.00  0.00    +0.048 C 
ATOM     26  C   UNL     1      -2.679   1.771  -2.593  0.00  0.00    +0.229 C 
ENDBRANCH  24  26
ENDBRANCH  22  24
ENDBRANCH   1  22
BRANCH   7  27
ATOM     27  O   UNL     1      -2.082   1.188   1.258  0.00  0.00    -0.364 OA
ATOM     28  H   UNL     1      -2.584   1.470   2.034  0.00  0.00    +0.212 HD
ENDBRANCH   7  27
TORSDOF 6
