REMARK  Name = ZINC34733599
REMARK  8 active torsions:
REMARK  status: ('A' for Active; 'I' for Inactive)
REMARK    1  A    between atoms: C_1  and  C_2
REMARK    2  A    between atoms: C_6  and  C_8
REMARK    3  A    between atoms: C_11  and  C_23
REMARK    4  A    between atoms: N_14  and  C_16
REMARK    5  A    between atoms: C_16  and  C_17
REMARK    6  A    between atoms: N_25  and  C_26
REMARK    7  A    between atoms: N_25  and  C_27
REMARK    8  A    between atoms: C_27  and  C_28
REMARK                            x       y       z     vdW  Elec       q    Type
REMARK                         _______ _______ _______ _____ _____    ______ ____
ROOT
ATOM      1  C   UNL     1      -0.288  -3.058   3.070  0.00  0.00    +0.003 C 
ATOM      2  C   UNL     1       0.963  -3.926   2.906  0.00  0.00    +0.017 C 
ATOM      3  C   UNL     1       1.335  -4.529   4.264  0.00  0.00    +0.059 C 
ATOM      4  C   UNL     1       0.144  -5.323   4.806  0.00  0.00    -0.066 C 
ATOM      5  N   UNL     1      -1.011  -4.432   4.965  0.00  0.00    +0.383 N 
ATOM      6  C   UNL     1      -1.419  -3.905   3.657  0.00  0.00    -0.070 C 
ATOM      7  H   UNL     1      -0.762  -3.665   5.572  0.00  0.00    -0.081 HD
ENDROOT
BRANCH   1  13
ATOM      8  C   UNL     1      -1.212   0.824   0.048  0.00  0.00    +0.044 C 
ATOM      9  C   UNL     1      -1.150  -0.664   0.280  0.00  0.00    -0.050 A 
ATOM     10  C   UNL     1      -1.479  -1.537  -0.741  0.00  0.00    +0.003 A 
ATOM     11  C   UNL     1      -1.423  -2.901  -0.528  0.00  0.00    +0.001 A 
ATOM     12  C   UNL     1      -1.037  -3.393   0.705  0.00  0.00    +0.004 A 
ATOM     13  C   UNL     1      -0.708  -2.521   1.725  0.00  0.00    -0.046 A 
ATOM     14  C   UNL     1      -0.760  -1.156   1.511  0.00  0.00    +0.007 A 
ENDBRANCH   1  13
BRANCH   3  15
ATOM     15  C   UNL     1       2.519  -5.446   4.099  0.00  0.00    +0.217 C 
ATOM     16  O   UNL     1       2.390  -6.640   4.268  0.00  0.00    -0.275 OA
ATOM     17  N   UNL     1       3.722  -4.939   3.765  0.00  0.00    -0.297 N 
ATOM     18  C   UNL     1       3.913  -3.488   3.700  0.00  0.00    +0.132 C 
BRANCH  17  19
ATOM     19  C   UNL     1       4.839  -5.839   3.467  0.00  0.00    +0.181 C 
BRANCH  19  20
ATOM     20  C   UNL     1       4.847  -6.160   1.994  0.00  0.00    +0.122 A 
ATOM     21  C   UNL     1       5.499  -5.469   1.042  0.00  0.00    +0.046 A 
ATOM     22  C   UNL     1       5.233  -6.115  -0.187  0.00  0.00    +0.041 A 
ATOM     23  C   UNL     1       4.433  -7.161   0.087  0.00  0.00    +0.195 A 
ATOM     24  O   UNL     1       4.207  -7.187   1.411  0.00  0.00    -0.466 OA
ENDBRANCH  19  20
ENDBRANCH  17  19
ENDBRANCH   3  15
BRANCH   5  25
ATOM     25  C   UNL     1      -2.127  -5.180   5.559  0.00  0.00    -0.043 C 
BRANCH  25  26
ATOM     26  C   UNL     1      -1.758  -5.608   6.956  0.00  0.00    -0.064 A 
ATOM     27  C   UNL     1      -1.129  -6.822   7.164  0.00  0.00    +0.002 A 
ATOM     28  C   UNL     1      -0.790  -7.214   8.445  0.00  0.00    +0.000 A 
ATOM     29  C   UNL     1      -1.080  -6.393   9.519  0.00  0.00    +0.000 A 
ATOM     30  C   UNL     1      -1.707  -5.179   9.311  0.00  0.00    +0.000 A 
ATOM     31  C   UNL     1      -2.042  -4.785   8.029  0.00  0.00    +0.002 A 
ENDBRANCH  25  26
ENDBRANCH   5  25
TORSDOF 6
