REMARK  Name = ZINC51091080
REMARK  6 active torsions:
REMARK  status: ('A' for Active; 'I' for Inactive)
REMARK    1  A    between atoms: C_1  and  C_2
REMARK    2  A    between atoms: C_2  and  C_3
REMARK    3  A    between atoms: C_2  and  C_4
REMARK    4  A    between atoms: C_7  and  N_19
REMARK    5  A    between atoms: C_8  and  C_10
REMARK    6  A    between atoms: N_19  and  N_20
REMARK                            x       y       z     vdW  Elec       q    Type
REMARK                         _______ _______ _______ _____ _____    ______ ____
ROOT
ATOM      1  C   UNL     1      -1.400  -0.596  -0.143  0.00  0.00    +0.132 A 
ATOM      2  N   UNL     1      -2.054  -0.194   0.931  0.00  0.00    -0.238 NA
ATOM      3  C   UNL     1      -3.306  -0.554   1.142  0.00  0.00    +0.139 A 
ATOM      4  C   UNL     1      -3.943  -1.375   0.206  0.00  0.00    +0.090 A 
ATOM      5  C   UNL     1      -3.213  -1.780  -0.922  0.00  0.00    +0.151 A 
ATOM      6  N   UNL     1      -1.954  -1.363  -1.055  0.00  0.00    -0.225 NA
ENDROOT
BRANCH   5   7
ATOM      7  C   UNL     1      -3.832  -2.649  -1.947  0.00  0.00    +0.270 C 
ATOM      8  O   UNL     1      -5.009  -2.938  -1.868  0.00  0.00    -0.268 OA
ATOM      9  N   UNL     1      -3.089  -3.119  -2.968  0.00  0.00    -0.259 N 
ATOM     10  C   UNL     1      -3.669  -3.935  -3.931  0.00  0.00    +0.166 A 
ATOM     11  N   UNL     1      -4.917  -4.345  -4.011  0.00  0.00    -0.232 NA
ATOM     12  C   UNL     1      -5.317  -5.125  -4.998  0.00  0.00    +0.136 A 
ATOM     13  C   UNL     1      -4.385  -5.482  -5.918  0.00  0.00    +0.076 A 
ATOM     14  S   UNL     1      -2.949  -4.634  -5.282  0.00  0.00    -0.045 S 
ATOM     15 BR   UNL     1      -4.562  -6.571  -7.454  0.00  0.00    -0.041 Br
ATOM     16  H   UNL     1      -2.149  -2.888  -3.031  0.00  0.00    +0.157 HD
ENDBRANCH   5   7
BRANCH   1  18
ATOM     17  C   UNL     1       0.087   1.374  -0.390  0.00  0.00    +0.015 C 
ATOM     18  C   UNL     1       0.029  -0.154  -0.334  0.00  0.00    +0.051 C 
ATOM     19  C   UNL     1       0.877  -0.654   0.837  0.00  0.00    +0.015 C 
ENDBRANCH   1  18
BRANCH   4  20
ATOM     20  N   UNL     1      -5.259  -1.778   0.389  0.00  0.00    -0.280 N 
ATOM     21  H   UNL     1      -5.712  -2.283  -0.305  0.00  0.00    +0.166 HD
BRANCH  20  22
ATOM     22  N   UNL     1      -5.916  -1.464   1.545  0.00  0.00    -0.256 NA
ATOM     23  H   UNL     1      -6.859  -1.822   1.533  0.00  0.00    +0.140 HD
ATOM     24  H   UNL     1      -5.411  -1.802   2.350  0.00  0.00    +0.140 HD
ENDBRANCH  20  22
ENDBRANCH   4  20
TORSDOF 4
