REMARK  Name = ZINC40374081
REMARK  5 active torsions:
REMARK  status: ('A' for Active; 'I' for Inactive)
REMARK    1  A    between atoms: C_4  and  C_7
REMARK    2  A    between atoms: C_7  and  C_9
REMARK    3  A    between atoms: C_7  and  N_13
REMARK    4  A    between atoms: N_10  and  O_11
REMARK    5  A    between atoms: C_14  and  C_16
REMARK                            x       y       z     vdW  Elec       q    Type
REMARK                         _______ _______ _______ _____ _____    ______ ____
ROOT
ATOM      1  C   UNL     1       3.711  -0.707  -0.038  0.00  0.00    +0.170 C 
ENDROOT
BRANCH   1   5
ATOM      2  C   UNL     1      -0.017   1.378   0.010  0.00  0.00    +0.000 A 
ATOM      3  C   UNL     1       1.171   2.086   0.002  0.00  0.00    +0.000 A 
ATOM      4  C   UNL     1       2.377   1.411  -0.013  0.00  0.00    +0.006 A 
ATOM      5  C   UNL     1       2.396   0.029  -0.020  0.00  0.00    -0.020 A 
ATOM      6  C   UNL     1       1.208  -0.679  -0.012  0.00  0.00    +0.006 A 
ATOM      7  C   UNL     1       0.002  -0.004   0.002  0.00  0.00    +0.000 A 
ENDBRANCH   1   5
BRANCH   1   8
ATOM      8  C   UNL     1       4.014  -1.161  -1.442  0.00  0.00    +0.157 C 
ATOM      9  N   UNL     1       5.132  -0.831  -2.001  0.00  0.00    -0.074 NA
ATOM     10  N   UNL     1       3.100  -1.927  -2.131  0.00  0.00    -0.342 N 
ATOM     11  H   UNL     1       2.262  -2.175  -1.712  0.00  0.00    +0.144 HD
ATOM     12  H   UNL     1       3.296  -2.219  -3.035  0.00  0.00    +0.144 HD
BRANCH   9  13
ATOM     13  O   UNL     1       5.417  -1.257  -3.321  0.00  0.00    -0.408 OA
ATOM     14  H   UNL     1       6.275  -0.961  -3.653  0.00  0.00    +0.328 HD
ENDBRANCH   9  13
ENDBRANCH   1   8
BRANCH   1  15
ATOM     15  N   UNL     1       3.630  -1.873   0.845  0.00  0.00    -0.295 N 
ATOM     16  C   UNL     1       4.751  -2.385   1.391  0.00  0.00    +0.280 C 
ATOM     17  O   UNL     1       5.831  -1.878   1.150  0.00  0.00    -0.267 OA
ATOM     18  H   UNL     1       2.769  -2.277   1.038  0.00  0.00    +0.150 HD
BRANCH  16  19
ATOM     19  C   UNL     1       4.670  -3.552   2.274  0.00  0.00    +0.191 A 
ATOM     20  C   UNL     1       5.723  -4.164   2.894  0.00  0.00    +0.056 A 
ATOM     21  C   UNL     1       5.191  -5.229   3.635  0.00  0.00    +0.058 A 
ATOM     22  C   UNL     1       3.852  -5.222   3.438  0.00  0.00    +0.171 A 
ATOM     23  O   UNL     1       3.542  -4.206   2.622  0.00  0.00    -0.444 OA
ATOM     24 BR   UNL     1       2.620  -6.440   4.196  0.00  0.00    -0.008 Br
ENDBRANCH  16  19
ENDBRANCH   1  15
TORSDOF 5
