REMARK  Name = ZINC03845804
REMARK  8 active torsions:
REMARK  status: ('A' for Active; 'I' for Inactive)
REMARK    1  A    between atoms: C_4  and  N_7
REMARK    2  A    between atoms: N_7  and  C_8
REMARK    3  A    between atoms: C_8  and  N_10
REMARK    4  A    between atoms: N_10  and  C_11
REMARK    5  A    between atoms: N_10  and  C_22
REMARK    6  A    between atoms: C_11  and  C_12
REMARK    7  A    between atoms: C_22  and  N_24
REMARK    8  A    between atoms: N_24  and  C_25
REMARK                            x       y       z     vdW  Elec       q    Type
REMARK                         _______ _______ _______ _____ _____    ______ ____
ROOT
ATOM      1  N   UNL     1      -4.797   3.794  -0.376  0.00  0.00    -0.266 N 
ENDROOT
BRANCH   1   2
ATOM      2  C   UNL     1      -3.638   3.116  -0.490  0.00  0.00    +0.143 C 
ATOM      3  S   UNL     1      -3.658   1.424  -0.752  0.00  0.00    -0.018 S 
BRANCH   2   4
ATOM      4  N   UNL     1      -2.463   3.769  -0.399  0.00  0.00    -0.296 N 
ATOM      5  H   UNL     1      -2.449   4.712  -0.171  0.00  0.00    +0.154 HD
BRANCH   4   9
ATOM      6  C   UNL     1       1.109   1.740  -1.092  0.00  0.00    +0.000 A 
ATOM      7  C   UNL     1       0.018   1.517  -1.912  0.00  0.00    +0.002 A 
ATOM      8  C   UNL     1      -1.166   2.192  -1.688  0.00  0.00    +0.023 A 
ATOM      9  C   UNL     1      -1.264   3.088  -0.631  0.00  0.00    +0.033 A 
ATOM     10  C   UNL     1      -0.166   3.310   0.191  0.00  0.00    +0.023 A 
ATOM     11  C   UNL     1       1.016   2.636  -0.042  0.00  0.00    +0.002 A 
ENDBRANCH   4   9
ENDBRANCH   2   4
ENDBRANCH   1   2
BRANCH   1  12
ATOM     12  C   UNL     1      -5.968   3.127  -0.347  0.00  0.00    +0.143 C 
ATOM     13  S   UNL     1      -5.996   1.435  -0.603  0.00  0.00    -0.018 S 
BRANCH  12  14
ATOM     14  N   UNL     1      -7.117   3.793  -0.116  0.00  0.00    -0.296 N 
ATOM     15  H   UNL     1      -7.109   4.759  -0.028  0.00  0.00    +0.154 HD
BRANCH  14  16
ATOM     16  C   UNL     1      -8.322   3.090  -0.004  0.00  0.00    +0.033 A 
ATOM     17  C   UNL     1      -8.626   2.082  -0.908  0.00  0.00    +0.023 A 
ATOM     18  C   UNL     1      -9.814   1.387  -0.791  0.00  0.00    +0.002 A 
ATOM     19  C   UNL     1     -10.705   1.702   0.218  0.00  0.00    +0.000 A 
ATOM     20  C   UNL     1     -10.407   2.709   1.118  0.00  0.00    +0.002 A 
ATOM     21  C   UNL     1      -9.218   3.404   1.010  0.00  0.00    +0.023 A 
ENDBRANCH  14  16
ENDBRANCH  12  14
ENDBRANCH   1  12
BRANCH   1  22
ATOM     22  C   UNL     1      -4.784   5.256  -0.282  0.00  0.00    +0.103 C 
BRANCH  22  23
ATOM     23  C   UNL     1      -4.868   5.857  -1.687  0.00  0.00    -0.023 C 
ATOM     24  C   UNL     1      -4.756   7.356  -1.594  0.00  0.00    -0.057 A 
ATOM     25  C   UNL     1      -5.448   8.008  -0.584  0.00  0.00    +0.002 A 
ATOM     26  C   UNL     1      -5.378   9.382  -0.463  0.00  0.00    +0.000 A 
ATOM     27  C   UNL     1      -4.613  10.112  -1.354  0.00  0.00    +0.000 A 
ATOM     28  C   UNL     1      -3.923   9.465  -2.359  0.00  0.00    +0.004 A 
ATOM     29  C   UNL     1      -3.993   8.085  -2.480  0.00  0.00    -0.047 A 
ATOM     30  C   UNL     1      -3.220   7.421  -3.591  0.00  0.00    +0.016 C 
ATOM     31  C   UNL     1      -3.740   6.001  -3.812  0.00  0.00    -0.077 C 
ATOM     32  N   UNL     1      -3.782   5.308  -2.511  0.00  0.00    +0.385 N 
ATOM     33  H   UNL     1      -3.944   4.306  -2.664  0.00  0.00    -0.085 HD
ATOM     34  H   UNL     1      -2.887   5.440  -2.026  0.00  0.00    -0.085 HD
ENDBRANCH  22  23
ENDBRANCH   1  22
TORSDOF 8
