REMARK  Name = ZINC09552176
REMARK  7 active torsions:
REMARK  status: ('A' for Active; 'I' for Inactive)
REMARK    1  A    between atoms: C_1  and  C_2
REMARK    2  A    between atoms: C_3  and  C_28
REMARK    3  A    between atoms: C_9  and  C_12
REMARK    4  A    between atoms: C_12  and  O_14
REMARK    5  A    between atoms: O_14  and  C_15
REMARK    6  A    between atoms: C_15  and  C_16
REMARK    7  A    between atoms: N_18  and  C_19
REMARK                            x       y       z     vdW  Elec       q    Type
REMARK                         _______ _______ _______ _____ _____    ______ ____
ROOT
ATOM      1  O   UNL     1       3.425   7.282  -0.944  0.00  0.00    -0.452 OA
ENDROOT
BRANCH   1   2
ATOM      2  C   UNL     1       4.498   8.083  -1.098  0.00  0.00    +0.340 C 
ATOM      3  O   UNL     1       5.613   7.656  -0.874  0.00  0.00    -0.245 OA
BRANCH   2  12
ATOM      4  C   UNL     1       7.652  12.731  -2.249  0.00  0.00    +0.046 C 
ATOM      5  C   UNL     1       6.151  12.742  -2.380  0.00  0.00    -0.022 A 
ATOM      6  C   UNL     1       5.390  13.780  -2.761  0.00  0.00    +0.017 A 
ATOM      7  N   UNL     1       4.070  13.417  -2.762  0.00  0.00    -0.358 N 
ATOM      8  H   UNL     1       3.333  13.999  -3.002  0.00  0.00    +0.166 HD
ATOM      9  C   UNL     1       3.944  12.105  -2.373  0.00  0.00    +0.047 A 
ATOM     10  C   UNL     1       5.243  11.622  -2.116  0.00  0.00    +0.004 A 
ATOM     11  C   UNL     1       5.426  10.307  -1.698  0.00  0.00    +0.025 A 
ATOM     12  C   UNL     1       4.318   9.479  -1.539  0.00  0.00    +0.060 A 
ATOM     13  C   UNL     1       3.031   9.970  -1.804  0.00  0.00    +0.017 A 
ATOM     14  C   UNL     1       2.849  11.260  -2.207  0.00  0.00    +0.027 A 
ATOM     15  C   UNL     1       5.912  15.144  -3.133  0.00  0.00    +0.063 C 
ENDBRANCH   2  12
ENDBRANCH   1   2
BRANCH   1  16
ATOM     16  C   UNL     1       3.677   5.920  -0.507  0.00  0.00    +0.328 C 
BRANCH  16  17
ATOM     17  C   UNL     1       2.370   5.180  -0.392  0.00  0.00    +0.255 C 
ATOM     18  O   UNL     1       1.328   5.744  -0.651  0.00  0.00    -0.272 OA
ATOM     19  N   UNL     1       2.358   3.890   0.001  0.00  0.00    -0.280 N 
ATOM     20  H   UNL     1       3.182   3.460   0.278  0.00  0.00    +0.155 HD
BRANCH  19  21
ATOM     21  C   UNL     1       1.156   3.172   0.008  0.00  0.00    +0.071 A 
ATOM     22  C   UNL     1       0.748   2.486  -1.129  0.00  0.00    +0.065 A 
ATOM     23  C   UNL     1      -0.439   1.777  -1.118  0.00  0.00    +0.042 A 
ATOM     24  C   UNL     1      -1.223   1.755   0.021  0.00  0.00    +0.044 A 
ATOM     25  C   UNL     1      -0.817   2.433   1.157  0.00  0.00    +0.042 A 
ATOM     26  C   UNL     1       0.369   3.143   1.153  0.00  0.00    +0.065 A 
ATOM     27 CL   UNL     1       0.875   3.999   2.576  0.00  0.00    -0.082 Cl
ATOM     28 CL   UNL     1      -2.716   0.870   0.028  0.00  0.00    -0.083 Cl
ATOM     29 CL   UNL     1       1.728   2.518  -2.561  0.00  0.00    -0.082 Cl
ENDBRANCH  19  21
ENDBRANCH  16  17
ENDBRANCH   1  16
TORSDOF 5
