REMARK  Name = ZINC15617558
REMARK  5 active torsions:
REMARK  status: ('A' for Active; 'I' for Inactive)
REMARK    1  A    between atoms: C_5  and  N_8
REMARK    2  A    between atoms: C_9  and  C_11
REMARK    3  A    between atoms: C_11  and  C_12
REMARK    4  A    between atoms: C_12  and  N_13
REMARK    5  A    between atoms: N_16  and  C_17
REMARK                            x       y       z     vdW  Elec       q    Type
REMARK                         _______ _______ _______ _____ _____    ______ ____
ROOT
ATOM      1  N   UNL     1      -6.368   0.892   1.079  0.00  0.00    -0.299 N 
ATOM      2  C   UNL     1      -5.103   1.358   1.069  0.00  0.00    +0.300 C 
ATOM      3  O   UNL     1      -4.706   2.058   1.981  0.00  0.00    -0.253 OA
ATOM      4  N   UNL     1      -4.279   1.049   0.049  0.00  0.00    -0.294 N 
ATOM      5  H   UNL     1      -6.684   0.334   0.351  0.00  0.00    +0.150 HD
ATOM      6  H   UNL     1      -4.595   0.491  -0.679  0.00  0.00    +0.151 HD
ENDROOT
BRANCH   4   7
ATOM      7  C   UNL     1      -2.904   1.556   0.038  0.00  0.00    +0.037 C 
ATOM      8  C   UNL     1      -2.188   1.063  -1.221  0.00  0.00    +0.029 C 
ATOM      9  C   UNL     1      -0.753   1.593  -1.232  0.00  0.00    -0.008 C 
ATOM     10  C   UNL     1      -0.013   1.086   0.008  0.00  0.00    +0.007 C 
ATOM     11  C   UNL     1      -0.729   1.579   1.267  0.00  0.00    -0.008 C 
ATOM     12  C   UNL     1      -2.164   1.050   1.278  0.00  0.00    +0.029 C 
ATOM     13  C   UNL     1      -0.750   3.109   1.275  0.00  0.00    +0.007 C 
ATOM     14  C   UNL     1      -1.490   3.616   0.036  0.00  0.00    -0.008 C 
ATOM     15  C   UNL     1      -0.773   3.123  -1.223  0.00  0.00    +0.007 C 
ATOM     16  C   UNL     1      -2.925   3.086   0.047  0.00  0.00    +0.029 C 
ENDBRANCH   4   7
BRANCH   1  17
ATOM     17  C   UNL     1      -7.264   1.227   2.188  0.00  0.00    +0.115 C 
BRANCH  17  18
ATOM     18  C   UNL     1      -8.629   0.577   1.955  0.00  0.00    +0.114 C 
BRANCH  18  20
ATOM     19  N   UNL     1     -10.815   0.456   3.106  0.00  0.00    -0.312 N 
ATOM     20  C   UNL     1      -9.551   0.922   3.096  0.00  0.00    +0.215 C 
ATOM     21  O   UNL     1      -9.155   1.620   4.006  0.00  0.00    -0.276 OA
ATOM     22  H   UNL     1     -11.132  -0.102   2.378  0.00  0.00    +0.149 HD
BRANCH  19  27
ATOM     23  C   UNL     1     -13.377   0.013   7.002  0.00  0.00    +0.000 C 
ATOM     24  C   UNL     1     -14.297  -0.055   5.768  0.00  0.00    +0.000 C 
ATOM     25  C   UNL     1     -14.102   1.114   4.840  0.00  0.00    +0.002 C 
ATOM     26  C   UNL     1     -13.088   0.710   3.750  0.00  0.00    +0.022 C 
ATOM     27  C   UNL     1     -11.712   0.791   4.215  0.00  0.00    +0.073 C 
ATOM     28  C   UNL     1     -11.431  -0.166   5.391  0.00  0.00    +0.022 C 
ATOM     29  C   UNL     1     -11.946   0.467   6.656  0.00  0.00    +0.002 C 
ENDBRANCH  19  27
ENDBRANCH  18  20
ENDBRANCH  17  18
ENDBRANCH   1  17
TORSDOF 5
