REMARK  Name = ZINC65507270
REMARK  8 active torsions:
REMARK  status: ('A' for Active; 'I' for Inactive)
REMARK    1  A    between atoms: C_1  and  C_2
REMARK    2  A    between atoms: C_2  and  C_3
REMARK    3  A    between atoms: C_2  and  C_4
REMARK    4  A    between atoms: C_2  and  C_5
REMARK    5  A    between atoms: N_8  and  C_10
REMARK    6  A    between atoms: C_15  and  C_17
REMARK    7  A    between atoms: C_21  and  O_23
REMARK    8  A    between atoms: O_23  and  C_24
REMARK                            x       y       z     vdW  Elec       q    Type
REMARK                         _______ _______ _______ _____ _____    ______ ____
ROOT
ATOM      1  C   UNL     1       0.664   0.440  -0.992  0.00  0.00    +0.074 A 
ATOM      2  C   UNL     1       0.737  -0.155  -2.242  0.00  0.00    +0.024 A 
ATOM      3  C   UNL     1       1.340   0.729  -3.097  0.00  0.00    +0.127 A 
ATOM      4  N   UNL     1       1.640   1.833  -2.396  0.00  0.00    -0.253 N 
ATOM      5  N   UNL     1       1.199   1.636  -1.077  0.00  0.00    -0.174 NA
ATOM      6  C   UNL     1       2.304   3.031  -2.915  0.00  0.00    +0.174 C 
ATOM      7  N   UNL     1       1.543   0.431  -4.444  0.00  0.00    -0.270 N 
ATOM      8  C   UNL     1       0.950  -0.674  -4.947  0.00  0.00    +0.219 C 
ATOM      9  O   UNL     1       1.262  -1.054  -6.055  0.00  0.00    -0.275 OA
ATOM     10  C   UNL     1      -0.082  -1.446  -4.175  0.00  0.00    +0.109 C 
ATOM     11  C   UNL     1       0.275  -1.520  -2.687  0.00  0.00    +0.063 C 
ATOM     12  H   UNL     1       2.093   1.000  -5.004  0.00  0.00    +0.156 HD
ENDROOT
BRANCH  11  13
ATOM     13  C   UNL     1      -0.939  -1.928  -1.894  0.00  0.00    -0.032 A 
ATOM     14  C   UNL     1      -0.852  -2.968  -0.987  0.00  0.00    +0.054 A 
ATOM     15  C   UNL     1      -1.966  -3.348  -0.255  0.00  0.00    +0.170 A 
ATOM     16  C   UNL     1      -3.173  -2.680  -0.433  0.00  0.00    +0.208 A 
ATOM     17  C   UNL     1      -3.256  -1.635  -1.345  0.00  0.00    +0.166 A 
ATOM     18  C   UNL     1      -2.135  -1.258  -2.070  0.00  0.00    +0.054 A 
ATOM     19  O   UNL     1      -4.107  -3.236   0.395  0.00  0.00    -0.449 OA
ATOM     20  C   UNL     1      -3.566  -4.513   0.781  0.00  0.00    +0.467 C 
ATOM     21  O   UNL     1      -2.142  -4.323   0.685  0.00  0.00    -0.452 OA
BRANCH  17  22
ATOM     22  O   UNL     1      -4.434  -0.978  -1.522  0.00  0.00    -0.491 OA
ATOM     23  C   UNL     1      -4.446   0.086  -2.476  0.00  0.00    +0.277 C 
ENDBRANCH  17  22
ENDBRANCH  11  13
BRANCH   1  25
ATOM     24  C   UNL     1       0.294   0.757   1.439  0.00  0.00    +0.017 C 
ATOM     25  C   UNL     1       0.069  -0.176   0.248  0.00  0.00    +0.007 C 
ATOM     26  C   UNL     1       0.742  -1.523   0.521  0.00  0.00    +0.017 C 
ATOM     27  C   UNL     1      -1.432  -0.389   0.042  0.00  0.00    +0.017 C 
ENDBRANCH   1  25
TORSDOF 3
