REMARK  Name = ZINC26503488
REMARK  8 active torsions:
REMARK  status: ('A' for Active; 'I' for Inactive)
REMARK    1  A    between atoms: C_1  and  C_2
REMARK    2  A    between atoms: C_2  and  C_4
REMARK    3  A    between atoms: C_6  and  C_18
REMARK    4  A    between atoms: C_12  and  C_13
REMARK    5  A    between atoms: C_12  and  O_17
REMARK    6  A    between atoms: C_22  and  O_24
REMARK    7  A    between atoms: O_24  and  C_25
REMARK    8  A    between atoms: C_25  and  C_26
REMARK                            x       y       z     vdW  Elec       q    Type
REMARK                         _______ _______ _______ _____ _____    ______ ____
ROOT
ATOM      1  C   UNL     1      -0.723   1.581   1.272  0.00  0.00    +0.139 C 
ATOM      2  C   UNL     1      -0.013   1.086   0.008  0.00  0.00    +0.120 C 
ATOM      3  N   UNL     1       1.360   1.594  -0.002  0.00  0.00    -0.292 N 
ATOM      4  C   UNL     1       2.019   1.846   1.138  0.00  0.00    +0.302 C 
ATOM      5  O   UNL     1       3.162   2.257   1.074  0.00  0.00    -0.253 OA
ATOM      6  N   UNL     1       1.468   1.662   2.347  0.00  0.00    -0.264 N 
ATOM      7  C   UNL     1       0.102   1.157   2.493  0.00  0.00    +0.243 C 
ATOM      8  H   UNL     1       1.872   1.776  -0.959  0.00  0.00    +0.151 HD
ATOM      9  H   UNL     1       2.065   1.898   3.241  0.00  0.00    +0.153 HD
ENDROOT
BRANCH   2  10
ATOM     10  C   UNL     1      -0.744   1.586  -1.211  0.00  0.00    -0.023 A 
ATOM     11  C   UNL     1      -0.549   2.883  -1.649  0.00  0.00    +0.006 A 
ATOM     12  C   UNL     1      -1.219   3.345  -2.767  0.00  0.00    +0.004 A 
ATOM     13  C   UNL     1      -2.084   2.512  -3.449  0.00  0.00    +0.045 A 
ATOM     14  C   UNL     1      -2.281   1.210  -3.012  0.00  0.00    +0.121 A 
ATOM     15  C   UNL     1      -1.604   0.747  -1.893  0.00  0.00    +0.051 A 
BRANCH  14  16
ATOM     16  O   UNL     1      -3.132   0.389  -3.680  0.00  0.00    -0.487 OA
BRANCH  16  17
ATOM     17  C   UNL     1      -3.791   0.931  -4.826  0.00  0.00    +0.264 C 
BRANCH  17  18
ATOM     18  C   UNL     1      -4.688  -0.117  -5.434  0.00  0.00    -0.010 A 
ATOM     19  C   UNL     1      -4.198  -0.964  -6.410  0.00  0.00    +0.007 A 
ATOM     20  C   UNL     1      -5.019  -1.928  -6.964  0.00  0.00    +0.000 A 
ATOM     21  C   UNL     1      -6.333  -2.040  -6.548  0.00  0.00    +0.000 A 
ATOM     22  C   UNL     1      -6.824  -1.190  -5.575  0.00  0.00    +0.000 A 
ATOM     23  C   UNL     1      -6.002  -0.228  -5.018  0.00  0.00    +0.007 A 
ENDBRANCH  17  18
ENDBRANCH  16  17
ENDBRANCH  14  16
ENDBRANCH   2  10
BRANCH   7  24
ATOM     24  C   UNL     1      -0.526   1.739   3.761  0.00  0.00    +0.436 C 
ATOM     25  F   UNL     1      -0.552   3.135   3.671  0.00  0.00    -0.166 F 
ATOM     26  F   UNL     1      -1.831   1.256   3.899  0.00  0.00    -0.166 F 
ATOM     27  F   UNL     1       0.232   1.358   4.873  0.00  0.00    -0.166 F 
ENDBRANCH   7  24
BRANCH   1  29
ATOM     28  C   UNL     1      -3.217   1.720   2.028  0.00  0.00    +0.086 C 
ATOM     29  C   UNL     1      -2.098   0.970   1.353  0.00  0.00    +0.140 C 
ATOM     30  O   UNL     1      -2.302  -0.121   0.878  0.00  0.00    -0.297 OA
ENDBRANCH   1  29
BRANCH   7  31
ATOM     31  O   UNL     1       0.126  -0.269   2.581  0.00  0.00    -0.364 OA
ATOM     32  H   UNL     1       0.674  -0.760   3.399  0.00  0.00    +0.212 HD
ENDBRANCH   7  31
TORSDOF 7
