REMARK  Name = ZINC12743522
REMARK  7 active torsions:
REMARK  status: ('A' for Active; 'I' for Inactive)
REMARK    1  A    between atoms: C_1  and  C_2
REMARK    2  A    between atoms: C_2  and  N_3
REMARK    3  A    between atoms: N_3  and  C_4
REMARK    4  A    between atoms: C_12  and  C_14
REMARK    5  A    between atoms: C_14  and  C_16
REMARK    6  A    between atoms: C_14  and  S_17
REMARK    7  A    between atoms: S_17  and  C_18
REMARK                            x       y       z     vdW  Elec       q    Type
REMARK                         _______ _______ _______ _____ _____    ______ ____
ROOT
ATOM      1  C   UNL     1      -3.816  -1.598  -0.136  0.00  0.00    +0.192 A 
ATOM      2  N   UNL     1      -2.797  -2.445  -0.146  0.00  0.00    -0.207 NA
ATOM      3  C   UNL     1      -1.526  -2.080   0.004  0.00  0.00    +0.129 A 
ATOM      4  C   UNL     1      -1.295  -0.685   0.182  0.00  0.00    +0.051 A 
ATOM      5  C   UNL     1      -0.011  -0.026   0.367  0.00  0.00    -0.025 A 
ATOM      6  C   UNL     1      -0.035   1.317   0.516  0.00  0.00    -0.004 A 
ATOM      7  S   UNL     1      -1.750   1.768   0.427  0.00  0.00    -0.073 S 
ATOM      8  C   UNL     1      -2.433   0.161   0.182  0.00  0.00    +0.115 A 
ATOM      9  N   UNL     1      -3.665  -0.281   0.027  0.00  0.00    -0.214 NA
ATOM     10  C   UNL     1       1.137   2.228   0.719  0.00  0.00    +0.043 C 
ATOM     11  C   UNL     1       2.354   1.377   1.107  0.00  0.00    +0.005 C 
ATOM     12  C   UNL     1       2.454   0.196   0.137  0.00  0.00    +0.005 C 
ATOM     13  C   UNL     1       1.312  -0.786   0.395  0.00  0.00    +0.037 C 
ATOM     14  N   UNL     1      -0.493  -2.998  -0.013  0.00  0.00    -0.343 N 
ATOM     15  H   UNL     1       0.379  -2.754   0.335  0.00  0.00    +0.144 HD
ATOM     16  H   UNL     1      -0.639  -3.887  -0.373  0.00  0.00    +0.144 HD
ENDROOT
BRANCH   1  17
ATOM     17  S   UNL     1      -5.444  -2.238  -0.347  0.00  0.00    -0.073 S 
BRANCH  17  18
ATOM     18  C   UNL     1      -5.069  -4.001  -0.516  0.00  0.00    +0.137 C 
ATOM     19  C   UNL     1      -4.258  -4.229  -1.794  0.00  0.00    +0.029 C 
BRANCH  18  21
ATOM     20  N   UNL     1      -6.377  -6.078  -0.218  0.00  0.00    -0.296 N 
ATOM     21  C   UNL     1      -6.354  -4.783  -0.590  0.00  0.00    +0.229 C 
ATOM     22  O   UNL     1      -7.369  -4.247  -0.984  0.00  0.00    -0.274 OA
BRANCH  20  23
ATOM     23  C   UNL     1      -7.627  -6.839  -0.290  0.00  0.00    +0.098 C 
ATOM     24  C   UNL     1      -8.156  -6.835  -1.734  0.00  0.00    +0.046 C 
ATOM     25  C   UNL     1      -9.615  -7.350  -1.764  0.00  0.00    +0.168 C 
ATOM     26  S   UNL     1     -10.239  -6.889  -0.097  0.00  0.00    -0.029 S 
ATOM     27  O   UNL     1     -10.574  -8.072   0.616  0.00  0.00    -0.174 OA
ATOM     28  O   UNL     1     -11.208  -5.858  -0.234  0.00  0.00    -0.174 OA
ATOM     29  C   UNL     1      -8.700  -6.173   0.619  0.00  0.00    +0.188 C 
ENDBRANCH  20  23
BRANCH  20  31
ATOM     30  C   UNL     1      -5.042  -6.558   1.774  0.00  0.00    +0.024 C 
ATOM     31  C   UNL     1      -5.152  -6.726   0.257  0.00  0.00    +0.105 C 
ENDBRANCH  20  31
ENDBRANCH  18  21
ENDBRANCH  17  18
ENDBRANCH   1  17
TORSDOF 5
