REMARK  Name = ZINC09384546
REMARK  11 active torsions:
REMARK  status: ('A' for Active; 'I' for Inactive)
REMARK    1  A    between atoms: C_1  and  C_2
REMARK    2  A    between atoms: C_2  and  O_3
REMARK    3  A    between atoms: O_3  and  C_4
REMARK    4  A    between atoms: C_7  and  C_9
REMARK    5  A    between atoms: C_13  and  N_14
REMARK    6  A    between atoms: C_15  and  C_17
REMARK    7  A    between atoms: C_20  and  S_23
REMARK    8  A    between atoms: S_23  and  N_26
REMARK    9  A    between atoms: N_26  and  C_27
REMARK   10  A    between atoms: N_26  and  C_28
REMARK   11  A    between atoms: C_28  and  C_29
REMARK                            x       y       z     vdW  Elec       q    Type
REMARK                         _______ _______ _______ _____ _____    ______ ____
ROOT
ATOM      1  N   UNL     1      -1.320   3.464   0.027  0.00  0.00    -0.275 N 
ATOM      2  C   UNL     1      -1.305   2.117   0.020  0.00  0.00    +0.249 C 
ATOM      3  O   UNL     1      -2.351   1.497   0.021  0.00  0.00    -0.270 OA
ATOM      4  H   UNL     1      -0.485   3.958   0.026  0.00  0.00    +0.156 HD
ENDROOT
BRANCH   2   5
ATOM      5  C   UNL     1      -0.017   1.392   0.010  0.00  0.00    +0.037 A 
ATOM      6  C   UNL     1       1.186   2.100   0.002  0.00  0.00    +0.015 A 
ATOM      7  C   UNL     1       2.385   1.417  -0.013  0.00  0.00    +0.029 A 
ATOM      8  C   UNL     1       2.396   0.034  -0.021  0.00  0.00    +0.106 A 
ATOM      9  C   UNL     1       1.208  -0.674  -0.013  0.00  0.00    +0.029 A 
ATOM     10  C   UNL     1       0.002  -0.004   0.002  0.00  0.00    +0.015 A 
BRANCH   8  11
ATOM     11  S   UNL     1       3.932  -0.830  -0.039  0.00  0.00    +0.061 S 
ATOM     12  O   UNL     1       4.902   0.053   0.507  0.00  0.00    -0.153 OA
ATOM     13  O   UNL     1       3.680  -2.118   0.507  0.00  0.00    -0.153 OA
BRANCH  11  14
ATOM     14  N   UNL     1       4.344  -1.062  -1.626  0.00  0.00    -0.175 NA
ATOM     15  C   UNL     1       3.904  -2.271  -2.328  0.00  0.00    +0.132 C 
BRANCH  14  16
ATOM     16  C   UNL     1       5.148  -0.059  -2.329  0.00  0.00    +0.144 C 
BRANCH  16  17
ATOM     17  C   UNL     1       6.603  -0.450  -2.268  0.00  0.00    -0.032 A 
ATOM     18  C   UNL     1       7.394  -0.009  -1.224  0.00  0.00    +0.005 A 
ATOM     19  C   UNL     1       8.726  -0.371  -1.165  0.00  0.00    +0.000 A 
ATOM     20  C   UNL     1       9.271  -1.165  -2.157  0.00  0.00    +0.000 A 
ATOM     21  C   UNL     1       8.481  -1.602  -3.205  0.00  0.00    +0.000 A 
ATOM     22  C   UNL     1       7.147  -1.244  -3.260  0.00  0.00    +0.005 A 
ENDBRANCH  16  17
ENDBRANCH  14  16
ENDBRANCH  11  14
ENDBRANCH   8  11
ENDBRANCH   2   5
BRANCH   1  27
ATOM     23  C   UNL     1      -2.745   5.517   0.051  0.00  0.00    +0.066 A 
ATOM     24  C   UNL     1      -4.121   5.955   0.054  0.00  0.00    +0.022 A 
ATOM     25  C   UNL     1      -5.069   5.001   0.054  0.00  0.00    +0.048 A 
ATOM     26  S   UNL     1      -4.130   3.489   0.041  0.00  0.00    -0.081 S 
ATOM     27  C   UNL     1      -2.527   4.144   0.037  0.00  0.00    +0.084 A 
BRANCH  23  31
ATOM     28  C   UNL     1      -0.863   8.675   0.077  0.00  0.00    +0.407 C 
ATOM     29  O   UNL     1       0.284   8.274   0.070  0.00  0.00    -0.226 OA
ATOM     30  N   UNL     1      -1.885   7.797   0.071  0.00  0.00    -0.217 N 
ATOM     31  C   UNL     1      -1.635   6.472   0.057  0.00  0.00    +0.255 C 
ATOM     32  O   UNL     1      -0.486   6.070   0.051  0.00  0.00    -0.270 OA
ATOM     33  H   UNL     1      -2.800   8.117   0.077  0.00  0.00    +0.161 HD
BRANCH  28  34
ATOM     34  O   UNL     1      -1.112   9.998   0.091  0.00  0.00    -0.450 OA
BRANCH  34  36
ATOM     35  C   UNL     1      -0.442  12.339   0.113  0.00  0.00    +0.048 C 
ATOM     36  C   UNL     1       0.037  10.886   0.097  0.00  0.00    +0.230 C 
ENDBRANCH  34  36
ENDBRANCH  28  34
ENDBRANCH  23  31
ENDBRANCH   1  27
TORSDOF 9
