REMARK  Name = ZINC14467397
REMARK  7 active torsions:
REMARK  status: ('A' for Active; 'I' for Inactive)
REMARK    1  A    between atoms: C_1  and  C_2
REMARK    2  A    between atoms: C_2  and  C_3
REMARK    3  A    between atoms: C_2  and  N_4
REMARK    4  A    between atoms: N_4  and  S_5
REMARK    5  A    between atoms: S_5  and  C_8
REMARK    6  A    between atoms: C_21  and  C_24
REMARK    7  A    between atoms: C_29  and  O_30
REMARK                            x       y       z     vdW  Elec       q    Type
REMARK                         _______ _______ _______ _____ _____    ______ ____
ROOT
ATOM      1  C   UNL     1      -2.119   3.485   3.620  0.00  0.00    +0.106 A 
ATOM      2  C   UNL     1      -2.844   2.396   4.069  0.00  0.00    +0.030 A 
ATOM      3  C   UNL     1      -2.900   2.108   5.417  0.00  0.00    +0.025 A 
ATOM      4  C   UNL     1      -2.236   2.914   6.335  0.00  0.00    +0.031 A 
ATOM      5  C   UNL     1      -1.497   4.009   5.872  0.00  0.00    -0.018 A 
ATOM      6  C   UNL     1      -1.450   4.289   4.524  0.00  0.00    +0.034 A 
ATOM      7  C   UNL     1      -0.771   4.815   6.877  0.00  0.00    +0.049 C 
ATOM      8  C   UNL     1      -0.416   6.252   6.667  0.00  0.00    -0.023 C 
ATOM      9  C   UNL     1      -0.440   6.883   7.835  0.00  0.00    -0.030 C 
ATOM     10  C   UNL     1      -0.831   5.909   8.948  0.00  0.00    +0.033 C 
ATOM     11  C   UNL     1      -1.638   4.860   8.171  0.00  0.00    +0.029 C 
ATOM     12  C   UNL     1      -1.632   3.441   8.712  0.00  0.00    +0.109 C 
ATOM     13  N   UNL     1      -2.339   2.626   7.701  0.00  0.00    -0.336 N 
ATOM     14  H   UNL     1      -2.884   1.877   7.989  0.00  0.00    +0.147 HD
ENDROOT
BRANCH  12  15
ATOM     15  C   UNL     1      -0.216   2.953   8.877  0.00  0.00    +0.017 A 
ATOM     16  C   UNL     1       0.407   2.276   7.846  0.00  0.00    +0.029 A 
ATOM     17  C   UNL     1       1.708   1.832   7.995  0.00  0.00    +0.043 A 
ATOM     18  C   UNL     1       2.387   2.056   9.180  0.00  0.00    +0.043 A 
ATOM     19  C   UNL     1       1.766   2.728  10.216  0.00  0.00    +0.084 A 
ATOM     20  C   UNL     1       0.461   3.179  10.066  0.00  0.00    +0.140 A 
ATOM     21 CL   UNL     1       2.617   3.009  11.703  0.00  0.00    -0.080 Cl
ATOM     22 CL   UNL     1       2.490   0.987   6.695  0.00  0.00    -0.083 Cl
BRANCH  20  23
ATOM     23  O   UNL     1      -0.151   3.841  11.083  0.00  0.00    -0.505 OA
ATOM     24  H   UNL     1      -0.630   3.265  11.695  0.00  0.00    +0.292 HD
ENDBRANCH  20  23
ENDBRANCH  12  15
BRANCH   1  25
ATOM     25  S   UNL     1      -2.054   3.851   1.898  0.00  0.00    +0.059 S 
ATOM     26  O   UNL     1      -1.764   5.238   1.788  0.00  0.00    -0.153 OA
ATOM     27  O   UNL     1      -3.210   3.266   1.314  0.00  0.00    -0.153 OA
BRANCH  25  28
ATOM     28  N   UNL     1      -0.749   3.044   1.275  0.00  0.00    -0.187 NA
ATOM     29  H   UNL     1       0.003   3.541   0.915  0.00  0.00    +0.148 HD
BRANCH  28  31
ATOM     30  C   UNL     1      -0.013   1.086   0.008  0.00  0.00    +0.025 C 
ATOM     31  C   UNL     1      -0.729   1.579   1.267  0.00  0.00    +0.070 C 
ATOM     32  C   UNL     1       0.011   1.072   2.506  0.00  0.00    +0.025 C 
ENDBRANCH  28  31
ENDBRANCH  25  28
ENDBRANCH   1  25
TORSDOF 5
