REMARK  Name = ZINC67472682
REMARK  0 active torsions:
REMARK  status: ('A' for Active; 'I' for Inactive)
REMARK                            x       y       z     vdW  Elec       q    Type
REMARK                         _______ _______ _______ _____ _____    ______ ____
ROOT
ATOM      1  C   UNL     1       0.047   1.477  -0.035  0.00  0.00    +0.002 A 
ATOM      2  C   UNL     1       1.249   2.158  -0.087  0.00  0.00    +0.002 A 
ATOM      3  C   UNL     1       2.443   1.459  -0.095  0.00  0.00    +0.025 A 
ATOM      4  C   UNL     1       2.431   0.076  -0.048  0.00  0.00    +0.049 A 
ATOM      5  C   UNL     1       1.219  -0.613   0.011  0.00  0.00    +0.055 A 
ATOM      6  C   UNL     1       0.027   0.095   0.013  0.00  0.00    +0.025 A 
ATOM      7  N   UNL     1       1.216  -2.011   0.080  0.00  0.00    -0.282 N 
ATOM      8  C   UNL     1       2.358  -2.693   0.282  0.00  0.00    +0.241 C 
ATOM      9  O   UNL     1       2.354  -3.904   0.212  0.00  0.00    -0.273 OA
ATOM     10  C   UNL     1       3.642  -1.968   0.595  0.00  0.00    +0.112 C 
ATOM     11  N   UNL     1       3.626  -0.656  -0.066  0.00  0.00    -0.329 N 
ATOM     12  C   UNL     1       3.766  -1.774   2.107  0.00  0.00    +0.054 C 
ATOM     13  C   UNL     1       5.053  -1.002   2.415  0.00  0.00    +0.109 C 
ATOM     14  N   UNL     1       6.186  -1.707   1.800  0.00  0.00    -0.315 N 
ATOM     15  C   UNL     1       6.129  -2.021   0.366  0.00  0.00    +0.109 C 
ATOM     16  C   UNL     1       4.830  -2.782   0.079  0.00  0.00    +0.054 C 
ATOM     17  C   UNL     1       7.288  -2.069   2.558  0.00  0.00    +0.128 A 
ATOM     18  C   UNL     1       8.391  -1.217   2.659  0.00  0.00    +0.010 A 
ATOM     19  C   UNL     1       9.463  -1.614   3.424  0.00  0.00    +0.032 A 
ATOM     20  N   UNL     1       9.415  -2.793   4.036  0.00  0.00    -0.242 NA
ATOM     21  C   UNL     1       8.362  -3.575   3.922  0.00  0.00    +0.223 A 
ATOM     22  N   UNL     1       7.311  -3.229   3.207  0.00  0.00    -0.220 NA
ATOM     23  C   UNL     1      10.682  -0.749   3.588  0.00  0.00    -0.026 C 
ATOM     24  N   UNL     1      10.740   0.263   2.528  0.00  0.00    +0.383 N 
ATOM     25  C   UNL     1       9.473   1.010   2.504  0.00  0.00    -0.077 C 
ATOM     26  C   UNL     1       8.381   0.102   1.935  0.00  0.00    +0.021 C 
ATOM     27  H   UNL     1       0.381  -2.494  -0.020  0.00  0.00    +0.155 HD
ATOM     28  H   UNL     1       4.420  -0.307  -0.501  0.00  0.00    +0.147 HD
ATOM     29  H   UNL     1      11.503   0.899   2.710  0.00  0.00    -0.085 HD
ATOM     30  H   UNL     1      10.882  -0.189   1.637  0.00  0.00    -0.085 HD
ENDROOT
TORSDOF 0
