REMARK  Name = ZINC28632379
REMARK  8 active torsions:
REMARK  status: ('A' for Active; 'I' for Inactive)
REMARK    1  A    between atoms: C_1  and  C_2
REMARK    2  A    between atoms: C_2  and  O_3
REMARK    3  A    between atoms: O_3  and  C_4
REMARK    4  A    between atoms: C_6  and  C_12
REMARK    5  A    between atoms: C_9  and  O_10
REMARK    6  A    between atoms: N_13  and  N_14
REMARK    7  A    between atoms: C_15  and  C_17
REMARK    8  A    between atoms: C_19  and  C_25
REMARK                            x       y       z     vdW  Elec       q    Type
REMARK                         _______ _______ _______ _____ _____    ______ ____
ROOT
ATOM      1  N   UNL     1      -3.259  -0.331   2.450  0.00  0.00    -0.206 N 
ATOM      2  C   UNL     1      -2.574  -0.117   1.309  0.00  0.00    +0.245 C 
ATOM      3  O   UNL     1      -2.351   1.017   0.939  0.00  0.00    -0.273 OA
ATOM      4  H   UNL     1      -3.461  -1.359   2.785  0.00  0.00    +0.177 HD
ENDROOT
BRANCH   2   5
ATOM      5  C   UNL     1      -2.084  -1.285   0.494  0.00  0.00    +0.171 C 
ATOM      6  C   UNL     1      -0.546  -1.408   0.593  0.00  0.00    +0.057 C 
ATOM      7  C   UNL     1      -0.086  -0.614  -0.650  0.00  0.00    +0.113 C 
ATOM      8  N   UNL     1      -1.208  -0.680  -1.594  0.00  0.00    -0.314 N 
ATOM      9  C   UNL     1      -2.344  -1.050  -0.978  0.00  0.00    +0.226 C 
ATOM     10  O   UNL     1      -3.420  -1.175  -1.523  0.00  0.00    -0.275 OA
ATOM     11  H   UNL     1      -1.047  -0.441  -2.656  0.00  0.00    +0.149 HD
BRANCH   6  12
ATOM     12  C   UNL     1      -0.035  -0.771   1.859  0.00  0.00    -0.042 A 
ATOM     13  C   UNL     1      -0.009   0.605   1.979  0.00  0.00    +0.004 A 
ATOM     14  C   UNL     1       0.456   1.189   3.143  0.00  0.00    +0.000 A 
ATOM     15  C   UNL     1       0.904   0.396   4.183  0.00  0.00    +0.000 A 
ATOM     16  C   UNL     1       0.883  -0.981   4.061  0.00  0.00    +0.000 A 
ATOM     17  C   UNL     1       0.414  -1.565   2.899  0.00  0.00    +0.004 A 
ENDBRANCH   6  12
ENDBRANCH   2   5
BRANCH   1  19
ATOM     18  C   UNL     1      -4.272   0.553   4.363  0.00  0.00    +0.138 C 
ATOM     19  N   UNL     1      -3.714   0.755   3.209  0.00  0.00    -0.188 NA
BRANCH  18  22
ATOM     20  C   UNL     1      -4.420  -2.139   6.977  0.00  0.00    +0.163 A 
ATOM     21  C   UNL     1      -4.701  -0.983   6.273  0.00  0.00    +0.059 A 
ATOM     22  C   UNL     1      -3.973  -0.676   5.120  0.00  0.00    -0.001 A 
ATOM     23  C   UNL     1      -2.958  -1.535   4.690  0.00  0.00    +0.027 A 
ATOM     24  C   UNL     1      -2.680  -2.684   5.400  0.00  0.00    +0.059 A 
ATOM     25  C   UNL     1      -3.407  -2.991   6.542  0.00  0.00    +0.172 A 
ATOM     26  I   UNL     1      -1.159  -3.971   4.753  0.00  0.00    -0.040 I 
BRANCH  25  27
ATOM     27  O   UNL     1      -3.129  -4.125   7.238  0.00  0.00    -0.503 OA
ATOM     28  H   UNL     1      -2.330  -4.798   6.896  0.00  0.00    +0.292 HD
ENDBRANCH  25  27
BRANCH  20  29
ATOM     29  O   UNL     1      -5.130  -2.443   8.096  0.00  0.00    -0.489 OA
BRANCH  29  31
ATOM     30  C   UNL     1      -6.838  -2.031   9.755  0.00  0.00    +0.048 C 
ATOM     31  C   UNL     1      -6.154  -1.525   8.484  0.00  0.00    +0.226 C 
ENDBRANCH  29  31
ENDBRANCH  20  29
ENDBRANCH  18  22
ENDBRANCH   1  19
TORSDOF 7
