REMARK  Name = ZINC59020760
REMARK  9 active torsions:
REMARK  status: ('A' for Active; 'I' for Inactive)
REMARK    1  A    between atoms: C_1  and  C_2
REMARK    2  A    between atoms: C_5  and  C_8
REMARK    3  A    between atoms: C_8  and  N_9
REMARK    4  A    between atoms: C_10  and  C_12
REMARK    5  A    between atoms: C_12  and  S_13
REMARK    6  A    between atoms: S_13  and  C_14
REMARK    7  A    between atoms: N_19  and  N_20
REMARK    8  A    between atoms: C_21  and  C_22
REMARK    9  A    between atoms: C_21  and  C_23
REMARK                            x       y       z     vdW  Elec       q    Type
REMARK                         _______ _______ _______ _____ _____    ______ ____
ROOT
ATOM      1  C   UNL     1       5.094  -9.728   2.788  0.00  0.00    +0.211 A 
ATOM      2  N   UNL     1       5.545 -10.729   2.024  0.00  0.00    -0.186 NA
ATOM      3  C   UNL     1       6.804 -10.510   1.707  0.00  0.00    +0.232 A 
ATOM      4  N   UNL     1       7.181  -9.344   2.275  0.00  0.00    -0.245 N 
ATOM      5  N   UNL     1       6.058  -8.856   2.962  0.00  0.00    -0.144 NA
ATOM      6  N   UNL     1       7.601 -11.330   0.929  0.00  0.00    -0.205 N 
ATOM      7  H   UNL     1       8.522 -11.083   0.750  0.00  0.00    +0.177 HD
ATOM      8  H   UNL     1       8.053  -8.925   2.216  0.00  0.00    +0.192 HD
ENDROOT
BRANCH   6   9
ATOM      9  N   UNL     1       7.079 -12.518   0.401  0.00  0.00    -0.184 NA
ATOM     10  C   UNL     1       7.855 -13.344  -0.232  0.00  0.00    +0.063 C 
ATOM     11  C   UNL     1       7.266 -14.524  -0.961  0.00  0.00    +0.068 C 
BRANCH  10  12
ATOM     12  C   UNL     1       9.314 -13.128  -0.236  0.00  0.00    -0.002 A 
ATOM     13  C   UNL     1       9.953 -12.633   0.903  0.00  0.00    +0.011 A 
ATOM     14  C   UNL     1      11.318 -12.434   0.893  0.00  0.00    +0.016 A 
ATOM     15  C   UNL     1      12.054 -12.723  -0.244  0.00  0.00    +0.018 A 
ATOM     16  C   UNL     1      11.426 -13.213  -1.377  0.00  0.00    +0.016 A 
ATOM     17  C   UNL     1      10.063 -13.422  -1.378  0.00  0.00    +0.011 A 
ATOM     18 BR   UNL     1      13.924 -12.446  -0.250  0.00  0.00    -0.050 Br
ENDBRANCH  10  12
ENDBRANCH   6   9
BRANCH   1  19
ATOM     19  S   UNL     1       3.464  -9.598   3.446  0.00  0.00    -0.075 S 
BRANCH  19  20
ATOM     20  C   UNL     1       3.487  -8.036   4.368  0.00  0.00    +0.173 C 
BRANCH  20  22
ATOM     21  N   UNL     1       1.916  -6.693   5.727  0.00  0.00    -0.311 N 
ATOM     22  C   UNL     1       2.135  -7.800   4.990  0.00  0.00    +0.224 C 
ATOM     23  O   UNL     1       1.244  -8.606   4.828  0.00  0.00    -0.275 OA
ATOM     24  H   UNL     1       2.629  -6.048   5.857  0.00  0.00    +0.149 HD
BRANCH  21  25
ATOM     25  C   UNL     1       0.602  -6.464   6.332  0.00  0.00    +0.139 C 
BRANCH  25  30
ATOM     26  C   UNL     1       0.670  -1.488   9.270  0.00  0.00    +0.044 C 
ATOM     27  C   UNL     1       0.653  -2.786   8.503  0.00  0.00    -0.050 A 
ATOM     28  C   UNL     1       0.295  -2.795   7.168  0.00  0.00    +0.003 A 
ATOM     29  C   UNL     1       0.278  -3.986   6.465  0.00  0.00    +0.005 A 
ATOM     30  C   UNL     1       0.620  -5.166   7.098  0.00  0.00    -0.030 A 
ATOM     31  C   UNL     1       0.979  -5.157   8.433  0.00  0.00    +0.005 A 
ATOM     32  C   UNL     1       1.000  -3.966   9.134  0.00  0.00    +0.003 A 
ENDBRANCH  25  30
ENDBRANCH  21  25
ENDBRANCH  20  22
ENDBRANCH  19  20
ENDBRANCH   1  19
TORSDOF 7
