REMARK  Name = ZINC10342048
REMARK  4 active torsions:
REMARK  status: ('A' for Active; 'I' for Inactive)
REMARK    1  A    between atoms: C_6  and  S_7
REMARK    2  A    between atoms: S_7  and  N_10
REMARK    3  A    between atoms: C_14  and  C_16
REMARK    4  A    between atoms: C_16  and  N_44
REMARK                            x       y       z     vdW  Elec       q    Type
REMARK                         _______ _______ _______ _____ _____    ______ ____
ROOT
ATOM      1  C   UNL     1       1.078   3.252  -1.031  0.00  0.00    +0.030 A 
ATOM      2  C   UNL     1      -0.111   3.908  -0.796  0.00  0.00    +0.026 A 
ATOM      3  C   UNL     1      -1.273   3.184  -0.523  0.00  0.00    +0.040 A 
ATOM      4  C   UNL     1      -1.212   1.800  -0.498  0.00  0.00    -0.023 A 
ATOM      5  C   UNL     1      -0.017   1.146  -0.728  0.00  0.00    +0.034 A 
ATOM      6  C   UNL     1       1.129   1.871  -0.998  0.00  0.00    +0.105 A 
ATOM      7  C   UNL     1      -2.590   1.264  -0.179  0.00  0.00    +0.056 C 
ATOM      8  C   UNL     1      -3.468   2.517  -0.030  0.00  0.00    +0.118 C 
ATOM      9  N   UNL     1      -2.566   3.648  -0.260  0.00  0.00    -0.272 N 
ATOM     10  C   UNL     1      -2.928   4.946  -0.224  0.00  0.00    +0.203 C 
ATOM     11  O   UNL     1      -2.104   5.812  -0.429  0.00  0.00    -0.277 OA
ENDROOT
BRANCH   6  12
ATOM     12  S   UNL     1       2.651   1.035  -1.297  0.00  0.00    +0.056 S 
ATOM     13  O   UNL     1       3.688   1.956  -0.986  0.00  0.00    -0.153 OA
ATOM     14  O   UNL     1       2.548  -0.236  -0.670  0.00  0.00    -0.153 OA
BRANCH  12  15
ATOM     15  N   UNL     1       2.743   0.753  -2.926  0.00  0.00    -0.204 NA
ATOM     16  H   UNL     1       3.607   0.717  -3.365  0.00  0.00    +0.144 HD
ATOM     17  H   UNL     1       1.932   0.623  -3.442  0.00  0.00    +0.144 HD
ENDBRANCH  12  15
ENDBRANCH   6  12
BRANCH  10  18
ATOM     18  C   UNL     1      -4.358   5.321   0.071  0.00  0.00    +0.020 C 
BRANCH  18  27
ATOM     19  C   UNL     1      -3.733   7.259   1.382  0.00  0.00    -0.073 C 
ATOM     20  C   UNL     1      -3.522   8.777   1.252  0.00  0.00    +0.024 C 
ATOM     21  C   UNL     1      -4.825   9.384   0.845  0.00  0.00    -0.011 A 
ATOM     22  C   UNL     1      -5.918   8.723   0.371  0.00  0.00    -0.054 A 
ATOM     23  C   UNL     1      -7.029   9.502   0.056  0.00  0.00    +0.009 A 
ATOM     24  C   UNL     1      -6.984  10.844   0.225  0.00  0.00    +0.045 A 
ATOM     25  S   UNL     1      -5.329  11.081   0.855  0.00  0.00    -0.101 S 
ATOM     26  C   UNL     1      -5.870   7.206   0.211  0.00  0.00    -0.042 C 
ATOM     27  N   UNL     1      -4.448   6.790   0.170  0.00  0.00    +0.388 N 
ATOM     28  H   UNL     1      -4.005   7.208  -0.657  0.00  0.00    -0.081 HD
ENDBRANCH  18  27
ENDBRANCH  10  18
TORSDOF 4
