REMARK  Name = ZINC09087493
REMARK  3 active torsions:
REMARK  status: ('A' for Active; 'I' for Inactive)
REMARK    1  A    between atoms: C_1  and  C_2
REMARK    2  A    between atoms: N_20  and  C_23
REMARK    3  A    between atoms: C_26  and  C_30
REMARK                            x       y       z     vdW  Elec       q    Type
REMARK                         _______ _______ _______ _____ _____    ______ ____
ROOT
ATOM      1  C   UNL     1      -1.835   4.805   0.048  0.00  0.00    +0.044 C 
ATOM      2  C   UNL     1      -0.728   3.782   0.031  0.00  0.00    -0.050 A 
ATOM      3  C   UNL     1       0.594   4.191   0.020  0.00  0.00    +0.005 A 
ATOM      4  C   UNL     1       1.611   3.260   0.005  0.00  0.00    +0.024 A 
ATOM      5  C   UNL     1       1.315   1.898  -0.000  0.00  0.00    +0.036 A 
ATOM      6  C   UNL     1      -0.018   1.499   0.010  0.00  0.00    -0.027 A 
ATOM      7  C   UNL     1      -1.031   2.432   0.030  0.00  0.00    +0.008 A 
ATOM      8  C   UNL     1       0.002  -0.004   0.002  0.00  0.00    +0.053 C 
ATOM      9  C   UNL     1      -0.707  -0.580   1.233  0.00  0.00    +0.089 C 
ATOM     10  C   UNL     1      -1.413  -1.863   0.716  0.00  0.00    +0.074 C 
ATOM     11  C   UNL     1      -1.058  -1.944  -0.780  0.00  0.00    -0.054 C 
ATOM     12  C   UNL     1      -2.006   0.140  -1.338  0.00  0.00    -0.076 C 
ATOM     13  C   UNL     1      -2.940  -0.913  -1.968  0.00  0.00    -0.020 C 
ATOM     14  C   UNL     1      -2.327  -2.275  -1.587  0.00  0.00    -0.016 C 
ATOM     15  C   UNL     1      -0.708  -2.974   1.460  0.00  0.00    +0.228 C 
ATOM     16  O   UNL     1      -0.953  -4.156   1.351  0.00  0.00    -0.275 OA
ATOM     17  N   UNL     1       0.230  -2.449   2.258  0.00  0.00    -0.209 N 
ATOM     18  C   UNL     1       0.317  -1.115   2.209  0.00  0.00    +0.229 C 
ATOM     19  O   UNL     1       1.096  -0.440   2.847  0.00  0.00    -0.275 OA
ATOM     20  C   UNL     1       1.461  -0.374  -0.014  0.00  0.00    +0.212 C 
ATOM     21  O   UNL     1       1.923  -1.495  -0.024  0.00  0.00    -0.277 OA
ATOM     22  N   UNL     1       2.153   0.782  -0.015  0.00  0.00    -0.286 N 
ATOM     23  H   UNL     1       3.122   0.832  -0.024  0.00  0.00    +0.155 HD
ATOM     24  N   UNL     1      -0.737  -0.580  -1.132  0.00  0.00    +0.395 N 
ATOM     25  H   UNL     1      -0.167  -0.545  -1.985  0.00  0.00    -0.079 HD
ENDROOT
BRANCH  17  26
ATOM     26  C   UNL     1       1.053  -3.233   3.078  0.00  0.00    +0.058 A 
ATOM     27  C   UNL     1       2.266  -3.708   2.597  0.00  0.00    +0.025 A 
ATOM     28  C   UNL     1       3.075  -4.480   3.407  0.00  0.00    +0.005 A 
ATOM     29  C   UNL     1       2.679  -4.781   4.697  0.00  0.00    -0.049 A 
ATOM     30  C   UNL     1       1.472  -4.311   5.180  0.00  0.00    +0.020 A 
ATOM     31  C   UNL     1       0.660  -3.533   4.376  0.00  0.00    +0.040 A 
ATOM     32 BR   UNL     1      -0.987  -2.883   5.040  0.00  0.00    -0.048 Br
ATOM     33  C   UNL     1       3.565  -5.623   5.579  0.00  0.00    +0.044 C 
ENDBRANCH  17  26
TORSDOF 1
