REMARK  Name = ZINC33959141
REMARK  12 active torsions:
REMARK  status: ('A' for Active; 'I' for Inactive)
REMARK    1  A    between atoms: C_1  and  C_2
REMARK    2  A    between atoms: C_2  and  C_3
REMARK    3  A    between atoms: C_3  and  O_4
REMARK    4  A    between atoms: O_4  and  C_5
REMARK    5  A    between atoms: C_8  and  C_12
REMARK    6  A    between atoms: C_10  and  C_11
REMARK    7  A    between atoms: C_13  and  C_23
REMARK    8  A    between atoms: N_15  and  C_17
REMARK    9  A    between atoms: N_24  and  N_25
REMARK   10  A    between atoms: N_25  and  C_26
REMARK   11  A    between atoms: C_27  and  C_32
REMARK   12  A    between atoms: C_29  and  C_31
REMARK                            x       y       z     vdW  Elec       q    Type
REMARK                         _______ _______ _______ _____ _____    ______ ____
ROOT
ATOM      1  C   UNL     1      -6.359  -4.575   0.464  0.00  0.00    +0.102 A 
ATOM      2  C   UNL     1      -7.573  -4.038   1.083  0.00  0.00    +0.040 A 
ATOM      3  C   UNL     1      -8.527  -5.012   0.984  0.00  0.00    +0.124 A 
ATOM      4  N   UNL     1      -7.976  -6.074   0.359  0.00  0.00    -0.239 N 
ATOM      5  N   UNL     1      -6.645  -5.788   0.041  0.00  0.00    -0.166 NA
ENDROOT
BRANCH   1   9
ATOM      6  C   UNL     1      -2.621  -2.583   0.088  0.00  0.00    +0.123 A 
ATOM      7  C   UNL     1      -3.802  -1.888  -0.136  0.00  0.00    +0.046 A 
ATOM      8  C   UNL     1      -5.015  -2.530  -0.015  0.00  0.00    +0.014 A 
ATOM      9  C   UNL     1      -5.056  -3.881   0.332  0.00  0.00    +0.003 A 
ATOM     10  C   UNL     1      -3.868  -4.576   0.556  0.00  0.00    +0.017 A 
ATOM     11  C   UNL     1      -2.657  -3.928   0.428  0.00  0.00    -0.008 A 
ATOM     12  C   UNL     1      -1.373  -4.680   0.664  0.00  0.00    +0.047 C 
BRANCH   6  13
ATOM     13  O   UNL     1      -1.426  -1.946  -0.032  0.00  0.00    -0.492 OA
BRANCH  13  14
ATOM     14  C   UNL     1      -1.463  -0.538  -0.276  0.00  0.00    +0.229 C 
BRANCH  14  16
ATOM     15  C   UNL     1      -0.077   1.525  -0.528  0.00  0.00    +0.007 C 
ATOM     16  C   UNL     1      -0.038   0.018  -0.266  0.00  0.00    +0.038 C 
ENDBRANCH  14  16
ENDBRANCH  13  14
ENDBRANCH   6  13
ENDBRANCH   1   9
BRANCH   4  17
ATOM     17  C   UNL     1      -8.636  -7.275   0.070  0.00  0.00    +0.065 A 
ATOM     18  C   UNL     1      -9.968  -7.440   0.427  0.00  0.00    +0.028 A 
ATOM     19  C   UNL     1     -10.616  -8.626   0.140  0.00  0.00    +0.002 A 
ATOM     20  C   UNL     1      -9.940  -9.648  -0.501  0.00  0.00    +0.000 A 
ATOM     21  C   UNL     1      -8.614  -9.486  -0.857  0.00  0.00    +0.002 A 
ATOM     22  C   UNL     1      -7.962  -8.301  -0.579  0.00  0.00    +0.028 A 
ENDBRANCH   4  17
BRANCH   2  23
ATOM     23  C   UNL     1      -7.735  -2.706   1.694  0.00  0.00    +0.142 C 
ATOM     24  N   UNL     1      -8.902  -2.322   2.113  0.00  0.00    -0.187 NA
BRANCH  24  25
ATOM     25  N   UNL     1      -9.079  -1.019   2.597  0.00  0.00    -0.205 N 
ATOM     26  H   UNL     1      -8.349  -0.381   2.551  0.00  0.00    +0.177 HD
BRANCH  25  27
ATOM     27  C   UNL     1     -10.289  -0.642   3.137  0.00  0.00    +0.244 A 
ATOM     28  C   UNL     1     -10.650   0.627   3.558  0.00  0.00    +0.202 A 
ATOM     29  N   UNL     1     -11.928   0.539   4.020  0.00  0.00    -0.201 NA
ATOM     30  C   UNL     1     -12.331  -0.689   3.897  0.00  0.00    +0.196 A 
ATOM     31  O   UNL     1     -11.355  -1.435   3.355  0.00  0.00    -0.424 OA
ATOM     32  C   UNL     1     -13.692  -1.199   4.296  0.00  0.00    +0.109 C 
BRANCH  28  33
ATOM     33  C   UNL     1      -9.836   1.805   3.516  0.00  0.00    +0.124 C 
ATOM     34  N   UNL     1      -9.191   2.739   3.483  0.00  0.00    -0.189 NA
ENDBRANCH  28  33
ENDBRANCH  25  27
ENDBRANCH  24  25
ENDBRANCH   2  23
TORSDOF 9
