REMARK  Name = ZINC66978274
REMARK  9 active torsions:
REMARK  status: ('A' for Active; 'I' for Inactive)
REMARK    1  A    between atoms: C_1  and  C_2
REMARK    2  A    between atoms: C_2  and  C_3
REMARK    3  A    between atoms: C_2  and  N_4
REMARK    4  A    between atoms: C_5  and  C_7
REMARK    5  A    between atoms: C_11  and  C_13
REMARK    6  A    between atoms: C_13  and  N_14
REMARK    7  A    between atoms: N_17  and  C_18
REMARK    8  A    between atoms: C_18  and  C_19
REMARK    9  A    between atoms: C_19  and  O_29
REMARK                            x       y       z     vdW  Elec       q    Type
REMARK                         _______ _______ _______ _____ _____    ______ ____
ROOT
ATOM      1  N   UNL     1       6.896  -0.291  -3.557  0.00  0.00    -0.295 N 
ATOM      2  C   UNL     1       8.223  -0.231  -3.784  0.00  0.00    +0.300 C 
ATOM      3  O   UNL     1       8.945  -1.137  -3.414  0.00  0.00    -0.253 OA
ATOM      4  N   UNL     1       8.751   0.833  -4.421  0.00  0.00    -0.296 N 
ATOM      5  H   UNL     1       6.321   0.432  -3.853  0.00  0.00    +0.151 HD
ATOM      6  H   UNL     1       8.175   1.556  -4.717  0.00  0.00    +0.150 HD
ENDROOT
BRANCH   1   7
ATOM      7  C   UNL     1       6.323  -1.447  -2.865  0.00  0.00    +0.141 C 
BRANCH   7  12
ATOM      8  C   UNL     1       2.924  -0.473  -1.517  0.00  0.00    +0.037 A 
ATOM      9  C   UNL     1       2.084  -0.951  -2.524  0.00  0.00    +0.013 A 
ATOM     10  C   UNL     1       2.623  -1.582  -3.626  0.00  0.00    +0.001 A 
ATOM     11  C   UNL     1       3.994  -1.741  -3.733  0.00  0.00    +0.005 A 
ATOM     12  C   UNL     1       4.832  -1.269  -2.739  0.00  0.00    -0.030 A 
ATOM     13  C   UNL     1       4.305  -0.631  -1.634  0.00  0.00    +0.018 A 
BRANCH   8  15
ATOM     14  N   UNL     1       1.018   0.356  -0.222  0.00  0.00    -0.309 N 
ATOM     15  C   UNL     1       2.352   0.205  -0.333  0.00  0.00    +0.244 C 
ATOM     16  O   UNL     1       3.086   0.625   0.540  0.00  0.00    -0.270 OA
ATOM     17  H   UNL     1       0.432   0.021  -0.919  0.00  0.00    +0.149 HD
BRANCH  14  19
ATOM     18  C   UNL     1       0.457   2.541   0.724  0.00  0.00    +0.027 C 
ATOM     19  C   UNL     1       0.452   1.027   0.950  0.00  0.00    +0.067 C 
ATOM     20  C   UNL     1      -0.986   0.549   1.167  0.00  0.00    +0.027 C 
ENDBRANCH  14  19
ENDBRANCH   8  15
ENDBRANCH   7  12
ENDBRANCH   1   7
BRANCH   4  21
ATOM     21  C   UNL     1      10.193   0.898  -4.668  0.00  0.00    +0.145 C 
BRANCH  21  22
ATOM     22  C   UNL     1      10.546   2.256  -5.278  0.00  0.00    +0.107 C 
ATOM     23  C   UNL     1      10.083   3.367  -4.338  0.00  0.00    +0.041 C 
ATOM     24  C   UNL     1      10.634   4.701  -4.856  0.00  0.00    +0.008 C 
ATOM     25  C   UNL     1      12.146   4.711  -4.644  0.00  0.00    +0.035 C 
ATOM     26  C   UNL     1      12.769   3.461  -5.207  0.00  0.00    -0.041 A 
ATOM     27  C   UNL     1      12.034   2.332  -5.495  0.00  0.00    -0.011 A 
ATOM     28  C   UNL     1      12.671   1.210  -6.007  0.00  0.00    +0.007 A 
ATOM     29  C   UNL     1      14.033   1.217  -6.233  0.00  0.00    +0.000 A 
ATOM     30  C   UNL     1      14.769   2.352  -5.948  0.00  0.00    +0.000 A 
ATOM     31  C   UNL     1      14.138   3.467  -5.437  0.00  0.00    +0.004 A 
BRANCH  22  32
ATOM     32  O   UNL     1       9.879   2.395  -6.535  0.00  0.00    -0.382 OA
ATOM     33  H   UNL     1      10.117   1.718  -7.183  0.00  0.00    +0.211 HD
ENDBRANCH  22  32
ENDBRANCH  21  22
ENDBRANCH   4  21
TORSDOF 7
